MODEL 2035
MODEL 1
REMARK VINA RESULT:    -6.707      0.000      0.000
REMARK INTER + INTRA:         -11.202
REMARK INTER:                  -9.452
REMARK INTRA:                  -1.750
REMARK UNBOUND:                -1.750
REMARK  Name = No_2035-gen_results/8p0m/2024-11-27-11-27-31/
REMARK  7 active torsions:
REMARK  status: ('A' for Active; 'I' for Inactive)
REMARK    1  A    between atoms: C_1  and  C_8
REMARK    2  A    between atoms: C_5  and  C_11
REMARK    3  A    between atoms: N_10  and  C_15
REMARK    4  A    between atoms: C_15  and  C_16
REMARK    5  A    between atoms: C_21  and  C_29
REMARK    6  A    between atoms: C_29  and  C_31
REMARK    7  A    between atoms: C_32  and  C_33
REMARK                            x       y       z     vdW  Elec       q    Type
REMARK                         _______ _______ _______ _____ _____    ______ ____
ROOT
ATOM      1  C   UNL A   1     -12.217   0.935  38.725  0.00  0.00    +0.050 C 
ATOM      2  C   UNL A   1     -11.807   1.110  37.601  0.00  0.00    -0.038 C 
ATOM      3  C   UNL A   1     -12.418   1.901  36.643  0.00  0.00    +0.039 C 
ATOM      4  C   UNL A   1     -11.997   2.062  35.272  0.00  0.00    +0.107 C 
ATOM      5  C   UNL A   1     -10.848   1.364  34.831  0.00  0.00    +0.124 C 
ATOM      6  C   UNL A   1     -10.171   0.538  35.765  0.00  0.00    +0.017 C 
ATOM      7  C   UNL A   1     -10.663   0.427  37.029  0.00  0.00    +0.023 C 
ATOM      8  C   UNL A   1     -13.643   2.645  36.988  0.00  0.00    +0.011 C 
ATOM      9  C   UNL A   1     -13.541   3.877  37.569  0.00  0.00    +0.039 C 
ATOM     10  C   UNL A   1     -12.540   4.676  37.290  0.00  0.00    -0.006 A 
ATOM     11  C   UNL A   1     -12.147   5.669  37.672  0.00  0.00    -0.003 A 
ATOM     12  C   UNL A   1     -10.994   6.523  37.254  0.00  0.00    -0.000 A 
ATOM     13  C   UNL A   1     -10.292   6.066  36.133  0.00  0.00    +0.001 A 
ATOM     14  C   UNL A   1     -10.669   4.890  35.514  0.00  0.00    +0.016 A 
ATOM     15  C   UNL A   1     -11.699   4.218  36.033  0.00  0.00    +0.061 A 
ATOM     16  N   UNL A   1     -12.140   3.418  35.284  0.00  0.00    -0.239 NA
ENDROOT
BRANCH   1  17
ATOM     17  C   UNL A   1     -11.304   1.449  39.816  0.00  0.00    +0.249 C 
ATOM     18  O   UNL A   1     -10.630   2.213  39.827  0.00  0.00    -0.270 OA
ATOM     19  N   UNL A   1     -11.219   0.420  40.861  0.00  0.00    -0.267 N 
ATOM     20  C   UNL A   1     -10.343   0.676  42.057  0.00  0.00    +0.116 C 
BRANCH  19  21
ATOM     21  C   UNL A   1     -11.886  -0.806  40.933  0.00  0.00    +0.198 C 
BRANCH  21  22
ATOM     22  C   UNL A   1     -11.036  -1.879  40.351  0.00  0.00    +0.416 C 
ATOM     23  F   UNL A   1     -10.782  -2.663  41.308  0.00  0.00    -0.168 F 
ATOM     24  F   UNL A   1     -10.000  -1.524  39.690  0.00  0.00    -0.168 F 
ATOM     25  F   UNL A   1     -11.847  -2.530  39.379  0.00  0.00    -0.168 F 
ENDBRANCH  21  22
ENDBRANCH  19  21
ENDBRANCH   1  17
BRANCH   5  26
ATOM     26  C   UNL A   1     -10.346   1.512  33.473  0.00  0.00    +0.366 C 
ATOM     27  O   UNL A   1      -9.504   2.338  33.149  0.00  0.00    -0.246 OA
ATOM     28  O   UNL A   1     -11.036   0.922  32.450  0.00  0.00    -0.246 OA
ENDBRANCH   5  26
BRANCH   9  29
ATOM     29  C   UNL A   1     -14.942   4.506  37.762  0.00  0.00    +0.083 C 
ATOM     30 BR   UNL A   1     -15.548   6.012  38.007  0.00  0.00    -0.076 Br
BRANCH  29  31
ATOM     31  C   UNL A   1     -15.957   3.437  38.225  0.00  0.00    -0.013 C 
ATOM     32  C   UNL A   1     -16.509   3.555  39.425  0.00  0.00    +0.019 C 
BRANCH  32  33
ATOM     33  C   UNL A   1     -17.449   2.499  39.795  0.00  0.00    +0.122 C 
ATOM     34  N   UNL A   1     -17.532   2.297  41.161  0.00  0.00    -0.146 NA
ENDBRANCH  32  33
ENDBRANCH  29  31
ENDBRANCH   9  29
TORSDOF 7
ENDMDL
ENDMDL
