REMARK  Name = outputs/IAG933/test6/raw/output_2036_IAG933_linker_design_.xyz
REMARK  14 active torsions:
REMARK  status: ('A' for Active; 'I' for Inactive)
REMARK    1  A    between atoms: C_1  and  C_2
REMARK    2  A    between atoms: C_1  and  C_8
REMARK    3  A    between atoms: C_1  and  C_34
REMARK    4  A    between atoms: C_13  and  C_30
REMARK    5  A    between atoms: C_14  and  C_15
REMARK    6  A    between atoms: C_21  and  O_22
REMARK    7  A    between atoms: O_22  and  C_23
REMARK    8  A    between atoms: C_23  and  C_24
REMARK    9  A    between atoms: C_28  and  C_37
REMARK   10  A    between atoms: C_29  and  N_31
REMARK   11  A    between atoms: C_29  and  O_44
REMARK   12  A    between atoms: C_32  and  C_34
REMARK   13  A    between atoms: C_33  and  C_37
REMARK   14  A    between atoms: C_34  and  N_48
REMARK                            x       y       z     vdW  Elec       q    Type
REMARK                         _______ _______ _______ _____ _____    ______ ____
ROOT
ATOM      1  C   UNL A   1     -25.168   0.123  29.060  0.00  0.00    +0.101 C 
ENDROOT
BRANCH   1   3
ATOM      2  C   UNL A   1     -24.422   1.463  26.924  0.00  0.00    +0.026 C 
ATOM      3  C   UNL A   1     -24.047   0.465  28.058  0.00  0.00    +0.025 C 
ATOM      4  C   UNL A   1     -21.720   1.298  27.693  0.00  0.00    +0.000 C 
ATOM      5  C   UNL A   1     -22.209   2.207  26.562  0.00  0.00    +0.000 C 
ATOM      6  C   UNL A   1     -23.362   1.660  25.779  0.00  0.00    +0.004 C 
ATOM      7  C   UNL A   1     -22.794   1.096  28.748  0.00  0.00    +0.002 C 
BRANCH   2   8
ATOM      8  C   UNL A   1     -25.688   1.614  26.461  0.00  0.00    +0.016 C 
ATOM      9  C   UNL A   1     -26.250   2.920  26.395  0.00  0.00    +0.073 C 
ATOM     10  C   UNL A   1     -27.438   3.091  25.645  0.00  0.00    +0.106 C 
ATOM     11  N   UNL A   1     -28.075   2.089  25.003  0.00  0.00    -0.208 NA
ATOM     12  C   UNL A   1     -27.543   0.849  25.079  0.00  0.00    +0.253 C 
ATOM     13  C   UNL A   1     -26.354   0.576  25.777  0.00  0.00    +0.189 C 
ATOM     14  F   UNL A   1     -25.860  -0.681  25.795  0.00  0.00    -0.200 F 
BRANCH   9  15
ATOM     15  C   UNL A   1     -25.642   4.093  27.123  0.00  0.00    +0.266 C 
ATOM     16  N   UNL A   1     -25.614   5.252  26.449  0.00  0.00    -0.200 NA
ATOM     17  C   UNL A   1     -25.026   6.479  26.963  0.00  0.00    +0.139 C 
ATOM     18  O   UNL A   1     -25.143   3.966  28.243  0.00  0.00    -0.268 OA
ENDBRANCH   9  15
BRANCH  12  19
ATOM     19  O   UNL A   1     -28.193  -0.208  24.477  0.00  0.00    -0.456 OA
BRANCH  19  20
ATOM     20  C   UNL A   1     -29.460   0.005  23.866  0.00  0.00    +0.243 C 
BRANCH  20  21
ATOM     21  C   UNL A   1     -30.065  -1.377  23.573  0.00  0.00    +0.229 C 
ATOM     22  O   UNL A   1     -30.729  -1.878  24.721  0.00  0.00    -0.216 OA
ENDBRANCH  20  21
ENDBRANCH  19  20
ENDBRANCH  12  19
ENDBRANCH   2   8
ENDBRANCH   1   3
BRANCH   1  25
ATOM     23  C   UNL A   1     -27.547   0.466  28.806  0.00  0.00    +0.242 C 
ATOM     24  O   UNL A   1     -27.521   1.449  29.547  0.00  0.00    -0.273 OA
ATOM     25  N   UNL A   1     -26.475  -0.209  28.491  0.00  0.00    -0.207 NA
BRANCH  23  26
ATOM     26  C   UNL A   1     -28.779  -0.047  28.108  0.00  0.00    +0.094 C 
BRANCH  26  27
ATOM     27  C   UNL A   1     -30.064  -0.272  29.122  0.00  0.00    +0.090 C 
ATOM     28  C   UNL A   1     -31.016  -1.402  29.171  0.00  0.00    +0.202 C 
ATOM     29  O   UNL A   1     -31.071  -1.300  26.891  0.00  0.00    -0.219 OA
ATOM     30  C   UNL A   1     -31.005  -0.450  27.970  0.00  0.00    +0.200 C 
BRANCH  28  31
ATOM     31  N   UNL A   1     -32.472  -1.284  29.508  0.00  0.00    -0.179 NA
ATOM     32  O   UNL A   1     -32.744   1.005  29.394  0.00  0.00    -0.273 OA
ATOM     33  C   UNL A   1     -34.368  -0.208  30.653  0.00  0.00    +0.097 C 
ATOM     34  C   UNL A   1     -33.104  -0.125  29.823  0.00  0.00    +0.244 C 
ENDBRANCH  28  31
BRANCH  28  36
ATOM     35  C   UNL A   1     -29.724  -3.316  29.829  0.00  0.00    +0.176 C 
ATOM     36  O   UNL A   1     -30.458  -2.207  30.358  0.00  0.00    -0.335 OA
ENDBRANCH  28  36
ENDBRANCH  26  27
ENDBRANCH  23  26
ENDBRANCH   1  25
BRANCH   1  37
ATOM     37  C   UNL A   1     -24.855  -1.012  30.143  0.00  0.00    +0.058 C 
BRANCH  37  38
ATOM     38  C   UNL A   1     -24.973  -2.505  29.788  0.00  0.00    -0.019 C 
ATOM     39  C   UNL A   1     -23.906  -3.173  29.146  0.00  0.00    -0.004 C 
ATOM     40  C   UNL A   1     -23.989  -4.549  28.853  0.00  0.00    -0.000 C 
ATOM     41  C   UNL A   1     -25.137  -5.280  29.205  0.00  0.00    -0.000 C 
ATOM     42  C   UNL A   1     -26.232  -4.611  29.784  0.00  0.00    -0.000 C 
ATOM     43  C   UNL A   1     -26.155  -3.232  30.065  0.00  0.00    -0.004 C 
ENDBRANCH  37  38
BRANCH  37  44
ATOM     44  C   UNL A   1     -25.387  -0.679  31.571  0.00  0.00    +0.079 C 
ATOM     45  C   UNL A   1     -25.189   0.773  32.028  0.00  0.00    +0.019 C 
ATOM     46  C   UNL A   1     -25.336   0.684  33.544  0.00  0.00    +0.020 C 
ATOM     47  C   UNL A   1     -24.829  -0.715  33.905  0.00  0.00    +0.089 C 
ATOM     48  N   UNL A   1     -24.758  -1.481  32.646  0.00  0.00    -0.219 NA
ENDBRANCH  37  44
ENDBRANCH   1  37
TORSDOF 14
