REMARK  Name = outputs/IAG933/test6/raw/output_2037_IAG933_linker_design_.xyz
REMARK  11 active torsions:
REMARK  status: ('A' for Active; 'I' for Inactive)
REMARK    1  A    between atoms: C_1  and  C_2
REMARK    2  A    between atoms: C_1  and  C_8
REMARK    3  A    between atoms: C_13  and  C_39
REMARK    4  A    between atoms: C_14  and  C_15
REMARK    5  A    between atoms: C_21  and  O_22
REMARK    6  A    between atoms: O_22  and  C_23
REMARK    7  A    between atoms: C_23  and  C_24
REMARK    8  A    between atoms: O_29  and  C_30
REMARK    9  A    between atoms: O_29  and  C_40
REMARK   10  A    between atoms: N_33  and  C_35
REMARK   11  A    between atoms: N_33  and  C_40
REMARK                            x       y       z     vdW  Elec       q    Type
REMARK                         _______ _______ _______ _____ _____    ______ ____
ROOT
ATOM      1  N   UNL A   1     -24.420   1.752  30.084  0.00  0.00    -0.179 NA
ENDROOT
BRANCH   1   7
ATOM      2  C   UNL A   1     -25.387  -0.679  31.571  0.00  0.00    +0.100 C 
ATOM      3  C   UNL A   1     -25.189   0.773  32.028  0.00  0.00    +0.024 C 
ATOM      4  C   UNL A   1     -25.336   0.684  33.544  0.00  0.00    +0.047 C 
ATOM      5  C   UNL A   1     -24.829  -0.715  33.905  0.00  0.00    +0.094 C 
ATOM      6  N   UNL A   1     -24.758  -1.481  32.646  0.00  0.00    -0.214 NA
ATOM      7  C   UNL A   1     -24.797   2.147  31.412  0.00  0.00    +0.212 C 
BRANCH   2   8
ATOM      8  C   UNL A   1     -24.855  -1.012  30.143  0.00  0.00    +0.048 C 
BRANCH   8   9
ATOM      9  C   UNL A   1     -24.973  -2.505  29.788  0.00  0.00    -0.021 C 
ATOM     10  C   UNL A   1     -23.906  -3.173  29.146  0.00  0.00    -0.004 C 
ATOM     11  C   UNL A   1     -23.989  -4.549  28.853  0.00  0.00    -0.000 C 
ATOM     12  C   UNL A   1     -25.137  -5.280  29.205  0.00  0.00    -0.000 C 
ATOM     13  C   UNL A   1     -26.232  -4.611  29.784  0.00  0.00    -0.000 C 
ATOM     14  C   UNL A   1     -26.155  -3.232  30.065  0.00  0.00    -0.004 C 
ENDBRANCH   8   9
ENDBRANCH   2   8
BRANCH   7  15
ATOM     15  O   UNL A   1     -24.643   3.119  32.070  0.00  0.00    -0.439 OA
BRANCH  15  17
ATOM     16  C   UNL A   1     -26.215   6.396  31.177  0.00  0.00    +0.019 C 
ATOM     17  C   UNL A   1     -25.498   4.196  32.290  0.00  0.00    +0.148 C 
ATOM     18  C   UNL A   1     -25.875   5.074  31.225  0.00  0.00    +0.039 C 
ATOM     19  C   UNL A   1     -26.353   7.256  32.256  0.00  0.00    +0.066 C 
ATOM     20  C   UNL A   1     -25.718   4.580  33.626  0.00  0.00    +0.054 C 
ATOM     21  C   UNL A   1     -25.904   5.806  34.216  0.00  0.00    +0.069 C 
ATOM     22  C   UNL A   1     -26.378   8.194  34.520  0.00  0.00    +0.117 C 
ATOM     23  N   UNL A   1     -26.305   6.969  33.714  0.00  0.00    -0.283 N 
ENDBRANCH  15  17
ENDBRANCH   7  15
ENDBRANCH   1   7
BRANCH   1  25
ATOM     24  C   UNL A   1     -22.553   1.085  28.604  0.00  0.00    +0.017 C 
ATOM     25  C   UNL A   1     -23.881   1.379  28.479  0.00  0.00    +0.074 C 
ATOM     26  C   UNL A   1     -21.942   2.003  26.190  0.00  0.00    +0.000 C 
ATOM     27  C   UNL A   1     -24.337   1.384  26.927  0.00  0.00    +0.018 C 
ATOM     28  C   UNL A   1     -21.453   1.724  27.569  0.00  0.00    +0.001 C 
ATOM     29  C   UNL A   1     -23.408   1.801  25.821  0.00  0.00    +0.001 C 
BRANCH  27  30
ATOM     30  C   UNL A   1     -25.688   1.614  26.461  0.00  0.00    +0.039 C 
ATOM     31  C   UNL A   1     -26.250   2.920  26.395  0.00  0.00    +0.077 C 
ATOM     32  C   UNL A   1     -27.438   3.091  25.645  0.00  0.00    +0.107 C 
ATOM     33  N   UNL A   1     -28.075   2.089  25.003  0.00  0.00    -0.208 NA
ATOM     34  C   UNL A   1     -27.543   0.849  25.079  0.00  0.00    +0.253 C 
ATOM     35  C   UNL A   1     -26.354   0.576  25.777  0.00  0.00    +0.193 C 
ATOM     36  F   UNL A   1     -25.860  -0.681  25.795  0.00  0.00    -0.199 F 
BRANCH  31  37
ATOM     37  C   UNL A   1     -25.642   4.093  27.123  0.00  0.00    +0.266 C 
ATOM     38  N   UNL A   1     -25.614   5.252  26.449  0.00  0.00    -0.200 NA
ATOM     39  C   UNL A   1     -25.026   6.479  26.963  0.00  0.00    +0.139 C 
ATOM     40  O   UNL A   1     -25.143   3.966  28.243  0.00  0.00    -0.268 OA
ENDBRANCH  31  37
BRANCH  34  41
ATOM     41  O   UNL A   1     -28.193  -0.208  24.477  0.00  0.00    -0.456 OA
BRANCH  41  42
ATOM     42  C   UNL A   1     -29.460   0.005  23.866  0.00  0.00    +0.243 C 
BRANCH  42  43
ATOM     43  C   UNL A   1     -30.065  -1.377  23.573  0.00  0.00    +0.229 C 
ATOM     44  O   UNL A   1     -30.729  -1.878  24.721  0.00  0.00    -0.216 OA
ENDBRANCH  42  43
ENDBRANCH  41  42
ENDBRANCH  34  41
ENDBRANCH  27  30
ENDBRANCH   1  25
TORSDOF 11
