MODEL 2037
MODEL 1
REMARK VINA RESULT:    -6.012      0.000      0.000
REMARK INTER + INTRA:          -7.136
REMARK INTER:                  -6.715
REMARK INTRA:                  -0.422
REMARK UNBOUND:                -0.422
REMARK  Name = No_2037-gen_results/8p0m/2024-11-27-11-27-31/
REMARK  2 active torsions:
REMARK  status: ('A' for Active; 'I' for Inactive)
REMARK    1  A    between atoms: C_2  and  C_14
REMARK    2  A    between atoms: C_4  and  C_7
REMARK                            x       y       z     vdW  Elec       q    Type
REMARK                         _______ _______ _______ _____ _____    ______ ____
ROOT
ATOM      1  C   UNL A   1     -28.945 -10.473  32.795  0.00  0.00    +0.007 A 
ATOM      2  C   UNL A   1     -28.165 -11.173  32.684  0.00  0.00    +0.080 A 
ATOM      3  C   UNL A   1     -29.787 -10.230  31.613  0.00  0.00    +0.000 A 
ATOM      4  C   UNL A   1     -29.625 -11.015  30.435  0.00  0.00    +0.001 A 
ATOM      5  C   UNL A   1     -27.824 -12.146  31.610  0.00  0.00    +0.007 A 
ATOM      6  C   UNL A   1     -28.578 -11.945  30.492  0.00  0.00    +0.000 A 
ENDROOT
BRANCH   4   7
ATOM      7  C   UNL A   1     -30.420 -10.828  29.266  0.00  0.00    +0.017 A 
ATOM      8  C   UNL A   1     -29.949 -10.672  28.095  0.00  0.00    +0.001 A 
ATOM      9  C   UNL A   1     -30.780 -10.699  26.886  0.00  0.00    +0.000 A 
ATOM     10  C   UNL A   1     -31.509 -11.833  28.987  0.00  0.00    +0.089 A 
ATOM     11  N   UNL A   1     -32.228 -12.304  30.105  0.00  0.00    -0.128 NA
ATOM     12  C   UNL A   1     -32.010 -12.100  27.711  0.00  0.00    +0.018 A 
ATOM     13  C   UNL A   1     -31.456 -11.778  26.602  0.00  0.00    +0.001 A 
ENDBRANCH   4   7
BRANCH   2  14
ATOM     14  C   UNL A   1     -27.241 -11.467  33.988  0.00  0.00    +0.388 C 
ATOM     15  O   UNL A   1     -26.935 -10.690  34.758  0.00  0.00    -0.241 OA
ATOM     16  O   UNL A   1     -26.859 -12.693  34.063  0.00  0.00    -0.241 OA
ENDBRANCH   2  14
TORSDOF 2
ENDMDL
ENDMDL
