MODEL 2038
MODEL 1
REMARK VINA RESULT:    -4.783      0.000      0.000
REMARK INTER + INTRA:          -5.419
REMARK INTER:                  -5.343
REMARK INTRA:                  -0.077
REMARK UNBOUND:                -0.077
REMARK  Name = No_2038-gen_results/8p0m/2024-11-27-11-27-31/
REMARK  2 active torsions:
REMARK  status: ('A' for Active; 'I' for Inactive)
REMARK    1  A    between atoms: C_3  and  C_8
REMARK    2  A    between atoms: C_8  and  C_9
REMARK                            x       y       z     vdW  Elec       q    Type
REMARK                         _______ _______ _______ _____ _____    ______ ____
ROOT
ATOM      1  C   UNL A   1     -29.475 -11.276  29.184  0.00  0.00    +0.042 A 
ATOM      2  C   UNL A   1     -28.668 -11.868  29.863  0.00  0.00    -0.001 A 
ATOM      3  C   UNL A   1     -28.467 -11.614  31.219  0.00  0.00    -0.016 A 
ATOM      4  C   UNL A   1     -29.214 -10.547  31.856  0.00  0.00    -0.001 A 
ATOM      5  C   UNL A   1     -30.130  -9.894  30.999  0.00  0.00    +0.042 A 
ATOM      6  C   UNL A   1     -30.245 -10.200  29.732  0.00  0.00    +0.196 A 
ATOM      7  O   UNL A   1     -31.125  -9.467  28.987  0.00  0.00    -0.287 OA
ENDROOT
BRANCH   3   8
ATOM      8  C   UNL A   1     -27.490 -12.304  32.122  0.00  0.00    +0.075 C 
BRANCH   8   9
ATOM      9  C   UNL A   1     -27.099 -11.759  33.318  0.00  0.00    +0.100 C 
ATOM     10  N   UNL A   1     -27.495 -12.415  34.458  0.00  0.00    -0.151 NA
ENDBRANCH   8   9
ENDBRANCH   3   8
TORSDOF 2
ENDMDL
ENDMDL
