MODEL 2039
MODEL 1
REMARK VINA RESULT:    -7.909      0.000      0.000
REMARK INTER + INTRA:          -9.624
REMARK INTER:                  -9.296
REMARK INTRA:                  -0.328
REMARK UNBOUND:                -0.328
REMARK  Name = No_2039-gen_results/8p0m/2024-11-27-11-27-31/
REMARK  3 active torsions:
REMARK  status: ('A' for Active; 'I' for Inactive)
REMARK    1  A    between atoms: C_1  and  C_2
REMARK    2  A    between atoms: C_5  and  C_11
REMARK    3  A    between atoms: N_8  and  C_10
REMARK                            x       y       z     vdW  Elec       q    Type
REMARK                         _______ _______ _______ _____ _____    ______ ____
ROOT
ATOM      1  C   UNL A   1     -23.149  -1.005  29.558  0.00  0.00    +0.253 C 
ATOM      2  N   UNL A   1     -24.413  -1.324  29.964  0.00  0.00    -0.253 N 
ATOM      3  C   UNL A   1     -24.976  -0.735  31.026  0.00  0.00    +0.120 C 
ATOM      4  O   UNL A   1     -22.288  -0.926  30.546  0.00  0.00    -0.270 OA
ENDROOT
BRANCH   1   5
ATOM      5  C   UNL A   1     -23.080  -0.195  28.663  0.00  0.00    +0.054 A 
ATOM      6  C   UNL A   1     -24.175   0.072  27.849  0.00  0.00    +0.005 A 
ATOM      7  C   UNL A   1     -24.213   1.036  26.712  0.00  0.00    +0.004 A 
ATOM      8  C   UNL A   1     -23.062   1.863  26.557  0.00  0.00    +0.048 A 
ATOM      9  C   UNL A   1     -21.985   1.618  27.433  0.00  0.00    +0.004 A 
ATOM     10  C   UNL A   1     -21.991   0.695  28.406  0.00  0.00    +0.005 A 
BRANCH   8  11
ATOM     11  C   UNL A   1     -23.093   2.824  25.486  0.00  0.00    +0.242 C 
ATOM     12  N   UNL A   1     -24.003   3.686  25.419  0.00  0.00    -0.116 NA
ATOM     13  F   UNL A   1     -22.318   2.717  24.491  0.00  0.00    -0.181 F 
ENDBRANCH   8  11
ENDBRANCH   1   5
BRANCH   2  14
ATOM     14  C   UNL A   1     -24.676  -2.782  29.865  0.00  0.00    +0.054 A 
ATOM     15  C   UNL A   1     -25.955  -3.250  30.206  0.00  0.00    +0.015 A 
ATOM     16  C   UNL A   1     -26.311  -4.360  29.626  0.00  0.00    +0.001 A 
ATOM     17  C   UNL A   1     -25.355  -5.261  29.030  0.00  0.00    +0.000 A 
ATOM     18  C   UNL A   1     -24.090  -4.727  28.674  0.00  0.00    +0.001 A 
ATOM     19  C   UNL A   1     -23.889  -3.440  28.889  0.00  0.00    +0.015 A 
ENDBRANCH   2  14
TORSDOF 3
ENDMDL
ENDMDL
