REMARK  Name = outputs/IAG933/test6/raw/output_2039_IAG933_linker_design_.xyz
REMARK  11 active torsions:
REMARK  status: ('A' for Active; 'I' for Inactive)
REMARK    1  A    between atoms: C_1  and  C_2
REMARK    2  A    between atoms: C_1  and  C_8
REMARK    3  A    between atoms: C_1  and  N_31
REMARK    4  A    between atoms: C_13  and  C_37
REMARK    5  A    between atoms: C_14  and  C_15
REMARK    6  A    between atoms: C_21  and  O_22
REMARK    7  A    between atoms: O_22  and  C_23
REMARK    8  A    between atoms: C_23  and  C_24
REMARK    9  A    between atoms: C_29  and  C_35
REMARK   10  A    between atoms: C_29  and  N_39
REMARK   11  A    between atoms: C_36  and  N_39
REMARK                            x       y       z     vdW  Elec       q    Type
REMARK                         _______ _______ _______ _____ _____    ______ ____
ROOT
ATOM      1  C   UNL A   1     -23.188   1.548  27.034  0.00  0.00    +0.093 C 
ATOM      2 CL   UNL A   1     -22.540   2.449  25.650  0.00  0.00    -0.080 Cl
ATOM      3  N   UNL A   1     -24.203  -0.154  29.153  0.00  0.00    -0.173 N 
ATOM      4  C   UNL A   1     -22.758   0.128  29.047  0.00  0.00    +0.305 C 
ATOM      5  C   UNL A   1     -22.262   0.936  27.984  0.00  0.00    +0.190 C 
ATOM      6  F   UNL A   1     -20.941   1.111  27.865  0.00  0.00    -0.202 F 
ATOM      7  C   UNL A   1     -25.058   0.437  28.268  0.00  0.00    +0.311 C 
ATOM      8  C   UNL A   1     -24.592   1.275  27.252  0.00  0.00    +0.095 C 
ATOM      9  N   UNL A   1     -21.945  -0.415  29.980  0.00  0.00    -0.076 NA
ENDROOT
BRANCH   8  10
ATOM     10  C   UNL A   1     -25.688   1.614  26.461  0.00  0.00    +0.046 C 
ATOM     11  C   UNL A   1     -26.250   2.920  26.395  0.00  0.00    +0.077 C 
ATOM     12  C   UNL A   1     -27.438   3.091  25.645  0.00  0.00    +0.107 C 
ATOM     13  N   UNL A   1     -28.075   2.089  25.003  0.00  0.00    -0.208 NA
ATOM     14  C   UNL A   1     -27.543   0.849  25.079  0.00  0.00    +0.253 C 
ATOM     15  C   UNL A   1     -26.354   0.576  25.777  0.00  0.00    +0.193 C 
ATOM     16  F   UNL A   1     -25.860  -0.681  25.795  0.00  0.00    -0.199 F 
BRANCH  11  17
ATOM     17  C   UNL A   1     -25.642   4.093  27.123  0.00  0.00    +0.266 C 
ATOM     18  N   UNL A   1     -25.614   5.252  26.449  0.00  0.00    -0.200 NA
ATOM     19  C   UNL A   1     -25.026   6.479  26.963  0.00  0.00    +0.139 C 
ATOM     20  O   UNL A   1     -25.143   3.966  28.243  0.00  0.00    -0.268 OA
ENDBRANCH  11  17
BRANCH  14  21
ATOM     21  O   UNL A   1     -28.193  -0.208  24.477  0.00  0.00    -0.456 OA
BRANCH  21  22
ATOM     22  C   UNL A   1     -29.460   0.005  23.866  0.00  0.00    +0.243 C 
BRANCH  22  23
ATOM     23  C   UNL A   1     -30.065  -1.377  23.573  0.00  0.00    +0.229 C 
ATOM     24  O   UNL A   1     -30.729  -1.878  24.721  0.00  0.00    -0.216 OA
ENDBRANCH  22  23
ENDBRANCH  21  22
ENDBRANCH  14  21
ENDBRANCH   8  10
BRANCH   3  25
ATOM     25  C   UNL A   1     -24.855  -1.012  30.143  0.00  0.00    +0.200 C 
BRANCH  25  26
ATOM     26  C   UNL A   1     -24.973  -2.505  29.788  0.00  0.00    +0.021 C 
ATOM     27  C   UNL A   1     -23.906  -3.173  29.146  0.00  0.00    -0.000 C 
ATOM     28  C   UNL A   1     -23.989  -4.549  28.853  0.00  0.00    -0.000 C 
ATOM     29  C   UNL A   1     -25.137  -5.280  29.205  0.00  0.00    -0.000 C 
ATOM     30  C   UNL A   1     -26.232  -4.611  29.784  0.00  0.00    -0.000 C 
ATOM     31  C   UNL A   1     -26.155  -3.232  30.065  0.00  0.00    -0.000 C 
ENDBRANCH  25  26
BRANCH  25  32
ATOM     32  C   UNL A   1     -25.387  -0.679  31.571  0.00  0.00    +0.120 C 
ATOM     33  C   UNL A   1     -25.189   0.773  32.028  0.00  0.00    +0.023 C 
ATOM     34  C   UNL A   1     -25.336   0.684  33.544  0.00  0.00    +0.020 C 
ATOM     35  C   UNL A   1     -24.829  -0.715  33.905  0.00  0.00    +0.089 C 
ATOM     36  N   UNL A   1     -24.758  -1.481  32.646  0.00  0.00    -0.215 NA
ENDBRANCH  25  32
ENDBRANCH   3  25
BRANCH   7  37
ATOM     37  N   UNL A   1     -26.479   0.225  28.356  0.00  0.00    -0.036 NA
BRANCH  37  38
ATOM     38  C   UNL A   1     -27.522   1.052  29.025  0.00  0.00    +0.251 C 
BRANCH  38  39
ATOM     39  C   UNL A   1     -29.091   0.508  28.810  0.00  0.00    +0.055 C 
ATOM     40  C   UNL A   1     -29.359  -0.360  30.078  0.00  0.00    +0.004 C 
ENDBRANCH  38  39
ENDBRANCH  37  38
ENDBRANCH   7  37
TORSDOF 11
