MODEL 203
MODEL 1
REMARK VINA RESULT:    -4.240      0.000      0.000
REMARK INTER + INTRA:          -4.240
REMARK INTER:                  -4.240
REMARK INTRA:                   0.000
REMARK UNBOUND:                 0.000
REMARK  Name = No_203-gen_results/8p0m/2024-11-27-11-27-31/
REMARK  0 active torsions:
REMARK  status: ('A' for Active; 'I' for Inactive)
REMARK                            x       y       z     vdW  Elec       q    Type
REMARK                         _______ _______ _______ _____ _____    ______ ____
ROOT
ATOM      1  C   UNL A   1     -25.209  -5.294  29.195  0.00  0.00    +0.000 A 
ATOM      2  C   UNL A   1     -26.148  -4.650  29.604  0.00  0.00    +0.000 A 
ATOM      3  C   UNL A   1     -26.122  -3.279  29.764  0.00  0.00    +0.000 A 
ATOM      4  C   UNL A   1     -24.937  -2.585  29.390  0.00  0.00    +0.000 A 
ATOM      5  C   UNL A   1     -23.981  -3.325  28.782  0.00  0.00    +0.000 A 
ATOM      6  C   UNL A   1     -24.108  -4.630  28.633  0.00  0.00    +0.000 A 
ENDROOT
TORSDOF 0
ENDMDL
ENDMDL
