REMARK  Name = outputs/IAG933/test6/raw/output_204_IAG933_linker_design_.xyz
REMARK  15 active torsions:
REMARK  status: ('A' for Active; 'I' for Inactive)
REMARK    1  A    between atoms: C_1  and  C_2
REMARK    2  A    between atoms: C_1  and  C_8
REMARK    3  A    between atoms: C_1  and  C_29
REMARK    4  A    between atoms: C_13  and  C_41
REMARK    5  A    between atoms: C_14  and  C_15
REMARK    6  A    between atoms: C_21  and  O_22
REMARK    7  A    between atoms: O_22  and  C_23
REMARK    8  A    between atoms: C_23  and  C_24
REMARK    9  A    between atoms: N_28  and  C_29
REMARK   10  A    between atoms: C_29  and  N_40
REMARK   11  A    between atoms: O_31  and  C_36
REMARK   12  A    between atoms: C_34  and  C_38
REMARK   13  A    between atoms: C_35  and  C_37
REMARK   14  A    between atoms: C_36  and  C_41
REMARK   15  A    between atoms: C_37  and  C_38
REMARK                            x       y       z     vdW  Elec       q    Type
REMARK                         _______ _______ _______ _____ _____    ______ ____
ROOT
ATOM      1  N   UNL A   1     -24.607   0.601  28.506  0.00  0.00    -0.256 NA
ATOM      2  C   UNL A   1     -24.663   1.247  27.540  0.00  0.00    +0.067 C 
ENDROOT
BRANCH   2   3
ATOM      3  C   UNL A   1     -25.688   1.614  26.461  0.00  0.00    +0.108 C 
ATOM      4  C   UNL A   1     -26.250   2.920  26.395  0.00  0.00    +0.060 C 
ATOM      5  C   UNL A   1     -27.438   3.091  25.645  0.00  0.00    +0.102 C 
ATOM      6  N   UNL A   1     -28.075   2.089  25.003  0.00  0.00    -0.212 NA
ATOM      7  C   UNL A   1     -27.543   0.849  25.079  0.00  0.00    +0.234 C 
ATOM      8  C   UNL A   1     -26.354   0.576  25.777  0.00  0.00    +0.245 C 
ATOM      9  F   UNL A   1     -25.860  -0.681  25.795  0.00  0.00    -0.227 F 
BRANCH   4  10
ATOM     10  C   UNL A   1     -25.642   4.093  27.123  0.00  0.00    +0.263 C 
ATOM     11  N   UNL A   1     -25.614   5.252  26.449  0.00  0.00    -0.200 NA
ATOM     12  C   UNL A   1     -25.026   6.479  26.963  0.00  0.00    +0.139 C 
ATOM     13  O   UNL A   1     -25.143   3.966  28.243  0.00  0.00    -0.269 OA
ENDBRANCH   4  10
BRANCH   7  14
ATOM     14  O   UNL A   1     -28.193  -0.208  24.477  0.00  0.00    -0.459 OA
BRANCH  14  15
ATOM     15  C   UNL A   1     -29.460   0.005  23.866  0.00  0.00    +0.242 C 
BRANCH  15  16
ATOM     16  C   UNL A   1     -30.065  -1.377  23.573  0.00  0.00    +0.229 C 
ATOM     17  O   UNL A   1     -30.729  -1.878  24.721  0.00  0.00    -0.216 OA
ENDBRANCH  15  16
ENDBRANCH  14  15
ENDBRANCH   7  14
ENDBRANCH   2   3
BRANCH   2  19
ATOM     18  C   UNL A   1     -23.026   2.573  25.806  0.00  0.00    +0.038 C 
ATOM     19  C   UNL A   1     -23.391   1.467  26.778  0.00  0.00    +0.151 C 
BRANCH  19  20
ATOM     20  O   UNL A   1     -22.398   0.804  27.532  0.00  0.00    -0.348 OA
ATOM     21  C   UNL A   1     -21.414   0.879  28.166  0.00  0.00    +0.174 C 
ENDBRANCH  19  20
ENDBRANCH   2  19
BRANCH   1  22
ATOM     22  C   UNL A   1     -25.556   0.065  29.148  0.00  0.00    +0.202 C 
BRANCH  22  24
ATOM     23  C   UNL A   1     -27.936   0.902  29.302  0.00  0.00    +0.243 C 
ATOM     24  N   UNL A   1     -26.659   0.809  29.252  0.00  0.00    -0.182 NA
ATOM     25  O   UNL A   1     -28.392   1.628  30.179  0.00  0.00    -0.273 OA
BRANCH  23  26
ATOM     26  C   UNL A   1     -28.846   0.201  28.250  0.00  0.00    +0.089 C 
BRANCH  26  27
ATOM     27  C   UNL A   1     -30.368   0.576  28.455  0.00  0.00    +0.043 C 
BRANCH  27  30
ATOM     28  C   UNL A   1     -30.249  -0.910  30.557  0.00  0.00    +0.035 C 
ATOM     29  O   UNL A   1     -31.088  -1.601  28.330  0.00  0.00    -0.223 OA
ATOM     30  C   UNL A   1     -30.666  -0.638  29.141  0.00  0.00    +0.153 C 
ENDBRANCH  27  30
ENDBRANCH  26  27
ENDBRANCH  23  26
ENDBRANCH  22  24
BRANCH  22  31
ATOM     31  C   UNL A   1     -24.855  -1.012  30.143  0.00  0.00    +0.081 C 
BRANCH  31  32
ATOM     32  C   UNL A   1     -24.973  -2.505  29.788  0.00  0.00    -0.018 C 
ATOM     33  C   UNL A   1     -23.906  -3.173  29.146  0.00  0.00    -0.004 C 
ATOM     34  C   UNL A   1     -23.989  -4.549  28.853  0.00  0.00    -0.000 C 
ATOM     35  C   UNL A   1     -25.137  -5.280  29.205  0.00  0.00    -0.000 C 
ATOM     36  C   UNL A   1     -26.232  -4.611  29.784  0.00  0.00    -0.000 C 
ATOM     37  C   UNL A   1     -26.155  -3.232  30.065  0.00  0.00    -0.004 C 
ENDBRANCH  31  32
BRANCH  31  38
ATOM     38  C   UNL A   1     -25.387  -0.679  31.571  0.00  0.00    +0.080 C 
ATOM     39  C   UNL A   1     -25.189   0.773  32.028  0.00  0.00    +0.019 C 
ATOM     40  C   UNL A   1     -25.336   0.684  33.544  0.00  0.00    +0.020 C 
ATOM     41  C   UNL A   1     -24.829  -0.715  33.905  0.00  0.00    +0.089 C 
ATOM     42  N   UNL A   1     -24.758  -1.481  32.646  0.00  0.00    -0.219 NA
ENDBRANCH  31  38
ENDBRANCH  22  31
ENDBRANCH   1  22
TORSDOF 15
