REMARK  Name = outputs/IAG933/test6/raw/output_2040_IAG933_linker_design_.xyz
REMARK  11 active torsions:
REMARK  status: ('A' for Active; 'I' for Inactive)
REMARK    1  A    between atoms: C_1  and  C_2
REMARK    2  A    between atoms: C_1  and  C_8
REMARK    3  A    between atoms: C_1  and  C_43
REMARK    4  A    between atoms: C_13  and  C_40
REMARK    5  A    between atoms: C_14  and  C_15
REMARK    6  A    between atoms: C_21  and  O_22
REMARK    7  A    between atoms: O_22  and  C_23
REMARK    8  A    between atoms: C_23  and  C_24
REMARK    9  A    between atoms: C_28  and  O_30
REMARK   10  A    between atoms: N_29  and  N_32
REMARK   11  A    between atoms: O_30  and  C_37
REMARK                            x       y       z     vdW  Elec       q    Type
REMARK                         _______ _______ _______ _____ _____    ______ ____
ROOT
ATOM      1  N   UNL A   1     -24.673   1.039  28.717  0.00  0.00    -0.224 N 
ATOM      2  C   UNL A   1     -22.683   0.281  29.629  0.00  0.00    +0.051 C 
ATOM      3  C   UNL A   1     -22.821   1.611  27.390  0.00  0.00    +0.139 C 
ATOM      4  C   UNL A   1     -22.077   1.147  28.651  0.00  0.00    +0.010 C 
ATOM      5  C   UNL A   1     -24.403   1.293  27.263  0.00  0.00    +0.172 C 
ATOM      6  C   UNL A   1     -24.037  -0.046  29.345  0.00  0.00    +0.102 C 
ENDROOT
BRANCH   1   7
ATOM      7  N   UNL A   1     -25.842   1.831  29.181  0.00  0.00    -0.184 NA
ATOM      8  C   UNL A   1     -28.334   2.019  29.325  0.00  0.00    +0.013 C 
ATOM      9  N   UNL A   1     -27.657  -0.768  28.087  0.00  0.00    -0.211 NA
ATOM     10  C   UNL A   1     -29.753   0.031  28.646  0.00  0.00    +0.045 C 
ATOM     11  C   UNL A   1     -29.488   1.323  29.183  0.00  0.00    -0.023 C 
ATOM     12  C   UNL A   1     -27.488   0.134  28.361  0.00  0.00    +0.130 C 
ATOM     13  C   UNL A   1     -27.066   1.470  29.017  0.00  0.00    +0.093 C 
ATOM     14  C   UNL A   1     -28.222  -0.292  28.008  0.00  0.00    +0.099 C 
ENDBRANCH   1   7
BRANCH   5  15
ATOM     15  C   UNL A   1     -25.688   1.614  26.461  0.00  0.00    +0.042 C 
ATOM     16  C   UNL A   1     -26.250   2.920  26.395  0.00  0.00    +0.075 C 
ATOM     17  C   UNL A   1     -27.438   3.091  25.645  0.00  0.00    +0.106 C 
ATOM     18  N   UNL A   1     -28.075   2.089  25.003  0.00  0.00    -0.208 NA
ATOM     19  C   UNL A   1     -27.543   0.849  25.079  0.00  0.00    +0.253 C 
ATOM     20  C   UNL A   1     -26.354   0.576  25.777  0.00  0.00    +0.191 C 
ATOM     21  F   UNL A   1     -25.860  -0.681  25.795  0.00  0.00    -0.200 F 
BRANCH  16  22
ATOM     22  C   UNL A   1     -25.642   4.093  27.123  0.00  0.00    +0.266 C 
ATOM     23  N   UNL A   1     -25.614   5.252  26.449  0.00  0.00    -0.200 NA
ATOM     24  C   UNL A   1     -25.026   6.479  26.963  0.00  0.00    +0.139 C 
ATOM     25  O   UNL A   1     -25.143   3.966  28.243  0.00  0.00    -0.268 OA
ENDBRANCH  16  22
BRANCH  19  26
ATOM     26  O   UNL A   1     -28.193  -0.208  24.477  0.00  0.00    -0.456 OA
BRANCH  26  27
ATOM     27  C   UNL A   1     -29.460   0.005  23.866  0.00  0.00    +0.243 C 
BRANCH  27  28
ATOM     28  C   UNL A   1     -30.065  -1.377  23.573  0.00  0.00    +0.229 C 
ATOM     29  O   UNL A   1     -30.729  -1.878  24.721  0.00  0.00    -0.216 OA
ENDBRANCH  27  28
ENDBRANCH  26  27
ENDBRANCH  19  26
ENDBRANCH   5  15
BRANCH   6  30
ATOM     30  C   UNL A   1     -24.855  -1.012  30.143  0.00  0.00    +0.058 C 
BRANCH  30  31
ATOM     31  C   UNL A   1     -24.973  -2.505  29.788  0.00  0.00    -0.019 C 
ATOM     32  C   UNL A   1     -23.906  -3.173  29.146  0.00  0.00    -0.004 C 
ATOM     33  C   UNL A   1     -23.989  -4.549  28.853  0.00  0.00    -0.000 C 
ATOM     34  C   UNL A   1     -25.137  -5.280  29.205  0.00  0.00    -0.000 C 
ATOM     35  C   UNL A   1     -26.232  -4.611  29.784  0.00  0.00    -0.000 C 
ATOM     36  C   UNL A   1     -26.155  -3.232  30.065  0.00  0.00    -0.004 C 
ENDBRANCH  30  31
BRANCH  30  37
ATOM     37  C   UNL A   1     -25.387  -0.679  31.571  0.00  0.00    +0.079 C 
ATOM     38  C   UNL A   1     -25.189   0.773  32.028  0.00  0.00    +0.019 C 
ATOM     39  C   UNL A   1     -25.336   0.684  33.544  0.00  0.00    +0.020 C 
ATOM     40  C   UNL A   1     -24.829  -0.715  33.905  0.00  0.00    +0.089 C 
ATOM     41  N   UNL A   1     -24.758  -1.481  32.646  0.00  0.00    -0.219 NA
ENDBRANCH  30  37
ENDBRANCH   6  30
BRANCH   3  42
ATOM     42  O   UNL A   1     -22.127   2.175  26.424  0.00  0.00    -0.447 OA
BRANCH  42  43
ATOM     43  C   UNL A   1     -22.484   2.288  25.249  0.00  0.00    +0.403 C 
ATOM     44  F   UNL A   1     -23.495   1.504  24.839  0.00  0.00    -0.181 F 
ENDBRANCH  42  43
ENDBRANCH   3  42
TORSDOF 11
