MODEL 2041
MODEL 1
REMARK VINA RESULT:    -6.509      0.000      0.000
REMARK INTER + INTRA:         -11.644
REMARK INTER:                  -9.172
REMARK INTRA:                  -2.472
REMARK UNBOUND:                -2.472
REMARK  Name = No_2041-gen_results/8p0m/2024-11-27-11-27-31/
REMARK  7 active torsions:
REMARK  status: ('A' for Active; 'I' for Inactive)
REMARK    1  A    between atoms: C_2  and  C_8
REMARK    2  A    between atoms: C_4  and  C_19
REMARK    3  A    between atoms: C_5  and  O_7
REMARK    4  A    between atoms: C_13  and  C_16
REMARK    5  A    between atoms: C_19  and  C_20
REMARK    6  A    between atoms: C_22  and  C_23
REMARK    7  A    between atoms: C_24  and  C_25
REMARK                            x       y       z     vdW  Elec       q    Type
REMARK                         _______ _______ _______ _____ _____    ______ ____
ROOT
ATOM      1  C   UNL A   1      -8.702   1.939  36.699  0.00  0.00    +0.003 A 
ATOM      2  C   UNL A   1      -9.488   1.025  36.801  0.00  0.00    -0.000 A 
ATOM      3  C   UNL A   1     -10.512   0.751  35.911  0.00  0.00    -0.001 A 
ATOM      4  C   UNL A   1     -10.624   1.601  34.771  0.00  0.00    +0.015 A 
ATOM      5  C   UNL A   1      -9.644   2.513  34.611  0.00  0.00    +0.135 A 
ATOM      6  C   UNL A   1      -8.648   2.636  35.490  0.00  0.00    +0.037 A 
ENDROOT
BRANCH   2   7
ATOM      7  C   UNL A   1      -9.545   0.124  38.088  0.00  0.00    -0.001 A 
ATOM      8  C   UNL A   1      -9.073   0.353  39.041  0.00  0.00    -0.004 A 
ATOM      9  C   UNL A   1      -9.105  -0.475  40.286  0.00  0.00    -0.022 A 
ATOM     10  C   UNL A   1      -8.396  -0.436  41.343  0.00  0.00    +0.031 C 
ATOM     11  C   UNL A   1     -10.288  -1.488  40.253  0.00  0.00    -0.003 A 
ATOM     12  C   UNL A   1     -10.997  -1.625  39.075  0.00  0.00    +0.043 A 
ATOM     13  C   UNL A   1     -10.763  -0.756  38.011  0.00  0.00    +0.001 A 
BRANCH  12  14
ATOM     14  C   UNL A   1     -12.123  -2.560  39.071  0.00  0.00    +0.341 C 
ATOM     15  F   UNL A   1     -12.808  -2.673  40.021  0.00  0.00    -0.193 F 
ATOM     16  F   UNL A   1     -12.418  -3.215  38.004  0.00  0.00    -0.193 F 
ENDBRANCH  12  14
ENDBRANCH   2   7
BRANCH   5  17
ATOM     17  O   UNL A   1      -9.717   3.271  33.479  0.00  0.00    -0.472 OA
ATOM     18  C   UNL A   1      -9.016   4.367  33.417  0.00  0.00    +0.253 C 
ENDBRANCH   5  17
BRANCH   4  19
ATOM     19  C   UNL A   1     -11.713   1.349  33.806  0.00  0.00    +0.047 C 
ATOM     20  C   UNL A   1     -11.198   0.763  32.562  0.00  0.00    +0.009 C 
BRANCH  19  21
ATOM     21  C   UNL A   1     -12.697   1.576  34.000  0.00  0.00    -0.022 C 
ATOM     22  C   UNL A   1     -13.252   2.777  34.740  0.00  0.00    -0.004 C 
BRANCH  22  23
ATOM     23  C   UNL A   1     -14.226   3.013  35.606  0.00  0.00    -0.000 C 
ATOM     24  C   UNL A   1     -14.148   3.206  36.921  0.00  0.00    -0.000 C 
BRANCH  24  25
ATOM     25  C   UNL A   1     -12.890   3.148  37.545  0.00  0.00    -0.000 C 
ATOM     26  C   UNL A   1     -12.686   2.260  38.622  0.00  0.00    -0.000 C 
ENDBRANCH  24  25
ENDBRANCH  22  23
ENDBRANCH  19  21
ENDBRANCH   4  19
TORSDOF 7
ENDMDL
ENDMDL
