REMARK  Name = No_2041-gen_results/8p0m/2024-11-27-11-27-31/
REMARK  7 active torsions:
REMARK  status: ('A' for Active; 'I' for Inactive)
REMARK    1  A    between atoms: C_2  and  C_8
REMARK    2  A    between atoms: C_4  and  C_19
REMARK    3  A    between atoms: C_5  and  O_7
REMARK    4  A    between atoms: C_13  and  C_16
REMARK    5  A    between atoms: C_19  and  C_20
REMARK    6  A    between atoms: C_22  and  C_23
REMARK    7  A    between atoms: C_24  and  C_25
REMARK                            x       y       z     vdW  Elec       q    Type
REMARK                         _______ _______ _______ _____ _____    ______ ____
ROOT
ATOM      1  C   UNL A   1     -28.016  -0.814  28.878  0.00  0.00    +0.003 A 
ATOM      2  C   UNL A   1     -27.064  -0.119  28.608  0.00  0.00    -0.000 A 
ATOM      3  C   UNL A   1     -26.972   0.714  27.506  0.00  0.00    -0.001 A 
ATOM      4  C   UNL A   1     -28.105   0.774  26.642  0.00  0.00    +0.015 A 
ATOM      5  C   UNL A   1     -29.201   0.104  27.053  0.00  0.00    +0.135 A 
ATOM      6  C   UNL A   1     -29.210  -0.603  28.185  0.00  0.00    +0.037 A 
ENDROOT
BRANCH   2   7
ATOM      7  C   UNL A   1     -25.714  -0.220  29.407  0.00  0.00    -0.001 A 
ATOM      8  C   UNL A   1     -25.413  -1.054  30.037  0.00  0.00    -0.004 A 
ATOM      9  C   UNL A   1     -24.141  -1.188  30.811  0.00  0.00    -0.022 A 
ATOM     10  C   UNL A   1     -23.807  -1.974  31.756  0.00  0.00    +0.031 C 
ATOM     11  C   UNL A   1     -23.046  -0.228  30.257  0.00  0.00    -0.003 A 
ATOM     12  C   UNL A   1     -23.418   0.709  29.311  0.00  0.00    +0.043 A 
ATOM     13  C   UNL A   1     -24.694   0.671  28.751  0.00  0.00    +0.001 A 
BRANCH  12  14
ATOM     14  C   UNL A   1     -22.371   1.583  28.781  0.00  0.00    +0.341 C 
ATOM     15  F   UNL A   1     -21.400   1.800  29.409  0.00  0.00    -0.193 F 
ATOM     16  F   UNL A   1     -22.471   2.067  27.593  0.00  0.00    -0.193 F 
ENDBRANCH  12  14
ENDBRANCH   2   7
BRANCH   5  17
ATOM     17  O   UNL A   1     -30.304   0.227  26.260  0.00  0.00    -0.472 OA
ATOM     18  C   UNL A   1     -30.432  -0.574  25.241  0.00  0.00    +0.253 C 
ENDBRANCH   5  17
BRANCH   4  19
ATOM     19  C   UNL A   1     -28.039   1.640  25.448  0.00  0.00    +0.047 C 
ATOM     20  C   UNL A   1     -27.851   0.848  24.226  0.00  0.00    +0.009 C 
BRANCH  19  21
ATOM     21  C   UNL A   1     -28.106   2.665  25.495  0.00  0.00    -0.022 C 
ATOM     22  C   UNL A   1     -27.748   3.574  26.654  0.00  0.00    -0.004 C 
BRANCH  22  23
ATOM     23  C   UNL A   1     -28.245   4.667  27.214  0.00  0.00    -0.000 C 
ATOM     24  C   UNL A   1     -27.868   5.280  28.334  0.00  0.00    -0.000 C 
BRANCH  24  25
ATOM     25  C   UNL A   1     -26.812   4.736  29.086  0.00  0.00    -0.000 C 
ATOM     26  C   UNL A   1     -26.119   3.608  28.600  0.00  0.00    -0.000 C 
ENDBRANCH  24  25
ENDBRANCH  22  23
ENDBRANCH  19  21
ENDBRANCH   4  19
TORSDOF 7
