MODEL 2042
MODEL 1
REMARK VINA RESULT:    -5.094      0.000      0.000
REMARK INTER + INTRA:          -5.094
REMARK INTER:                  -5.094
REMARK INTRA:                   0.000
REMARK UNBOUND:                 0.000
REMARK  Name = No_2042-gen_results/8p0m/2024-11-27-11-27-31/
REMARK  0 active torsions:
REMARK  status: ('A' for Active; 'I' for Inactive)
REMARK                            x       y       z     vdW  Elec       q    Type
REMARK                         _______ _______ _______ _____ _____    ______ ____
ROOT
ATOM      1  C   UNL A   1     -10.075 -10.190  17.919  0.00  0.00    +0.196 A 
ATOM      2  C   UNL A   1      -9.081 -10.878  17.893  0.00  0.00    +0.042 A 
ATOM      3  C   UNL A   1      -8.043 -10.758  18.797  0.00  0.00    +0.003 A 
ATOM      4  C   UNL A   1      -8.174  -9.796  19.838  0.00  0.00    +0.000 A 
ATOM      5  C   UNL A   1      -9.372  -9.173  19.925  0.00  0.00    +0.003 A 
ATOM      6  C   UNL A   1     -10.326  -9.381  19.037  0.00  0.00    +0.042 A 
ATOM      7  O   UNL A   1     -11.102 -10.392  17.005  0.00  0.00    -0.287 OA
ENDROOT
TORSDOF 0
ENDMDL
ENDMDL
