REMARK  Name = outputs/IAG933/test6/raw/output_2043_IAG933_linker_design_.xyz
REMARK  10 active torsions:
REMARK  status: ('A' for Active; 'I' for Inactive)
REMARK    1  A    between atoms: C_1  and  C_2
REMARK    2  A    between atoms: C_1  and  C_8
REMARK    3  A    between atoms: C_1  and  N_34
REMARK    4  A    between atoms: C_13  and  N_36
REMARK    5  A    between atoms: C_14  and  C_15
REMARK    6  A    between atoms: C_21  and  O_22
REMARK    7  A    between atoms: O_22  and  C_23
REMARK    8  A    between atoms: C_23  and  C_24
REMARK    9  A    between atoms: C_32  and  C_42
REMARK   10  A    between atoms: C_32  and  C_47
REMARK                            x       y       z     vdW  Elec       q    Type
REMARK                         _______ _______ _______ _____ _____    ______ ____
ROOT
ATOM      1  O   UNL A   1     -21.198   1.209  27.993  0.00  0.00    -0.217 OA
ATOM      2  F   UNL A   1     -22.633   1.567  24.873  0.00  0.00    -0.199 F 
ATOM      3  N   UNL A   1     -24.408  -0.014  29.242  0.00  0.00    -0.249 NA
ATOM      4  C   UNL A   1     -23.346   1.302  27.143  0.00  0.00    +0.156 C 
ATOM      5  N   UNL A   1     -24.714   1.285  27.416  0.00  0.00    -0.244 NA
ATOM      6  C   UNL A   1     -22.338   1.681  26.151  0.00  0.00    +0.326 C 
ATOM      7  C   UNL A   1     -25.337   0.654  28.582  0.00  0.00    +0.182 C 
ATOM      8  O   UNL A   1     -21.104   1.758  26.638  0.00  0.00    -0.185 OA
ATOM      9  C   UNL A   1     -22.549   0.844  28.237  0.00  0.00    +0.188 C 
ATOM     10  C   UNL A   1     -22.973   0.056  29.169  0.00  0.00    +0.108 C 
ENDROOT
BRANCH   5  11
ATOM     11  C   UNL A   1     -25.688   1.614  26.461  0.00  0.00    +0.130 C 
ATOM     12  C   UNL A   1     -26.250   2.920  26.395  0.00  0.00    +0.070 C 
ATOM     13  C   UNL A   1     -27.438   3.091  25.645  0.00  0.00    +0.103 C 
ATOM     14  N   UNL A   1     -28.075   2.089  25.003  0.00  0.00    -0.212 NA
ATOM     15  C   UNL A   1     -27.543   0.849  25.079  0.00  0.00    +0.235 C 
ATOM     16  C   UNL A   1     -26.354   0.576  25.777  0.00  0.00    +0.255 C 
ATOM     17  F   UNL A   1     -25.860  -0.681  25.795  0.00  0.00    -0.225 F 
BRANCH  12  18
ATOM     18  C   UNL A   1     -25.642   4.093  27.123  0.00  0.00    +0.264 C 
ATOM     19  N   UNL A   1     -25.614   5.252  26.449  0.00  0.00    -0.200 NA
ATOM     20  C   UNL A   1     -25.026   6.479  26.963  0.00  0.00    +0.139 C 
ATOM     21  O   UNL A   1     -25.143   3.966  28.243  0.00  0.00    -0.269 OA
ENDBRANCH  12  18
BRANCH  15  22
ATOM     22  O   UNL A   1     -28.193  -0.208  24.477  0.00  0.00    -0.459 OA
BRANCH  22  23
ATOM     23  C   UNL A   1     -29.460   0.005  23.866  0.00  0.00    +0.242 C 
BRANCH  23  24
ATOM     24  C   UNL A   1     -30.065  -1.377  23.573  0.00  0.00    +0.229 C 
ATOM     25  O   UNL A   1     -30.729  -1.878  24.721  0.00  0.00    -0.216 OA
ENDBRANCH  23  24
ENDBRANCH  22  23
ENDBRANCH  15  22
ENDBRANCH   5  11
BRANCH   7  26
ATOM     26  C   UNL A   1     -26.887   0.615  29.077  0.00  0.00    +0.199 C 
ATOM     27  O   UNL A   1     -27.425  -0.416  28.787  0.00  0.00    -0.289 OA
BRANCH  26  36
ATOM     28  O   UNL A   1     -31.580   5.281  31.925  0.00  0.00    -0.272 OA
ATOM     29  C   UNL A   1     -28.004   2.958  29.169  0.00  0.00    +0.054 C 
ATOM     30  N   UNL A   1     -30.662   5.521  29.836  0.00  0.00    -0.177 NA
ATOM     31  S   UNL A   1     -30.527   2.780  32.641  0.00  0.00    -0.123 S 
ATOM     32  C   UNL A   1     -29.028   3.811  29.723  0.00  0.00    -0.005 C 
ATOM     33  C   UNL A   1     -30.762   4.944  31.089  0.00  0.00    +0.259 C 
ATOM     34  C   UNL A   1     -29.055   2.548  31.812  0.00  0.00    +0.091 C 
ATOM     35  C   UNL A   1     -28.186   1.488  31.189  0.00  0.00    -0.015 C 
ATOM     36  C   UNL A   1     -27.701   1.702  29.824  0.00  0.00    +0.016 C 
ATOM     37  C   UNL A   1     -29.706   4.873  28.890  0.00  0.00    +0.082 C 
ATOM     38  C   UNL A   1     -29.735   3.714  31.160  0.00  0.00    +0.140 C 
ENDBRANCH  26  36
ENDBRANCH   7  26
BRANCH   3  39
ATOM     39  C   UNL A   1     -24.855  -1.012  30.143  0.00  0.00    +0.098 C 
BRANCH  39  40
ATOM     40  C   UNL A   1     -24.973  -2.505  29.788  0.00  0.00    -0.006 C 
ATOM     41  C   UNL A   1     -23.906  -3.173  29.146  0.00  0.00    -0.003 C 
ATOM     42  C   UNL A   1     -23.989  -4.549  28.853  0.00  0.00    -0.000 C 
ATOM     43  C   UNL A   1     -25.137  -5.280  29.205  0.00  0.00    -0.000 C 
ATOM     44  C   UNL A   1     -26.232  -4.611  29.784  0.00  0.00    -0.000 C 
ATOM     45  C   UNL A   1     -26.155  -3.232  30.065  0.00  0.00    -0.003 C 
ENDBRANCH  39  40
BRANCH  39  46
ATOM     46  C   UNL A   1     -25.387  -0.679  31.571  0.00  0.00    +0.092 C 
ATOM     47  C   UNL A   1     -25.189   0.773  32.028  0.00  0.00    +0.021 C 
ATOM     48  C   UNL A   1     -25.336   0.684  33.544  0.00  0.00    +0.020 C 
ATOM     49  C   UNL A   1     -24.829  -0.715  33.905  0.00  0.00    +0.089 C 
ATOM     50  N   UNL A   1     -24.758  -1.481  32.646  0.00  0.00    -0.218 NA
ENDBRANCH  39  46
ENDBRANCH   3  39
TORSDOF 10
