MODEL 2043
MODEL 1
REMARK VINA RESULT:    -8.579      0.000      0.000
REMARK INTER + INTRA:         -12.497
REMARK INTER:                 -11.588
REMARK INTRA:                  -0.908
REMARK UNBOUND:                -0.908
REMARK  Name = No_2043-gen_results/8p0m/2024-11-27-11-27-31/
REMARK  6 active torsions:
REMARK  status: ('A' for Active; 'I' for Inactive)
REMARK    1  A    between atoms: C_5  and  C_7
REMARK    2  A    between atoms: C_6  and  O_23
REMARK    3  A    between atoms: O_23  and  C_24
REMARK    4  A    between atoms: C_24  and  C_25
REMARK    5  A    between atoms: C_25  and  C_26
REMARK    6  A    between atoms: C_25  and  N_30
REMARK                            x       y       z     vdW  Elec       q    Type
REMARK                         _______ _______ _______ _____ _____    ______ ____
ROOT
ATOM      1  C   UNL A   1     -26.936   0.325  25.633  0.00  0.00    +0.037 A 
ATOM      2  C   UNL A   1     -27.685   1.035  25.004  0.00  0.00    +0.006 A 
ATOM      3  C   UNL A   1     -27.609   2.416  24.938  0.00  0.00    +0.039 A 
ATOM      4  C   UNL A   1     -26.542   3.041  25.648  0.00  0.00    +0.013 A 
ATOM      5  C   UNL A   1     -25.640   2.213  26.214  0.00  0.00    +0.114 A 
ATOM      6  C   UNL A   1     -25.762   0.886  26.143  0.00  0.00    +0.145 A 
ATOM      7  C   UNL A   1     -28.991   0.452  24.287  0.00  0.00    +0.003 A 
ATOM      8  C   UNL A   1     -30.043   1.168  24.028  0.00  0.00    +0.038 A 
ATOM      9  C   UNL A   1     -31.217   0.661  23.410  0.00  0.00    +0.149 A 
ATOM     10  C   UNL A   1     -31.279  -0.734  23.249  0.00  0.00    +0.038 A 
ATOM     11  C   UNL A   1     -30.173  -1.544  23.510  0.00  0.00    +0.003 A 
ATOM     12  C   UNL A   1     -29.031  -0.978  24.110  0.00  0.00    +0.000 A 
ATOM     13  O   UNL A   1     -32.234   1.440  23.125  0.00  0.00    -0.421 OA
ATOM     14  C   UNL A   1     -32.129   2.761  22.924  0.00  0.00    +0.346 A 
ATOM     15  C   UNL A   1     -31.275   3.535  23.641  0.00  0.00    +0.086 A 
ATOM     16  C   UNL A   1     -30.012   2.765  23.973  0.00  0.00    +0.048 A 
ATOM     17  C   UNL A   1     -28.829   3.333  24.580  0.00  0.00    +0.196 C 
ATOM     18  O   UNL A   1     -28.866   4.515  24.986  0.00  0.00    -0.287 OA
ATOM     19  O   UNL A   1     -33.377   3.344  22.686  0.00  0.00    -0.244 OA
ENDROOT
BRANCH   5  20
ATOM     20  C   UNL A   1     -24.519   2.884  26.900  0.00  0.00    +0.391 C 
ATOM     21  O   UNL A   1     -24.636   3.181  28.025  0.00  0.00    -0.240 OA
ATOM     22  O   UNL A   1     -23.479   3.160  26.165  0.00  0.00    -0.240 OA
ENDBRANCH   5  20
BRANCH   6  23
ATOM     23  O   UNL A   1     -24.800   0.121  26.648  0.00  0.00    -0.473 OA
BRANCH  23  24
ATOM     24  C   UNL A   1     -25.004  -0.443  27.908  0.00  0.00    +0.230 C 
BRANCH  24  25
ATOM     25  C   UNL A   1     -24.158  -1.341  28.342  0.00  0.00    +0.198 C 
BRANCH  25  26
ATOM     26  N   UNL A   1     -24.818  -2.602  28.790  0.00  0.00    -0.264 NA
ATOM     27  C   UNL A   1     -25.747  -2.827  29.347  0.00  0.00    +0.072 C 
ATOM     28  C   UNL A   1     -26.137  -4.121  29.694  0.00  0.00    +0.017 C 
ATOM     29  C   UNL A   1     -23.970  -3.883  28.421  0.00  0.00    +0.072 C 
ATOM     30  C   UNL A   1     -24.290  -5.065  28.711  0.00  0.00    +0.017 C 
ATOM     31  C   UNL A   1     -25.453  -5.240  29.408  0.00  0.00    +0.003 C 
ENDBRANCH  25  26
BRANCH  25  32
ATOM     32  C   UNL A   1     -23.213  -0.985  29.268  0.00  0.00    +0.414 C 
ATOM     33  F   UNL A   1     -23.571  -1.081  30.406  0.00  0.00    -0.168 F 
ATOM     34  F   UNL A   1     -22.723   0.283  29.081  0.00  0.00    -0.168 F 
ATOM     35  F   UNL A   1     -22.029  -1.325  28.981  0.00  0.00    -0.168 F 
ENDBRANCH  25  32
ENDBRANCH  24  25
ENDBRANCH  23  24
ENDBRANCH   6  23
TORSDOF 6
ENDMDL
ENDMDL
