REMARK  Name = No_2044-gen_results/8p0m/2024-11-27-11-27-31/
REMARK  2 active torsions:
REMARK  status: ('A' for Active; 'I' for Inactive)
REMARK    1  A    between atoms: C_4  and  C_8
REMARK    2  A    between atoms: C_9  and  C_10
REMARK                            x       y       z     vdW  Elec       q    Type
REMARK                         _______ _______ _______ _____ _____    ______ ____
ROOT
ATOM      1  C   UNL A   1     -28.016  -0.814  28.878  0.00  0.00    +0.004 C 
ATOM      2  C   UNL A   1     -27.064  -0.119  28.608  0.00  0.00    +0.022 C 
ATOM      3  C   UNL A   1     -25.792  -0.430  29.076  0.00  0.00    -0.044 C 
ATOM      4  C   UNL A   1     -24.632   0.310  28.729  0.00  0.00    -0.009 C 
ATOM      5  C   UNL A   1     -27.895  -1.861  29.895  0.00  0.00    +0.001 C 
ATOM      6  C   UNL A   1     -26.671  -2.298  30.337  0.00  0.00    +0.004 C 
ATOM      7  C   UNL A   1     -25.551  -1.563  29.941  0.00  0.00    +0.022 C 
ENDROOT
BRANCH   4   8
ATOM      8  C   UNL A   1     -24.588   1.241  27.756  0.00  0.00    -0.001 C 
ATOM      9  C   UNL A   1     -25.401   1.727  27.041  0.00  0.00    -0.000 C 
BRANCH   9  10
ATOM     10  C   UNL A   1     -25.044   2.726  26.144  0.00  0.00    -0.000 C 
ATOM     11  C   UNL A   1     -23.688   3.037  26.043  0.00  0.00    -0.000 C 
ENDBRANCH   9  10
ENDBRANCH   4   8
TORSDOF 2
