MODEL 2044
MODEL 1
REMARK VINA RESULT:    -5.834      0.000      0.000
REMARK INTER + INTRA:          -6.776
REMARK INTER:                  -6.516
REMARK INTRA:                  -0.260
REMARK UNBOUND:                -0.260
REMARK  Name = No_2044-gen_results/8p0m/2024-11-27-11-27-31/
REMARK  2 active torsions:
REMARK  status: ('A' for Active; 'I' for Inactive)
REMARK    1  A    between atoms: C_4  and  C_8
REMARK    2  A    between atoms: C_9  and  C_10
REMARK                            x       y       z     vdW  Elec       q    Type
REMARK                         _______ _______ _______ _____ _____    ______ ____
ROOT
ATOM      1  C   UNL A   1     -24.092  -4.825  28.617  0.00  0.00    +0.004 C 
ATOM      2  C   UNL A   1     -23.938  -3.630  28.513  0.00  0.00    +0.022 C 
ATOM      3  C   UNL A   1     -24.850  -2.738  29.066  0.00  0.00    -0.044 C 
ATOM      4  C   UNL A   1     -24.678  -1.329  29.035  0.00  0.00    -0.009 C 
ATOM      5  C   UNL A   1     -25.360  -5.360  29.118  0.00  0.00    +0.001 C 
ATOM      6  C   UNL A   1     -26.271  -4.565  29.768  0.00  0.00    +0.004 C 
ATOM      7  C   UNL A   1     -26.044  -3.187  29.746  0.00  0.00    +0.022 C 
ENDROOT
BRANCH   4   8
ATOM      8  C   UNL A   1     -23.537  -0.711  28.675  0.00  0.00    -0.001 C 
ATOM      9  C   UNL A   1     -22.532  -0.437  29.243  0.00  0.00    -0.000 C 
BRANCH   9  10
ATOM     10  C   UNL A   1     -21.486   0.180  28.568  0.00  0.00    -0.000 C 
ATOM     11  C   UNL A   1     -21.805   1.271  27.760  0.00  0.00    -0.000 C 
ENDBRANCH   9  10
ENDBRANCH   4   8
TORSDOF 2
ENDMDL
ENDMDL
