REMARK  Name = No_2045-gen_results/8p0m/2024-11-27-11-27-31/
REMARK  0 active torsions:
REMARK  status: ('A' for Active; 'I' for Inactive)
REMARK                            x       y       z     vdW  Elec       q    Type
REMARK                         _______ _______ _______ _____ _____    ______ ____
ROOT
ATOM      1  C   UNL A   1     -28.016  -0.814  28.878  0.00  0.00    +0.184 C 
ATOM      2  C   UNL A   1     -28.469  -0.785  29.829  0.00  0.00    +0.135 C 
ATOM      3  F   UNL A   1     -28.706  -0.518  27.877  0.00  0.00    -0.235 F 
ATOM      4  C   UNL A   1     -26.685  -0.012  28.863  0.00  0.00    +0.063 C 
ATOM      5  C   UNL A   1     -25.506  -0.691  29.301  0.00  0.00    -0.023 C 
ATOM      6 CL   UNL A   1     -29.948  -1.177  30.077  0.00  0.00    -0.107 Cl
ATOM      7  C   UNL A   1     -25.742  -1.773  30.184  0.00  0.00    -0.005 C 
ATOM      8  C   UNL A   1     -26.838  -2.401  30.638  0.00  0.00    -0.004 C 
ATOM      9  C   UNL A   1     -28.048  -1.979  30.467  0.00  0.00    -0.007 C 
ENDROOT
TORSDOF 0
