REMARK  Name = No_2046-gen_results/8p0m/2024-11-27-11-27-31/
REMARK  7 active torsions:
REMARK  status: ('A' for Active; 'I' for Inactive)
REMARK    1  A    between atoms: C_4  and  C_5
REMARK    2  A    between atoms: C_8  and  C_9
REMARK    3  A    between atoms: C_10  and  C_11
REMARK    4  A    between atoms: C_14  and  C_17
REMARK    5  A    between atoms: N_19  and  C_20
REMARK    6  A    between atoms: C_24  and  C_26
REMARK    7  A    between atoms: C_26  and  C_29
REMARK                            x       y       z     vdW  Elec       q    Type
REMARK                         _______ _______ _______ _____ _____    ______ ____
ROOT
ATOM      1  C   UNL A   1     -26.225   5.878  30.713  0.00  0.00    +0.269 C 
ATOM      2  O   UNL A   1     -25.478   6.659  30.951  0.00  0.00    -0.268 OA
ATOM      3  N   UNL A   1     -27.526   5.928  31.212  0.00  0.00    -0.176 NA
ENDROOT
BRANCH   3   4
ATOM      4  C   UNL A   1     -27.924   6.963  32.171  0.00  0.00    +0.069 C 
ATOM      5  C   UNL A   1     -28.986   7.149  32.446  0.00  0.00    +0.016 C 
ATOM      6  C   UNL A   1     -29.723   8.030  32.153  0.00  0.00    -0.003 C 
ATOM      7  C   UNL A   1     -29.108   9.383  31.901  0.00  0.00    -0.026 C 
ATOM      8  C   UNL A   1     -27.713   9.287  31.718  0.00  0.00    +0.031 C 
ATOM      9  C   UNL A   1     -26.735   7.351  32.951  0.00  0.00    -0.011 C 
ATOM     10  C   UNL A   1     -25.856   6.829  33.602  0.00  0.00    -0.029 C 
ATOM     11  C   UNL A   1     -26.649   8.952  32.670  0.00  0.00    +0.032 C 
ATOM     12  C   UNL A   1     -24.976   7.393  34.505  0.00  0.00    +0.030 C 
BRANCH   8  13
ATOM     13  C   UNL A   1     -27.158  10.671  31.233  0.00  0.00    +0.031 C 
BRANCH  13  14
ATOM     14  C   UNL A   1     -26.049  10.701  30.637  0.00  0.00    -0.022 A 
ATOM     15  C   UNL A   1     -25.190   9.800  30.530  0.00  0.00    -0.004 A 
ATOM     16  C   UNL A   1     -23.950  10.039  29.729  0.00  0.00    -0.000 A 
ATOM     17  C   UNL A   1     -23.749  11.200  29.213  0.00  0.00    -0.000 A 
ATOM     18  C   UNL A   1     -25.635  11.968  29.917  0.00  0.00    -0.004 A 
ATOM     19  C   UNL A   1     -24.583  12.197  29.268  0.00  0.00    -0.000 A 
ENDBRANCH  13  14
ENDBRANCH   8  13
ENDBRANCH   3   4
BRANCH   1  23
ATOM     20  C   UNL A   1     -25.974   2.380  29.083  0.00  0.00    +0.000 A 
ATOM     21  C   UNL A   1     -25.309   2.518  28.053  0.00  0.00    +0.000 A 
ATOM     22  C   UNL A   1     -25.954   3.487  30.220  0.00  0.00    +0.005 A 
ATOM     23  C   UNL A   1     -26.099   4.851  29.807  0.00  0.00    +0.055 A 
ATOM     24  C   UNL A   1     -25.448   5.118  28.505  0.00  0.00    +0.005 A 
ATOM     25  C   UNL A   1     -25.117   3.970  27.639  0.00  0.00    +0.000 A 
BRANCH  20  29
ATOM     26  C   UNL A   1     -28.016  -0.814  28.878  0.00  0.00    +0.000 A 
ATOM     27  C   UNL A   1     -28.469  -0.785  29.829  0.00  0.00    +0.000 A 
ATOM     28  C   UNL A   1     -27.136   0.236  28.535  0.00  0.00    +0.000 A 
ATOM     29  C   UNL A   1     -26.875   1.282  29.398  0.00  0.00    +0.000 A 
ATOM     30  C   UNL A   1     -28.392   0.130  30.960  0.00  0.00    +0.000 A 
ATOM     31  C   UNL A   1     -27.503   1.242  30.670  0.00  0.00    +0.000 A 
ENDBRANCH  20  29
BRANCH  21  32
ATOM     32  C   UNL A   1     -24.555   1.562  27.491  0.00  0.00    +0.000 C 
ATOM     33  C   UNL A   1     -23.500   1.426  27.505  0.00  0.00    +0.000 C 
BRANCH  33  34
ATOM     34  C   UNL A   1     -22.460   1.341  28.197  0.00  0.00    +0.000 C 
ATOM     35  C   UNL A   1     -22.620   0.912  29.549  0.00  0.00    +0.000 C 
ENDBRANCH  33  34
ENDBRANCH  21  32
ENDBRANCH   1  23
TORSDOF 7
