REMARK  Name = outputs/IAG933/test6/raw/output_2047_IAG933_linker_design_.xyz
REMARK  12 active torsions:
REMARK  status: ('A' for Active; 'I' for Inactive)
REMARK    1  A    between atoms: C_1  and  C_2
REMARK    2  A    between atoms: C_1  and  C_8
REMARK    3  A    between atoms: C_1  and  N_29
REMARK    4  A    between atoms: C_13  and  C_31
REMARK    5  A    between atoms: C_14  and  C_15
REMARK    6  A    between atoms: C_21  and  O_22
REMARK    7  A    between atoms: O_22  and  C_23
REMARK    8  A    between atoms: C_23  and  C_24
REMARK    9  A    between atoms: C_28  and  C_35
REMARK   10  A    between atoms: N_29  and  C_36
REMARK   11  A    between atoms: C_31  and  C_34
REMARK   12  A    between atoms: C_34  and  C_40
REMARK                            x       y       z     vdW  Elec       q    Type
REMARK                         _______ _______ _______ _____ _____    ______ ____
ROOT
ATOM      1  C   UNL A   1     -23.693   1.742  29.533  0.00  0.00    +0.107 C 
ATOM      2  C   UNL A   1     -24.446   1.214  27.149  0.00  0.00    +0.113 C 
ATOM      3  C   UNL A   1     -23.460   0.926  28.297  0.00  0.00    +0.102 C 
ATOM      4  C   UNL A   1     -24.554   0.040  27.995  0.00  0.00    +0.102 C 
ATOM      5  N   UNL A   1     -22.855   0.245  29.538  0.00  0.00    -0.216 NA
ENDROOT
BRANCH   2   6
ATOM      6  C   UNL A   1     -25.688   1.614  26.461  0.00  0.00    +0.023 C 
ATOM      7  C   UNL A   1     -26.250   2.920  26.395  0.00  0.00    +0.073 C 
ATOM      8  C   UNL A   1     -27.438   3.091  25.645  0.00  0.00    +0.106 C 
ATOM      9  N   UNL A   1     -28.075   2.089  25.003  0.00  0.00    -0.208 NA
ATOM     10  C   UNL A   1     -27.543   0.849  25.079  0.00  0.00    +0.253 C 
ATOM     11  C   UNL A   1     -26.354   0.576  25.777  0.00  0.00    +0.189 C 
ATOM     12  F   UNL A   1     -25.860  -0.681  25.795  0.00  0.00    -0.200 F 
BRANCH   7  13
ATOM     13  C   UNL A   1     -25.642   4.093  27.123  0.00  0.00    +0.266 C 
ATOM     14  N   UNL A   1     -25.614   5.252  26.449  0.00  0.00    -0.200 NA
ATOM     15  C   UNL A   1     -25.026   6.479  26.963  0.00  0.00    +0.139 C 
ATOM     16  O   UNL A   1     -25.143   3.966  28.243  0.00  0.00    -0.268 OA
ENDBRANCH   7  13
BRANCH  10  17
ATOM     17  O   UNL A   1     -28.193  -0.208  24.477  0.00  0.00    -0.456 OA
BRANCH  17  18
ATOM     18  C   UNL A   1     -29.460   0.005  23.866  0.00  0.00    +0.243 C 
BRANCH  18  19
ATOM     19  C   UNL A   1     -30.065  -1.377  23.573  0.00  0.00    +0.229 C 
ATOM     20  O   UNL A   1     -30.729  -1.878  24.721  0.00  0.00    -0.216 OA
ENDBRANCH  18  19
ENDBRANCH  17  18
ENDBRANCH  10  17
ENDBRANCH   2   6
BRANCH   4  21
ATOM     21  N   UNL A   1     -25.483  -0.138  29.129  0.00  0.00    -0.272 N 
ATOM     22  C   UNL A   1     -26.958   0.097  28.928  0.00  0.00    +0.249 C 
ATOM     23  O   UNL A   1     -27.816  -0.696  28.738  0.00  0.00    -0.270 OA
BRANCH  22  24
ATOM     24  C   UNL A   1     -27.189   1.490  29.304  0.00  0.00    +0.058 C 
ATOM     25  C   UNL A   1     -28.061   1.905  30.259  0.00  0.00    +0.005 C 
ENDBRANCH  22  24
BRANCH  21  26
ATOM     26  C   UNL A   1     -24.855  -1.012  30.143  0.00  0.00    +0.114 C 
BRANCH  26  27
ATOM     27  C   UNL A   1     -24.973  -2.505  29.788  0.00  0.00    -0.003 C 
ATOM     28  C   UNL A   1     -23.906  -3.173  29.146  0.00  0.00    -0.003 C 
ATOM     29  C   UNL A   1     -23.989  -4.549  28.853  0.00  0.00    -0.000 C 
ATOM     30  C   UNL A   1     -25.137  -5.280  29.205  0.00  0.00    -0.000 C 
ATOM     31  C   UNL A   1     -26.232  -4.611  29.784  0.00  0.00    -0.000 C 
ATOM     32  C   UNL A   1     -26.155  -3.232  30.065  0.00  0.00    -0.003 C 
ENDBRANCH  26  27
BRANCH  26  33
ATOM     33  C   UNL A   1     -25.387  -0.679  31.571  0.00  0.00    +0.095 C 
ATOM     34  C   UNL A   1     -25.189   0.773  32.028  0.00  0.00    +0.021 C 
ATOM     35  C   UNL A   1     -25.336   0.684  33.544  0.00  0.00    +0.020 C 
ATOM     36  C   UNL A   1     -24.829  -0.715  33.905  0.00  0.00    +0.089 C 
ATOM     37  N   UNL A   1     -24.758  -1.481  32.646  0.00  0.00    -0.217 NA
ENDBRANCH  26  33
ENDBRANCH  21  26
ENDBRANCH   4  21
BRANCH   2  39
ATOM     38  F   UNL A   1     -22.269   2.190  25.121  0.00  0.00    -0.203 F 
ATOM     39  C   UNL A   1     -23.119   1.997  26.324  0.00  0.00    +0.295 C 
ATOM     40  O   UNL A   1     -23.398   3.306  25.761  0.00  0.00    -0.186 OA
BRANCH  39  41
ATOM     41  C   UNL A   1     -22.333   1.003  27.222  0.00  0.00    +0.257 C 
ATOM     42  F   UNL A   1     -21.100   1.685  27.563  0.00  0.00    -0.228 F 
ENDBRANCH  39  41
ENDBRANCH   2  39
TORSDOF 12
