MODEL 2047
MODEL 1
REMARK VINA RESULT:    -5.393      0.000      0.000
REMARK INTER + INTRA:          -5.393
REMARK INTER:                  -5.393
REMARK INTRA:                   0.000
REMARK UNBOUND:                 0.000
REMARK  Name = No_2047-gen_results/8p0m/2024-11-27-11-27-31/
REMARK  0 active torsions:
REMARK  status: ('A' for Active; 'I' for Inactive)
REMARK                            x       y       z     vdW  Elec       q    Type
REMARK                         _______ _______ _______ _____ _____    ______ ____
ROOT
ATOM      1  C   UNL A   1     -24.816  -5.164  28.936  0.00  0.00    +0.000 A 
ATOM      2  C   UNL A   1     -24.017  -4.284  28.717  0.00  0.00    +0.000 A 
ATOM      3  C   UNL A   1     -24.247  -2.982  29.149  0.00  0.00    +0.000 A 
ATOM      4  C   UNL A   1     -23.310  -1.929  28.982  0.00  0.00    +0.000 A 
ATOM      5  C   UNL A   1     -26.148  -4.836  29.449  0.00  0.00    +0.000 A 
ATOM      6  C   UNL A   1     -26.429  -3.604  29.987  0.00  0.00    +0.000 A 
ATOM      7  C   UNL A   1     -25.463  -2.607  29.834  0.00  0.00    +0.000 A 
ATOM      8  C   UNL A   1     -23.521  -0.599  29.312  0.00  0.00    +0.000 A 
ATOM      9  C   UNL A   1     -24.594  -0.417  30.251  0.00  0.00    +0.000 A 
ATOM     10  C   UNL A   1     -25.634  -1.313  30.377  0.00  0.00    +0.000 A 
ENDROOT
TORSDOF 0
ENDMDL
ENDMDL
