MODEL 2048
MODEL 1
REMARK VINA RESULT:    -4.778      0.000      0.000
REMARK INTER + INTRA:          -5.404
REMARK INTER:                  -5.337
REMARK INTRA:                  -0.067
REMARK UNBOUND:                -0.067
REMARK  Name = No_2048-gen_results/8p0m/2024-11-27-11-27-31/
REMARK  2 active torsions:
REMARK  status: ('A' for Active; 'I' for Inactive)
REMARK    1  A    between atoms: C_1  and  C_2
REMARK    2  A    between atoms: C_1  and  C_8
REMARK                            x       y       z     vdW  Elec       q    Type
REMARK                         _______ _______ _______ _____ _____    ______ ____
ROOT
ATOM      1  C   UNL A   1     -24.534  -2.478  28.861  0.00  0.00    -0.016 A 
ATOM      2  C   UNL A   1     -25.759  -2.563  29.499  0.00  0.00    -0.004 A 
ATOM      3  C   UNL A   1     -26.450  -3.776  29.865  0.00  0.00    -0.000 A 
ATOM      4  C   UNL A   1     -25.848  -5.018  29.549  0.00  0.00    -0.000 A 
ATOM      5  C   UNL A   1     -24.592  -5.001  28.890  0.00  0.00    -0.000 A 
ATOM      6  C   UNL A   1     -24.006  -3.805  28.614  0.00  0.00    -0.004 A 
ENDROOT
BRANCH   1   7
ATOM      7  C   UNL A   1     -23.941  -1.451  28.626  0.00  0.00    +0.075 C 
BRANCH   7   8
ATOM      8  C   UNL A   1     -22.769  -1.054  29.471  0.00  0.00    +0.100 C 
ATOM      9  N   UNL A   1     -21.524  -0.985  28.972  0.00  0.00    -0.151 NA
ENDBRANCH   7   8
ENDBRANCH   1   7
TORSDOF 2
ENDMDL
ENDMDL
