MODEL 2049
MODEL 1
REMARK VINA RESULT:    -7.959      0.000      0.000
REMARK INTER + INTRA:         -11.003
REMARK INTER:                 -11.216
REMARK INTRA:                   0.212
REMARK UNBOUND:                 0.212
REMARK  Name = No_2049-gen_results/8p0m/2024-11-27-11-27-31/
REMARK  8 active torsions:
REMARK  status: ('A' for Active; 'I' for Inactive)
REMARK    1  A    between atoms: C_2  and  C_17
REMARK    2  A    between atoms: C_4  and  C_5
REMARK    3  A    between atoms: C_5  and  C_8
REMARK    4  A    between atoms: C_8  and  C_9
REMARK    5  A    between atoms: C_8  and  C_21
REMARK    6  A    between atoms: C_9  and  C_10
REMARK    7  A    between atoms: C_21  and  C_25
REMARK    8  A    between atoms: C_25  and  C_26
REMARK                            x       y       z     vdW  Elec       q    Type
REMARK                         _______ _______ _______ _____ _____    ______ ____
ROOT
ATOM      1  C   UNL A   1     -23.552   0.655  29.386  0.00  0.00    +0.097 C 
ATOM      2 CL   UNL A   1     -22.595   0.298  29.368  0.00  0.00    -0.113 Cl
ENDROOT
BRANCH   1   3
ATOM      3  C   UNL A   1     -24.250   1.148  30.378  0.00  0.00    +0.158 C 
ATOM      4  C   UNL A   1     -23.984   0.264  31.657  0.00  0.00    +0.039 C 
ATOM      5  O   UNL A   1     -23.418   2.347  30.827  0.00  0.00    -0.220 OA
BRANCH   3   6
ATOM      6  C   UNL A   1     -25.496   1.627  30.295  0.00  0.00    +0.006 A 
ATOM      7  C   UNL A   1     -26.553   0.813  29.847  0.00  0.00    -0.002 A 
ATOM      8  C   UNL A   1     -27.874   1.246  29.901  0.00  0.00    -0.000 A 
ATOM      9  C   UNL A   1     -28.170   2.469  30.458  0.00  0.00    -0.000 A 
ATOM     10  C   UNL A   1     -27.141   3.294  30.791  0.00  0.00    -0.000 A 
ATOM     11  C   UNL A   1     -25.798   2.886  30.722  0.00  0.00    -0.002 A 
ENDBRANCH   3   6
ENDBRANCH   1   3
BRANCH   1  12
ATOM     12  C   UNL A   1     -23.180   1.425  28.245  0.00  0.00    +0.024 C 
ATOM     13  C   UNL A   1     -21.911   1.677  27.399  0.00  0.00    +0.002 C 
BRANCH  12  17
ATOM     14  C   UNL A   1     -25.944   2.979  26.068  0.00  0.00    +0.076 C 
ATOM     15  C   UNL A   1     -26.227   2.101  25.559  0.00  0.00    +0.111 C 
ATOM     16  C   UNL A   1     -24.894   2.840  27.089  0.00  0.00    +0.151 C 
ATOM     17  C   UNL A   1     -24.211   1.601  27.263  0.00  0.00    +0.059 C 
ATOM     18  C   UNL A   1     -25.669   0.737  25.464  0.00  0.00    +0.012 C 
ATOM     19  C   UNL A   1     -24.593   0.538  26.392  0.00  0.00    +0.008 C 
ATOM     20  O   UNL A   1     -24.526   3.885  27.797  0.00  0.00    -0.296 OA
BRANCH  15  21
ATOM     21  C   UNL A   1     -27.422   2.238  24.469  0.00  0.00    +0.365 C 
ATOM     22  O   UNL A   1     -28.208   3.256  24.632  0.00  0.00    -0.246 OA
ATOM     23  O   UNL A   1     -27.720   1.276  23.751  0.00  0.00    -0.246 OA
ENDBRANCH  15  21
ENDBRANCH  12  17
ENDBRANCH   1  12
BRANCH   1  24
ATOM     24  C   UNL A   1     -23.286  -0.824  29.193  0.00  0.00    +0.022 C 
BRANCH  24  25
ATOM     25  C   UNL A   1     -24.605  -1.420  28.997  0.00  0.00    +0.028 C 
BRANCH  25  26
ATOM     26  C   UNL A   1     -24.687  -2.900  29.084  0.00  0.00    -0.022 A 
ATOM     27  C   UNL A   1     -23.840  -3.658  28.556  0.00  0.00    -0.004 A 
ATOM     28  C   UNL A   1     -24.123  -5.095  28.550  0.00  0.00    -0.000 A 
ATOM     29  C   UNL A   1     -25.255  -5.587  29.115  0.00  0.00    -0.000 A 
ATOM     30  C   UNL A   1     -26.178  -4.718  29.661  0.00  0.00    -0.000 A 
ATOM     31  C   UNL A   1     -25.945  -3.370  29.667  0.00  0.00    -0.004 A 
ENDBRANCH  25  26
ENDBRANCH  24  25
ENDBRANCH   1  24
TORSDOF 8
ENDMDL
ENDMDL
