MODEL 204
MODEL 1
REMARK VINA RESULT:    -4.795      0.000      0.000
REMARK INTER + INTRA:          -4.795
REMARK INTER:                  -4.795
REMARK INTRA:                   0.000
REMARK UNBOUND:                 0.000
REMARK  Name = No_204-gen_results/8p0m/2024-11-27-11-27-31/
REMARK  0 active torsions:
REMARK  status: ('A' for Active; 'I' for Inactive)
REMARK                            x       y       z     vdW  Elec       q    Type
REMARK                         _______ _______ _______ _____ _____    ______ ____
ROOT
ATOM      1  O   UNL A   1     -28.021  -3.951  30.092  0.00  0.00    -0.259 OA
ATOM      2  C   UNL A   1     -26.883  -3.954  29.912  0.00  0.00    +0.312 C 
ATOM      3  C   UNL A   1     -26.063  -4.630  29.696  0.00  0.00    -0.005 C 
ATOM      4  N   UNL A   1     -26.293  -2.533  30.035  0.00  0.00    -0.169 NA
ATOM      5  C   UNL A   1     -25.348  -5.031  29.084  0.00  0.00    -0.079 C 
ATOM      6  C   UNL A   1     -24.978  -2.309  29.624  0.00  0.00    +0.099 C 
ATOM      7  C   UNL A   1     -24.037  -3.093  29.018  0.00  0.00    +0.212 C 
ATOM      8  C   UNL A   1     -24.095  -4.418  28.786  0.00  0.00    +0.118 C 
ATOM      9  F   UNL A   1     -22.916  -2.395  28.687  0.00  0.00    -0.230 F 
ENDROOT
TORSDOF 0
ENDMDL
ENDMDL
