MODEL 2050
MODEL 1
REMARK VINA RESULT:    -6.289      0.000      0.000
REMARK INTER + INTRA:         -13.871
REMARK INTER:                 -10.700
REMARK INTRA:                  -3.171
REMARK UNBOUND:                -3.171
REMARK  Name = No_2050-gen_results/8p0m/2024-11-27-11-27-31/
REMARK  12 active torsions:
REMARK  status: ('A' for Active; 'I' for Inactive)
REMARK    1  A    between atoms: C_1  and  N_14
REMARK    2  A    between atoms: C_2  and  C_8
REMARK    3  A    between atoms: N_14  and  C_15
REMARK    4  A    between atoms: N_14  and  C_16
REMARK    5  A    between atoms: C_15  and  C_17
REMARK    6  A    between atoms: C_16  and  C_23
REMARK    7  A    between atoms: C_21  and  C_26
REMARK    8  A    between atoms: C_23  and  O_25
REMARK    9  A    between atoms: O_25  and  C_29
REMARK   10  A    between atoms: C_29  and  C_30
REMARK   11  A    between atoms: N_32  and  C_33
REMARK   12  A    between atoms: C_33  and  C_34
REMARK                            x       y       z     vdW  Elec       q    Type
REMARK                         _______ _______ _______ _____ _____    ______ ____
ROOT
ATOM      1  N   UNL A   1     -10.462   1.160  37.094  0.00  0.00    -0.294 N 
ENDROOT
BRANCH   1   2
ATOM      2  C   UNL A   1     -11.704   1.762  36.617  0.00  0.00    +0.049 A 
ATOM      3  C   UNL A   1     -12.413   2.132  37.524  0.00  0.00    +0.013 A 
ATOM      4  C   UNL A   1     -13.621   2.775  37.338  0.00  0.00    +0.002 A 
ATOM      5  C   UNL A   1     -14.070   2.977  36.002  0.00  0.00    +0.011 A 
ATOM      6  C   UNL A   1     -13.327   2.397  35.031  0.00  0.00    +0.059 A 
ATOM      7  C   UNL A   1     -12.203   1.764  35.306  0.00  0.00    +0.026 A 
ATOM      8 CL   UNL A   1     -13.885   2.598  33.435  0.00  0.00    -0.082 Cl
BRANCH   3   9
ATOM      9  C   UNL A   1     -12.092   2.235  39.061  0.00  0.00    +0.001 A 
ATOM     10  C   UNL A   1     -11.401   2.953  39.538  0.00  0.00    +0.000 A 
ATOM     11  C   UNL A   1     -11.151   3.070  41.007  0.00  0.00    +0.000 A 
ATOM     12  C   UNL A   1     -11.891   2.226  41.821  0.00  0.00    +0.000 A 
ATOM     13  C   UNL A   1     -12.786   1.341  41.256  0.00  0.00    +0.000 A 
ATOM     14  C   UNL A   1     -12.965   1.278  39.869  0.00  0.00    +0.000 A 
ENDBRANCH   3   9
ENDBRANCH   1   2
BRANCH   1  15
ATOM     15  C   UNL A   1     -10.200  -0.208  37.008  0.00  0.00    +0.118 C 
BRANCH  15  16
ATOM     16  C   UNL A   1     -10.810  -0.969  37.958  0.00  0.00    -0.002 A 
ATOM     17  C   UNL A   1     -11.609  -1.660  38.006  0.00  0.00    -0.003 A 
ATOM     18  C   UNL A   1     -12.224  -2.472  39.035  0.00  0.00    -0.000 A 
ATOM     19  C   UNL A   1     -11.652  -2.377  40.276  0.00  0.00    +0.007 A 
ATOM     20  C   UNL A   1     -10.566  -1.496  40.420  0.00  0.00    +0.080 A 
ATOM     21  C   UNL A   1     -10.081  -0.805  39.362  0.00  0.00    +0.004 A 
BRANCH  20  22
ATOM     22  C   UNL A   1      -9.875  -1.406  41.763  0.00  0.00    +0.388 C 
ATOM     23  O   UNL A   1      -9.503  -0.433  42.231  0.00  0.00    -0.241 OA
ATOM     24  O   UNL A   1      -9.715  -2.557  42.456  0.00  0.00    -0.241 OA
ENDBRANCH  20  22
ENDBRANCH  15  16
ENDBRANCH   1  15
BRANCH   1  25
ATOM     25  C   UNL A   1      -9.279   1.957  37.260  0.00  0.00    +0.202 C 
BRANCH  25  26
ATOM     26  C   UNL A   1      -8.835   2.815  36.239  0.00  0.00    +0.338 C 
ATOM     27  O   UNL A   1      -8.877   4.030  36.447  0.00  0.00    -0.248 OA
BRANCH  26  28
ATOM     28  O   UNL A   1      -8.474   2.348  35.125  0.00  0.00    -0.437 OA
BRANCH  28  29
ATOM     29  C   UNL A   1      -7.322   1.563  35.008  0.00  0.00    +0.294 C 
BRANCH  29  30
ATOM     30  C   UNL A   1      -7.682   0.224  34.561  0.00  0.00    +0.286 C 
ATOM     31  O   UNL A   1      -8.516  -0.011  33.892  0.00  0.00    -0.269 OA
ATOM     32  N   UNL A   1      -6.735  -0.779  34.842  0.00  0.00    -0.202 NA
BRANCH  32  33
ATOM     33  C   UNL A   1      -6.574  -1.765  34.553  0.00  0.00    +0.115 C 
BRANCH  33  34
ATOM     34  C   UNL A   1      -5.561  -2.485  34.637  0.00  0.00    +0.023 C 
ATOM     35  C   UNL A   1      -4.383  -1.959  34.226  0.00  0.00    +0.002 C 
ENDBRANCH  33  34
ENDBRANCH  32  33
ENDBRANCH  29  30
ENDBRANCH  28  29
ENDBRANCH  26  28
ENDBRANCH  25  26
ENDBRANCH   1  25
TORSDOF 12
ENDMDL
ENDMDL
