REMARK  Name = No_2051-gen_results/8p0m/2024-11-27-11-27-31/
REMARK  1 active torsions:
REMARK  status: ('A' for Active; 'I' for Inactive)
REMARK    1  A    between atoms: C_2  and  C_8
REMARK                            x       y       z     vdW  Elec       q    Type
REMARK                         _______ _______ _______ _____ _____    ______ ____
ROOT
ATOM      1  C   UNL A   1     -28.016  -0.814  28.878  0.00  0.00    +0.007 A 
ATOM      2  C   UNL A   1     -28.469  -0.785  29.829  0.00  0.00    +0.054 A 
ATOM      3  C   UNL A   1     -27.087   0.290  28.638  0.00  0.00    +0.030 A 
ATOM      4  C   UNL A   1     -26.768   1.027  29.472  0.00  0.00    +0.140 A 
ATOM      5  C   UNL A   1     -28.276   0.027  31.015  0.00  0.00    +0.007 A 
ATOM      6  C   UNL A   1     -27.329   1.054  30.753  0.00  0.00    +0.030 A 
ATOM      7  F   UNL A   1     -25.865   2.042  29.247  0.00  0.00    -0.204 F 
ENDROOT
BRANCH   2   8
ATOM      8  C   UNL A   1     -29.515  -1.994  30.253  0.00  0.00    +0.253 C 
ATOM      9  O   UNL A   1     -29.357  -3.170  30.228  0.00  0.00    -0.270 OA
ATOM     10  N   UNL A   1     -30.816  -1.607  30.609  0.00  0.00    -0.254 N 
ATOM     11  C   UNL A   1     -31.261  -0.284  30.625  0.00  0.00    +0.063 C 
ATOM     12  C   UNL A   1     -32.600  -0.280  30.918  0.00  0.00    -0.008 C 
ATOM     13  C   UNL A   1     -33.285  -1.387  31.116  0.00  0.00    +0.049 C 
ATOM     14  C   UNL A   1     -31.869  -2.439  30.874  0.00  0.00    +0.103 C 
ENDBRANCH   2   8
TORSDOF 1
