MODEL 2051
MODEL 1
REMARK VINA RESULT:    -6.102      0.000      0.000
REMARK INTER + INTRA:          -6.471
REMARK INTER:                  -6.459
REMARK INTRA:                  -0.012
REMARK UNBOUND:                -0.012
REMARK  Name = No_2051-gen_results/8p0m/2024-11-27-11-27-31/
REMARK  1 active torsions:
REMARK  status: ('A' for Active; 'I' for Inactive)
REMARK    1  A    between atoms: C_2  and  C_8
REMARK                            x       y       z     vdW  Elec       q    Type
REMARK                         _______ _______ _______ _____ _____    ______ ____
ROOT
ATOM      1  C   UNL A   1     -25.201  -1.727  29.974  0.00  0.00    +0.007 A 
ATOM      2  C   UNL A   1     -24.354  -2.000  29.410  0.00  0.00    +0.054 A 
ATOM      3  C   UNL A   1     -26.208  -2.783  30.067  0.00  0.00    +0.030 A 
ATOM      4  C   UNL A   1     -26.016  -3.861  29.689  0.00  0.00    +0.140 A 
ATOM      5  C   UNL A   1     -23.892  -3.240  28.817  0.00  0.00    +0.007 A 
ATOM      6  C   UNL A   1     -24.878  -4.251  28.975  0.00  0.00    +0.030 A 
ATOM      7  F   UNL A   1     -26.956  -4.860  29.813  0.00  0.00    -0.204 F 
ENDROOT
BRANCH   2   8
ATOM      8  C   UNL A   1     -23.115  -0.915  29.253  0.00  0.00    +0.253 C 
ATOM      9  O   UNL A   1     -22.175  -0.738  29.955  0.00  0.00    -0.270 OA
ATOM     10  N   UNL A   1     -23.211   0.004  28.197  0.00  0.00    -0.254 N 
ATOM     11  C   UNL A   1     -24.274   0.047  27.292  0.00  0.00    +0.063 C 
ATOM     12  C   UNL A   1     -24.095   1.124  26.463  0.00  0.00    -0.008 C 
ATOM     13  C   UNL A   1     -23.074   1.947  26.581  0.00  0.00    +0.049 C 
ATOM     14  C   UNL A   1     -22.372   1.057  27.955  0.00  0.00    +0.103 C 
ENDBRANCH   2   8
TORSDOF 1
ENDMDL
ENDMDL
