MODEL 2052
MODEL 1
REMARK VINA RESULT:    -6.057      0.000      0.000
REMARK INTER + INTRA:          -7.870
REMARK INTER:                  -7.474
REMARK INTRA:                  -0.396
REMARK UNBOUND:                -0.396
REMARK  Name = No_2052-gen_results/8p0m/2024-11-27-11-27-31/
REMARK  4 active torsions:
REMARK  status: ('A' for Active; 'I' for Inactive)
REMARK    1  A    between atoms: C_1  and  C_2
REMARK    2  A    between atoms: C_1  and  N_8
REMARK    3  A    between atoms: C_5  and  C_10
REMARK    4  A    between atoms: N_8  and  C_9
REMARK                            x       y       z     vdW  Elec       q    Type
REMARK                         _______ _______ _______ _____ _____    ______ ____
ROOT
ATOM      1  C   UNL A   1     -23.242  -0.128  28.598  0.00  0.00    -0.001 A 
ATOM      2  C   UNL A   1     -22.151   0.663  28.434  0.00  0.00    -0.003 A 
ATOM      3  C   UNL A   1     -21.989   1.657  27.350  0.00  0.00    +0.001 A 
ATOM      4  C   UNL A   1     -23.059   1.764  26.402  0.00  0.00    +0.044 A 
ATOM      5  C   UNL A   1     -24.144   0.874  26.565  0.00  0.00    +0.001 A 
ATOM      6  C   UNL A   1     -24.226  -0.025  27.597  0.00  0.00    -0.003 A 
ENDROOT
BRANCH   4   7
ATOM      7  C   UNL A   1     -23.007   2.658  25.281  0.00  0.00    +0.341 C 
ATOM      8  F   UNL A   1     -22.242   2.702  24.511  0.00  0.00    -0.193 F 
ATOM      9  F   UNL A   1     -23.828   3.768  25.411  0.00  0.00    -0.193 F 
ENDBRANCH   4   7
BRANCH   1  10
ATOM     10  C   UNL A   1     -23.362  -0.938  29.488  0.00  0.00    +0.142 C 
BRANCH  10  11
ATOM     11  N   UNL A   1     -23.128  -2.161  29.258  0.00  0.00    -0.198 NA
BRANCH  11  12
ATOM     12  C   UNL A   1     -24.086  -3.144  29.526  0.00  0.00    +0.283 C 
ATOM     13  C   UNL A   1     -24.453  -4.066  28.557  0.00  0.00    +0.181 C 
ATOM     14  F   UNL A   1     -25.062  -2.774  30.326  0.00  0.00    -0.174 F 
ATOM     15  O   UNL A   1     -23.638  -4.942  28.262  0.00  0.00    -0.227 OA
ENDBRANCH  11  12
ENDBRANCH  10  11
ENDBRANCH   1  10
TORSDOF 4
ENDMDL
ENDMDL
