MODEL 2053
MODEL 1
REMARK VINA RESULT:    -7.103      0.000      0.000
REMARK INTER + INTRA:          -8.374
REMARK INTER:                  -7.934
REMARK INTRA:                  -0.441
REMARK UNBOUND:                -0.441
REMARK  Name = No_2053-gen_results/8p0m/2024-11-27-11-27-31/
REMARK  2 active torsions:
REMARK  status: ('A' for Active; 'I' for Inactive)
REMARK    1  A    between atoms: C_2  and  C_7
REMARK    2  A    between atoms: C_11  and  C_13
REMARK                            x       y       z     vdW  Elec       q    Type
REMARK                         _______ _______ _______ _____ _____    ______ ____
ROOT
ATOM      1  C   UNL A   1     -23.502  -1.595  28.910  0.00  0.00    +0.000 A 
ATOM      2  C   UNL A   1     -22.565  -1.436  29.287  0.00  0.00    +0.000 A 
ATOM      3  C   UNL A   1     -21.602  -0.292  29.077  0.00  0.00    +0.000 A 
ATOM      4  C   UNL A   1     -22.039   0.763  28.300  0.00  0.00    +0.007 A 
ATOM      5  C   UNL A   1     -23.335   0.722  27.779  0.00  0.00    +0.080 A 
ATOM      6  C   UNL A   1     -24.107  -0.378  28.008  0.00  0.00    +0.007 A 
ENDROOT
BRANCH   1   8
ATOM      7  C   UNL A   1     -25.616  -2.476  29.621  0.00  0.00    +0.000 A 
ATOM      8  C   UNL A   1     -24.510  -2.658  29.167  0.00  0.00    +0.000 A 
ATOM      9  C   UNL A   1     -24.079  -3.933  28.817  0.00  0.00    +0.000 A 
ATOM     10  C   UNL A   1     -24.920  -5.083  29.026  0.00  0.00    +0.000 A 
ATOM     11  C   UNL A   1     -26.173  -4.785  29.576  0.00  0.00    +0.000 A 
ATOM     12  C   UNL A   1     -26.526  -3.563  29.907  0.00  0.00    +0.000 A 
ENDBRANCH   1   8
BRANCH   5  13
ATOM     13  C   UNL A   1     -23.799   1.803  26.919  0.00  0.00    +0.388 C 
ATOM     14  O   UNL A   1     -23.838   3.019  27.447  0.00  0.00    -0.241 OA
ATOM     15  O   UNL A   1     -24.168   1.645  25.683  0.00  0.00    -0.241 OA
ENDBRANCH   5  13
TORSDOF 2
ENDMDL
ENDMDL
