REMARK  Name = outputs/IAG933/test6/raw/output_2053_IAG933_linker_design_.xyz
REMARK  16 active torsions:
REMARK  status: ('A' for Active; 'I' for Inactive)
REMARK    1  A    between atoms: C_1  and  C_2
REMARK    2  A    between atoms: C_1  and  C_8
REMARK    3  A    between atoms: C_1  and  N_42
REMARK    4  A    between atoms: C_14  and  C_15
REMARK    5  A    between atoms: C_15  and  O_18
REMARK    6  A    between atoms: O_18  and  C_33
REMARK    7  A    between atoms: C_21  and  O_22
REMARK    8  A    between atoms: O_22  and  C_23
REMARK    9  A    between atoms: C_23  and  C_24
REMARK   10  A    between atoms: C_28  and  N_29
REMARK   11  A    between atoms: C_28  and  C_33
REMARK   12  A    between atoms: N_29  and  C_32
REMARK   13  A    between atoms: C_32  and  N_39
REMARK   14  A    between atoms: C_32  and  N_42
REMARK   15  A    between atoms: C_33  and  N_34
REMARK   16  A    between atoms: C_35  and  N_39
REMARK                            x       y       z     vdW  Elec       q    Type
REMARK                         _______ _______ _______ _____ _____    ______ ____
ROOT
ATOM      1  C   UNL A   1     -25.662   2.260  29.777  0.00  0.00    +0.184 C 
ENDROOT
BRANCH   1   2
ATOM      2  C   UNL A   1     -25.978   3.736  29.515  0.00  0.00    +0.352 C 
ATOM      3  O   UNL A   1     -25.689   4.443  30.579  0.00  0.00    -0.161 OA
BRANCH   2   4
ATOM      4  N   UNL A   1     -27.410   4.050  29.184  0.00  0.00    -0.103 NA
ATOM      5  C   UNL A   1     -29.308   4.742  28.985  0.00  0.00    +0.187 C 
ATOM      6  C   UNL A   1     -28.690   3.336  28.980  0.00  0.00    +0.141 C 
ATOM      7  O   UNL A   1     -28.001   5.289  29.348  0.00  0.00    -0.276 OA
ENDBRANCH   2   4
BRANCH   2   8
ATOM      8  O   UNL A   1     -25.143   3.966  28.243  0.00  0.00    -0.425 OA
BRANCH   8   9
ATOM      9  C   UNL A   1     -25.642   4.093  27.123  0.00  0.00    +0.225 C 
ATOM     10  N   UNL A   1     -25.614   5.252  26.449  0.00  0.00    -0.236 NA
ATOM     11  C   UNL A   1     -25.026   6.479  26.963  0.00  0.00    +0.155 C 
BRANCH   9  13
ATOM     12  C   UNL A   1     -25.688   1.614  26.461  0.00  0.00    +0.041 C 
ATOM     13  C   UNL A   1     -26.250   2.920  26.395  0.00  0.00    +0.074 C 
ATOM     14  C   UNL A   1     -27.438   3.091  25.645  0.00  0.00    +0.107 C 
ATOM     15  N   UNL A   1     -28.075   2.089  25.003  0.00  0.00    -0.208 NA
ATOM     16  C   UNL A   1     -27.543   0.849  25.079  0.00  0.00    +0.253 C 
ATOM     17  C   UNL A   1     -26.354   0.576  25.777  0.00  0.00    +0.193 C 
ATOM     18  F   UNL A   1     -25.860  -0.681  25.795  0.00  0.00    -0.199 F 
BRANCH  16  19
ATOM     19  O   UNL A   1     -28.193  -0.208  24.477  0.00  0.00    -0.456 OA
BRANCH  19  20
ATOM     20  C   UNL A   1     -29.460   0.005  23.866  0.00  0.00    +0.243 C 
BRANCH  20  21
ATOM     21  C   UNL A   1     -30.065  -1.377  23.573  0.00  0.00    +0.229 C 
ATOM     22  O   UNL A   1     -30.729  -1.878  24.721  0.00  0.00    -0.216 OA
ENDBRANCH  20  21
ENDBRANCH  19  20
ENDBRANCH  16  19
ENDBRANCH   9  13
ENDBRANCH   8   9
ENDBRANCH   2   8
ENDBRANCH   1   2
BRANCH   1  23
ATOM     23  N   UNL A   1     -24.291   1.742  29.654  0.00  0.00    -0.178 NA
BRANCH  23  24
ATOM     24  C   UNL A   1     -23.665   0.650  29.041  0.00  0.00    +0.231 C 
BRANCH  24  25
ATOM     25  N   UNL A   1     -22.747   0.482  28.016  0.00  0.00    -0.099 NA
BRANCH  25  28
ATOM     26  O   UNL A   1     -22.338   2.749  27.817  0.00  0.00    -0.139 OA
ATOM     27  F   UNL A   1     -21.630   1.417  26.270  0.00  0.00    -0.156 F 
ATOM     28  C   UNL A   1     -21.928   1.474  27.501  0.00  0.00    +0.469 C 
ATOM     29  F   UNL A   1     -20.662   1.189  27.900  0.00  0.00    -0.156 F 
ENDBRANCH  25  28
ENDBRANCH  24  25
BRANCH  24  30
ATOM     30  N   UNL A   1     -23.903  -0.360  29.670  0.00  0.00    -0.182 NA
BRANCH  30  31
ATOM     31  C   UNL A   1     -24.855  -1.012  30.143  0.00  0.00    +0.114 C 
BRANCH  31  32
ATOM     32  C   UNL A   1     -24.973  -2.505  29.788  0.00  0.00    -0.005 C 
ATOM     33  C   UNL A   1     -23.906  -3.173  29.146  0.00  0.00    -0.003 C 
ATOM     34  C   UNL A   1     -23.989  -4.549  28.853  0.00  0.00    -0.000 C 
ATOM     35  C   UNL A   1     -25.137  -5.280  29.205  0.00  0.00    -0.000 C 
ATOM     36  C   UNL A   1     -26.232  -4.611  29.784  0.00  0.00    -0.000 C 
ATOM     37  C   UNL A   1     -26.155  -3.232  30.065  0.00  0.00    -0.003 C 
ENDBRANCH  31  32
BRANCH  31  38
ATOM     38  C   UNL A   1     -25.387  -0.679  31.571  0.00  0.00    +0.093 C 
ATOM     39  C   UNL A   1     -25.189   0.773  32.028  0.00  0.00    +0.021 C 
ATOM     40  C   UNL A   1     -25.336   0.684  33.544  0.00  0.00    +0.020 C 
ATOM     41  C   UNL A   1     -24.829  -0.715  33.905  0.00  0.00    +0.089 C 
ATOM     42  N   UNL A   1     -24.758  -1.481  32.646  0.00  0.00    -0.218 NA
ENDBRANCH  31  38
ENDBRANCH  30  31
ENDBRANCH  24  30
ENDBRANCH  23  24
ENDBRANCH   1  23
TORSDOF 16
