REMARK  Name = outputs/IAG933/test6/raw/output_2054_IAG933_linker_design_.xyz
REMARK  10 active torsions:
REMARK  status: ('A' for Active; 'I' for Inactive)
REMARK    1  A    between atoms: C_1  and  C_2
REMARK    2  A    between atoms: C_1  and  C_8
REMARK    3  A    between atoms: C_1  and  C_38
REMARK    4  A    between atoms: C_13  and  C_34
REMARK    5  A    between atoms: C_14  and  C_15
REMARK    6  A    between atoms: C_21  and  O_22
REMARK    7  A    between atoms: O_22  and  C_23
REMARK    8  A    between atoms: C_23  and  C_24
REMARK    9  A    between atoms: N_31  and  C_44
REMARK   10  A    between atoms: C_33  and  C_46
REMARK                            x       y       z     vdW  Elec       q    Type
REMARK                         _______ _______ _______ _____ _____    ______ ____
ROOT
ATOM      1  C   UNL A   1     -22.263   0.874  28.042  0.00  0.00    +0.010 C 
ATOM      2  N   UNL A   1     -25.119   0.352  28.517  0.00  0.00    -0.276 N 
ATOM      3  C   UNL A   1     -24.662   1.172  27.410  0.00  0.00    +0.135 C 
ATOM      4  C   UNL A   1     -24.116  -0.022  29.355  0.00  0.00    +0.035 C 
ATOM      5  C   UNL A   1     -22.652   0.187  29.214  0.00  0.00    +0.011 C 
ATOM      6 CL   UNL A   1     -22.651   1.865  25.534  0.00  0.00    -0.085 Cl
ATOM      7  C   UNL A   1     -23.230   1.406  27.101  0.00  0.00    +0.058 C 
ENDROOT
BRANCH   2  14
ATOM      8  C   UNL A   1     -27.483   5.036  31.953  0.00  0.00    +0.012 C 
ATOM      9  C   UNL A   1     -26.691   4.381  30.997  0.00  0.00    +0.203 C 
ATOM     10  O   UNL A   1     -25.346   4.757  30.942  0.00  0.00    -0.213 OA
ATOM     11  C   UNL A   1     -27.304   1.820  29.588  0.00  0.00    -0.087 C 
ATOM     12  C   UNL A   1     -28.725   3.761  29.796  0.00  0.00    +0.006 C 
ATOM     13  C   UNL A   1     -29.484   4.556  30.670  0.00  0.00    +0.001 C 
ATOM     14  C   UNL A   1     -26.631   0.326  28.856  0.00  0.00    +0.108 C 
ATOM     15  C   UNL A   1     -28.866   5.050  31.820  0.00  0.00    +0.036 C 
ATOM     16  C   UNL A   1     -27.459   3.413  30.115  0.00  0.00    +0.048 C 
BRANCH  15  19
ATOM     17  C   UNL A   1     -30.429   4.541  33.695  0.00  0.00    +0.077 C 
ATOM     18  F   UNL A   1     -28.861   6.337  33.840  0.00  0.00    -0.200 F 
ATOM     19  C   UNL A   1     -29.648   5.636  32.966  0.00  0.00    +0.283 C 
ATOM     20  F   UNL A   1     -30.508   6.512  32.452  0.00  0.00    -0.200 F 
ENDBRANCH  15  19
ENDBRANCH   2  14
BRANCH   3  21
ATOM     21  C   UNL A   1     -25.688   1.614  26.461  0.00  0.00    +0.039 C 
ATOM     22  C   UNL A   1     -26.250   2.920  26.395  0.00  0.00    +0.074 C 
ATOM     23  C   UNL A   1     -27.438   3.091  25.645  0.00  0.00    +0.106 C 
ATOM     24  N   UNL A   1     -28.075   2.089  25.003  0.00  0.00    -0.208 NA
ATOM     25  C   UNL A   1     -27.543   0.849  25.079  0.00  0.00    +0.253 C 
ATOM     26  C   UNL A   1     -26.354   0.576  25.777  0.00  0.00    +0.191 C 
ATOM     27  F   UNL A   1     -25.860  -0.681  25.795  0.00  0.00    -0.200 F 
BRANCH  22  28
ATOM     28  C   UNL A   1     -25.642   4.093  27.123  0.00  0.00    +0.266 C 
ATOM     29  N   UNL A   1     -25.614   5.252  26.449  0.00  0.00    -0.200 NA
ATOM     30  C   UNL A   1     -25.026   6.479  26.963  0.00  0.00    +0.139 C 
ATOM     31  O   UNL A   1     -25.143   3.966  28.243  0.00  0.00    -0.268 OA
ENDBRANCH  22  28
BRANCH  25  32
ATOM     32  O   UNL A   1     -28.193  -0.208  24.477  0.00  0.00    -0.456 OA
BRANCH  32  33
ATOM     33  C   UNL A   1     -29.460   0.005  23.866  0.00  0.00    +0.243 C 
BRANCH  33  34
ATOM     34  C   UNL A   1     -30.065  -1.377  23.573  0.00  0.00    +0.229 C 
ATOM     35  O   UNL A   1     -30.729  -1.878  24.721  0.00  0.00    -0.216 OA
ENDBRANCH  33  34
ENDBRANCH  32  33
ENDBRANCH  25  32
ENDBRANCH   3  21
BRANCH   4  36
ATOM     36  C   UNL A   1     -24.855  -1.012  30.143  0.00  0.00    +0.074 C 
BRANCH  36  37
ATOM     37  C   UNL A   1     -24.973  -2.505  29.788  0.00  0.00    -0.016 C 
ATOM     38  C   UNL A   1     -23.906  -3.173  29.146  0.00  0.00    -0.004 C 
ATOM     39  C   UNL A   1     -23.989  -4.549  28.853  0.00  0.00    -0.000 C 
ATOM     40  C   UNL A   1     -25.137  -5.280  29.205  0.00  0.00    -0.000 C 
ATOM     41  C   UNL A   1     -26.232  -4.611  29.784  0.00  0.00    -0.000 C 
ATOM     42  C   UNL A   1     -26.155  -3.232  30.065  0.00  0.00    -0.004 C 
ENDBRANCH  36  37
BRANCH  36  43
ATOM     43  C   UNL A   1     -25.387  -0.679  31.571  0.00  0.00    +0.082 C 
ATOM     44  C   UNL A   1     -25.189   0.773  32.028  0.00  0.00    +0.020 C 
ATOM     45  C   UNL A   1     -25.336   0.684  33.544  0.00  0.00    +0.020 C 
ATOM     46  C   UNL A   1     -24.829  -0.715  33.905  0.00  0.00    +0.089 C 
ATOM     47  N   UNL A   1     -24.758  -1.481  32.646  0.00  0.00    -0.219 NA
ENDBRANCH  36  43
ENDBRANCH   4  36
TORSDOF 10
