MODEL 2054
MODEL 1
REMARK VINA RESULT:    -7.242      0.000      0.000
REMARK INTER + INTRA:         -10.994
REMARK INTER:                  -9.782
REMARK INTRA:                  -1.211
REMARK UNBOUND:                -1.211
REMARK  Name = No_2054-gen_results/8p0m/2024-11-27-11-27-31/
REMARK  6 active torsions:
REMARK  status: ('A' for Active; 'I' for Inactive)
REMARK    1  A    between atoms: C_2  and  C_10
REMARK    2  A    between atoms: C_5  and  C_7
REMARK    3  A    between atoms: C_12  and  C_16
REMARK    4  A    between atoms: C_19  and  C_20
REMARK    5  A    between atoms: C_20  and  C_22
REMARK    6  A    between atoms: C_22  and  C_25
REMARK                            x       y       z     vdW  Elec       q    Type
REMARK                         _______ _______ _______ _____ _____    ______ ____
ROOT
ATOM      1  C   UNL A   1     -29.823 -10.941  28.897  0.00  0.00    +0.000 A 
ATOM      2  C   UNL A   1     -30.966 -10.404  28.569  0.00  0.00    +0.005 A 
ATOM      3  C   UNL A   1     -31.456 -10.356  27.237  0.00  0.00    +0.056 A 
ATOM      4  C   UNL A   1     -30.804 -11.118  26.305  0.00  0.00    +0.005 A 
ATOM      5  C   UNL A   1     -29.566 -11.729  26.598  0.00  0.00    +0.000 A 
ATOM      6  C   UNL A   1     -29.101 -11.728  27.920  0.00  0.00    +0.000 A 
ENDROOT
BRANCH   1   8
ATOM      7  C   UNL A   1     -29.628 -10.203  31.233  0.00  0.00    +0.000 A 
ATOM      8  C   UNL A   1     -29.297 -11.017  30.402  0.00  0.00    +0.000 A 
ATOM      9  C   UNL A   1     -28.340 -12.000  30.586  0.00  0.00    +0.000 A 
ATOM     10  C   UNL A   1     -27.722 -12.071  31.869  0.00  0.00    +0.007 A 
ATOM     11  C   UNL A   1     -28.220 -11.249  32.815  0.00  0.00    +0.080 A 
ATOM     12  C   UNL A   1     -29.210 -10.393  32.552  0.00  0.00    +0.007 A 
BRANCH  11  13
ATOM     13  C   UNL A   1     -27.590 -11.381  34.143  0.00  0.00    +0.388 C 
ATOM     14  O   UNL A   1     -27.208 -12.402  34.491  0.00  0.00    -0.241 OA
ATOM     15  O   UNL A   1     -27.576 -10.265  34.897  0.00  0.00    -0.241 OA
ENDBRANCH  11  13
ENDBRANCH   1   8
BRANCH   3  16
ATOM     16  C   UNL A   1     -32.692  -9.671  26.946  0.00  0.00    +0.272 C 
ATOM     17  N   UNL A   1     -32.727  -8.340  26.931  0.00  0.00    -0.137 NA
ATOM     18  O   UNL A   1     -33.753 -10.287  26.539  0.00  0.00    -0.268 OA
ATOM     19  C   UNL A   1     -31.684  -7.412  27.075  0.00  0.00    +0.267 C 
ATOM     20  O   UNL A   1     -30.679  -7.481  26.346  0.00  0.00    -0.268 OA
BRANCH  19  21
ATOM     21  C   UNL A   1     -31.896  -6.318  27.942  0.00  0.00    +0.030 C 
ATOM     22  C   UNL A   1     -30.967  -6.021  28.862  0.00  0.00    -0.025 C 
ATOM     23  C   UNL A   1     -31.136  -4.731  29.545  0.00  0.00    +0.030 C 
BRANCH  21  24
ATOM     24  C   UNL A   1     -32.959  -5.412  27.594  0.00  0.00    +0.051 C 
BRANCH  24  25
ATOM     25  C   UNL A   1     -32.847  -4.819  26.295  0.00  0.00    +0.114 C 
ATOM     26  N   UNL A   1     -31.858  -3.800  26.042  0.00  0.00    -0.131 NA
ENDBRANCH  24  25
ENDBRANCH  21  24
ENDBRANCH  19  21
ENDBRANCH   3  16
TORSDOF 6
ENDMDL
ENDMDL
