MODEL 2055
MODEL 1
REMARK VINA RESULT:    -7.149      0.000      0.000
REMARK INTER + INTRA:         -11.684
REMARK INTER:                 -10.075
REMARK INTRA:                  -1.609
REMARK UNBOUND:                -1.609
REMARK  Name = No_2055-gen_results/8p0m/2024-11-27-11-27-31/
REMARK  7 active torsions:
REMARK  status: ('A' for Active; 'I' for Inactive)
REMARK    1  A    between atoms: C_2  and  C_7
REMARK    2  A    between atoms: C_4  and  O_12
REMARK    3  A    between atoms: O_12  and  C_13
REMARK    4  A    between atoms: C_13  and  C_14
REMARK    5  A    between atoms: C_18  and  C_20
REMARK    6  A    between atoms: C_21  and  C_22
REMARK    7  A    between atoms: C_23  and  C_24
REMARK                            x       y       z     vdW  Elec       q    Type
REMARK                         _______ _______ _______ _____ _____    ______ ____
ROOT
ATOM      1  C   UNL A   1     -24.727   1.399  29.045  0.00  0.00    +0.232 C 
ENDROOT
BRANCH   1   2
ATOM      2  C   UNL A   1     -24.272   1.290  27.772  0.00  0.00    +0.021 A 
ATOM      3  C   UNL A   1     -23.217   2.210  27.411  0.00  0.00    -0.001 A 
ATOM      4  C   UNL A   1     -22.890   2.238  26.020  0.00  0.00    -0.000 A 
ATOM      5  C   UNL A   1     -23.711   1.491  25.104  0.00  0.00    -0.000 A 
ATOM      6  C   UNL A   1     -24.729   0.694  25.539  0.00  0.00    -0.000 A 
ATOM      7  C   UNL A   1     -25.082   0.733  26.848  0.00  0.00    -0.001 A 
BRANCH   6   8
ATOM      8  C   UNL A   1     -25.562   0.045  24.499  0.00  0.00    -0.000 C 
ATOM      9  C   UNL A   1     -26.945   0.118  24.729  0.00  0.00    -0.000 C 
BRANCH   9  10
ATOM     10  C   UNL A   1     -27.836   0.546  23.782  0.00  0.00    -0.000 C 
ATOM     11  C   UNL A   1     -28.432   1.845  23.871  0.00  0.00    +0.000 C 
BRANCH  11  12
ATOM     12  C   UNL A   1     -28.098   2.609  25.011  0.00  0.00    +0.000 C 
ATOM     13  C   UNL A   1     -28.577   3.816  25.261  0.00  0.00    +0.000 C 
ENDBRANCH  11  12
ENDBRANCH   9  10
ENDBRANCH   6   8
ENDBRANCH   1   2
BRANCH   1  14
ATOM     14  O   UNL A   1     -24.465   0.430  30.001  0.00  0.00    -0.470 OA
BRANCH  14  18
ATOM     15  C   UNL A   1     -23.648  -3.148  29.217  0.00  0.00    +0.018 A 
ATOM     16  C   UNL A   1     -24.646  -3.482  29.265  0.00  0.00    +0.072 A 
ATOM     17  C   UNL A   1     -23.446  -1.667  29.442  0.00  0.00    +0.091 A 
ATOM     18  C   UNL A   1     -24.544  -0.872  29.833  0.00  0.00    +0.149 A 
ATOM     19  C   UNL A   1     -25.936  -2.886  29.677  0.00  0.00    +0.007 A 
ATOM     20  C   UNL A   1     -25.790  -1.524  29.899  0.00  0.00    +0.038 A 
ATOM     21 CL   UNL A   1     -21.955  -0.832  29.313  0.00  0.00    -0.079 Cl
BRANCH  16  22
ATOM     22  C   UNL A   1     -24.888  -5.055  29.043  0.00  0.00    +0.419 C 
ATOM     23  F   UNL A   1     -24.607  -5.620  29.968  0.00  0.00    -0.166 F 
ATOM     24  F   UNL A   1     -26.201  -5.301  28.676  0.00  0.00    -0.166 F 
ATOM     25  F   UNL A   1     -24.126  -5.501  28.067  0.00  0.00    -0.166 F 
ENDBRANCH  16  22
ENDBRANCH  14  18
ENDBRANCH   1  14
TORSDOF 7
ENDMDL
ENDMDL
