REMARK  Name = outputs/IAG933/test6/raw/output_2056_IAG933_linker_design_.xyz
REMARK  12 active torsions:
REMARK  status: ('A' for Active; 'I' for Inactive)
REMARK    1  A    between atoms: C_1  and  C_2
REMARK    2  A    between atoms: C_1  and  C_8
REMARK    3  A    between atoms: C_1  and  C_41
REMARK    4  A    between atoms: C_13  and  C_30
REMARK    5  A    between atoms: C_14  and  C_15
REMARK    6  A    between atoms: C_21  and  O_22
REMARK    7  A    between atoms: O_22  and  C_23
REMARK    8  A    between atoms: C_23  and  C_24
REMARK    9  A    between atoms: O_28  and  C_43
REMARK   10  A    between atoms: C_32  and  C_41
REMARK   11  A    between atoms: N_37  and  C_41
REMARK   12  A    between atoms: C_39  and  C_44
REMARK                            x       y       z     vdW  Elec       q    Type
REMARK                         _______ _______ _______ _____ _____    ______ ____
ROOT
ATOM      1  C   UNL A   1     -24.375   1.325  27.061  0.00  0.00    +0.040 C 
ATOM      2  C   UNL A   1     -24.257   0.520  28.135  0.00  0.00    +0.003 C 
ATOM      3  C   UNL A   1     -21.797  -0.314  29.244  0.00  0.00    +0.022 C 
ATOM      4  C   UNL A   1     -21.997   1.152  27.708  0.00  0.00    +0.119 C 
ATOM      5  N   UNL A   1     -20.622   1.108  27.938  0.00  0.00    -0.241 NA
ATOM      6  C   UNL A   1     -22.787   0.398  28.484  0.00  0.00    +0.020 C 
ATOM      7  C   UNL A   1     -20.535   0.065  28.815  0.00  0.00    +0.099 C 
ATOM      8  C   UNL A   1     -22.899   1.777  26.718  0.00  0.00    +0.203 C 
ENDROOT
BRANCH   1   9
ATOM      9  C   UNL A   1     -25.688   1.614  26.461  0.00  0.00    +0.041 C 
ATOM     10  C   UNL A   1     -26.250   2.920  26.395  0.00  0.00    +0.077 C 
ATOM     11  C   UNL A   1     -27.438   3.091  25.645  0.00  0.00    +0.107 C 
ATOM     12  N   UNL A   1     -28.075   2.089  25.003  0.00  0.00    -0.208 NA
ATOM     13  C   UNL A   1     -27.543   0.849  25.079  0.00  0.00    +0.253 C 
ATOM     14  C   UNL A   1     -26.354   0.576  25.777  0.00  0.00    +0.193 C 
ATOM     15  F   UNL A   1     -25.860  -0.681  25.795  0.00  0.00    -0.199 F 
BRANCH  10  16
ATOM     16  C   UNL A   1     -25.642   4.093  27.123  0.00  0.00    +0.266 C 
ATOM     17  N   UNL A   1     -25.614   5.252  26.449  0.00  0.00    -0.200 NA
ATOM     18  C   UNL A   1     -25.026   6.479  26.963  0.00  0.00    +0.139 C 
ATOM     19  O   UNL A   1     -25.143   3.966  28.243  0.00  0.00    -0.268 OA
ENDBRANCH  10  16
BRANCH  13  20
ATOM     20  O   UNL A   1     -28.193  -0.208  24.477  0.00  0.00    -0.456 OA
BRANCH  20  21
ATOM     21  C   UNL A   1     -29.460   0.005  23.866  0.00  0.00    +0.243 C 
BRANCH  21  22
ATOM     22  C   UNL A   1     -30.065  -1.377  23.573  0.00  0.00    +0.229 C 
ATOM     23  O   UNL A   1     -30.729  -1.878  24.721  0.00  0.00    -0.216 OA
ENDBRANCH  21  22
ENDBRANCH  20  21
ENDBRANCH  13  20
ENDBRANCH   1   9
BRANCH   8  24
ATOM     24  O   UNL A   1     -22.360   2.593  25.713  0.00  0.00    -0.301 OA
ATOM     25  O   UNL A   1     -23.362   3.038  25.053  0.00  0.00    +0.028 OA
ENDBRANCH   8  24
BRANCH   2  26
ATOM     26  C   UNL A   1     -25.353  -0.100  28.976  0.00  0.00    +0.123 C 
BRANCH  26  28
ATOM     27  O   UNL A   1     -28.058   0.309  28.423  0.00  0.00    -0.269 OA
ATOM     28  N   UNL A   1     -26.185   1.009  29.450  0.00  0.00    -0.199 NA
ATOM     29  C   UNL A   1     -27.413   1.084  29.092  0.00  0.00    +0.291 C 
BRANCH  29  32
ATOM     30  N   UNL A   1     -28.863   1.590  30.839  0.00  0.00    -0.088 NA
ATOM     31  O   UNL A   1     -27.183   3.229  30.287  0.00  0.00    -0.192 OA
ATOM     32  C   UNL A   1     -28.122   2.263  29.771  0.00  0.00    +0.319 C 
ENDBRANCH  29  32
ENDBRANCH  26  28
BRANCH  26  33
ATOM     33  C   UNL A   1     -24.855  -1.012  30.143  0.00  0.00    +0.062 C 
BRANCH  33  34
ATOM     34  C   UNL A   1     -24.973  -2.505  29.788  0.00  0.00    -0.019 C 
ATOM     35  C   UNL A   1     -23.906  -3.173  29.146  0.00  0.00    -0.004 C 
ATOM     36  C   UNL A   1     -23.989  -4.549  28.853  0.00  0.00    -0.000 C 
ATOM     37  C   UNL A   1     -25.137  -5.280  29.205  0.00  0.00    -0.000 C 
ATOM     38  C   UNL A   1     -26.232  -4.611  29.784  0.00  0.00    -0.000 C 
ATOM     39  C   UNL A   1     -26.155  -3.232  30.065  0.00  0.00    -0.004 C 
ENDBRANCH  33  34
BRANCH  33  40
ATOM     40  C   UNL A   1     -25.387  -0.679  31.571  0.00  0.00    +0.079 C 
ATOM     41  C   UNL A   1     -25.189   0.773  32.028  0.00  0.00    +0.019 C 
ATOM     42  C   UNL A   1     -25.336   0.684  33.544  0.00  0.00    +0.020 C 
ATOM     43  C   UNL A   1     -24.829  -0.715  33.905  0.00  0.00    +0.089 C 
ATOM     44  N   UNL A   1     -24.758  -1.481  32.646  0.00  0.00    -0.219 NA
ENDBRANCH  33  40
ENDBRANCH  26  33
ENDBRANCH   2  26
TORSDOF 12
