MODEL 2056
MODEL 1
REMARK VINA RESULT:    -6.949      0.000      0.000
REMARK INTER + INTRA:         -12.768
REMARK INTER:                 -11.011
REMARK INTRA:                  -1.757
REMARK UNBOUND:                -1.757
REMARK  Name = No_2056-gen_results/8p0m/2024-11-27-11-27-31/
REMARK  10 active torsions:
REMARK  status: ('A' for Active; 'I' for Inactive)
REMARK    1  A    between atoms: C_2  and  C_20
REMARK    2  A    between atoms: C_3  and  C_7
REMARK    3  A    between atoms: C_6  and  C_17
REMARK    4  A    between atoms: C_7  and  C_8
REMARK    5  A    between atoms: C_7  and  C_23
REMARK    6  A    between atoms: C_12  and  C_14
REMARK    7  A    between atoms: C_14  and  C_16
REMARK    8  A    between atoms: C_16  and  N_27
REMARK    9  A    between atoms: N_27  and  C_28
REMARK   10  A    between atoms: C_28  and  C_29
REMARK                            x       y       z     vdW  Elec       q    Type
REMARK                         _______ _______ _______ _____ _____    ______ ____
ROOT
ATOM      1  C   UNL A   1     -24.134  -0.364  30.209  0.00  0.00    +0.140 C 
ENDROOT
BRANCH   1   4
ATOM      2  C   UNL A   1     -26.309  -1.641  30.482  0.00  0.00    +0.003 A 
ATOM      3  C   UNL A   1     -26.873  -2.509  30.286  0.00  0.00    +0.080 A 
ATOM      4  C   UNL A   1     -24.943  -1.660  30.041  0.00  0.00    -0.010 A 
ATOM      5  C   UNL A   1     -24.348  -2.755  29.560  0.00  0.00    +0.003 A 
ATOM      6  C   UNL A   1     -26.435  -3.809  29.797  0.00  0.00    +0.013 A 
ATOM      7  C   UNL A   1     -25.168  -3.850  29.407  0.00  0.00    +0.080 A 
BRANCH   7   8
ATOM      8  C   UNL A   1     -24.523  -5.151  28.897  0.00  0.00    +0.388 C 
ATOM      9  O   UNL A   1     -25.039  -6.183  28.974  0.00  0.00    -0.241 OA
ATOM     10  O   UNL A   1     -23.551  -4.936  28.069  0.00  0.00    -0.241 OA
ENDBRANCH   7   8
BRANCH   3  11
ATOM     11  C   UNL A   1     -28.469  -2.606  30.660  0.00  0.00    +0.388 C 
ATOM     12  O   UNL A   1     -28.713  -3.407  31.508  0.00  0.00    -0.241 OA
ATOM     13  O   UNL A   1     -29.329  -1.928  30.049  0.00  0.00    -0.241 OA
ENDBRANCH   3  11
ENDBRANCH   1   4
BRANCH   1  14
ATOM     14  C   UNL A   1     -23.971   0.460  28.997  0.00  0.00    -0.010 A 
ATOM     15  C   UNL A   1     -22.745   0.984  28.696  0.00  0.00    -0.004 A 
ATOM     16  C   UNL A   1     -22.507   1.589  27.463  0.00  0.00    -0.000 A 
ATOM     17  C   UNL A   1     -23.392   1.387  26.366  0.00  0.00    -0.000 A 
ATOM     18  C   UNL A   1     -24.602   0.702  26.657  0.00  0.00    -0.003 A 
ATOM     19  C   UNL A   1     -24.872   0.178  27.898  0.00  0.00    -0.004 A 
BRANCH  18  20
ATOM     20  C   UNL A   1     -25.510   0.501  25.500  0.00  0.00    -0.005 C 
ATOM     21  C   UNL A   1     -25.110  -0.068  24.449  0.00  0.00    -0.003 C 
BRANCH  20  22
ATOM     22  C   UNL A   1     -26.766   1.235  25.605  0.00  0.00    +0.116 C 
BRANCH  22  23
ATOM     23  N   UNL A   1     -26.834   2.448  25.414  0.00  0.00    -0.205 NA
BRANCH  23  24
ATOM     24  C   UNL A   1     -27.862   3.060  24.750  0.00  0.00    +0.161 C 
BRANCH  24  25
ATOM     25  C   UNL A   1     -29.083   2.435  24.503  0.00  0.00    +0.226 C 
ATOM     26  O   UNL A   1     -29.226   2.191  23.251  0.00  0.00    -0.287 OA
ENDBRANCH  24  25
ENDBRANCH  23  24
ENDBRANCH  22  23
ENDBRANCH  20  22
ENDBRANCH  18  20
ENDBRANCH   1  14
BRANCH   1  27
ATOM     27  C   UNL A   1     -23.602   0.005  31.409  0.00  0.00    +0.405 C 
ATOM     28  F   UNL A   1     -23.520   1.233  31.545  0.00  0.00    -0.169 F 
ATOM     29  F   UNL A   1     -24.300  -0.574  32.375  0.00  0.00    -0.169 F 
ATOM     30  F   UNL A   1     -22.365  -0.473  31.638  0.00  0.00    -0.169 F 
ENDBRANCH   1  27
TORSDOF 10
ENDMDL
ENDMDL
