REMARK  Name = outputs/IAG933/test6/raw/output_2057_IAG933_linker_design_.xyz
REMARK  8 active torsions:
REMARK  status: ('A' for Active; 'I' for Inactive)
REMARK    1  A    between atoms: C_1  and  C_2
REMARK    2  A    between atoms: C_1  and  C_8
REMARK    3  A    between atoms: C_1  and  C_29
REMARK    4  A    between atoms: C_13  and  C_41
REMARK    5  A    between atoms: C_14  and  C_15
REMARK    6  A    between atoms: C_21  and  O_22
REMARK    7  A    between atoms: O_22  and  C_23
REMARK    8  A    between atoms: C_23  and  C_24
REMARK                            x       y       z     vdW  Elec       q    Type
REMARK                         _______ _______ _______ _____ _____    ______ ____
ROOT
ATOM      1  O   UNL A   1     -29.882  -0.093  27.736  0.00  0.00    -0.344 OA
ATOM      2  C   UNL A   1     -24.275  -0.067  29.180  0.00  0.00    +0.087 C 
ATOM      3  C   UNL A   1     -29.058   0.494  28.654  0.00  0.00    +0.214 C 
ATOM      4  C   UNL A   1     -26.776   0.227  28.750  0.00  0.00    -0.071 C 
ATOM      5  C   UNL A   1     -22.554   1.093  27.997  0.00  0.00    +0.174 C 
ATOM      6  C   UNL A   1     -25.279   0.454  28.368  0.00  0.00    +0.022 C 
ATOM      7  C   UNL A   1     -28.072  -0.454  28.709  0.00  0.00    +0.180 C 
ATOM      8  F   UNL A   1     -22.047  -0.221  29.907  0.00  0.00    -0.206 F 
ATOM      9  O   UNL A   1     -28.398  -1.668  29.359  0.00  0.00    -0.467 OA
ATOM     10  C   UNL A   1     -22.951   0.251  29.036  0.00  0.00    +0.150 C 
ATOM     11  F   UNL A   1     -21.329   1.577  27.776  0.00  0.00    -0.201 F 
ATOM     12  C   UNL A   1     -23.468   1.569  27.097  0.00  0.00    +0.087 C 
ATOM     13  C   UNL A   1     -29.810  -1.686  29.616  0.00  0.00    +0.235 C 
ATOM     14  C   UNL A   1     -24.751   1.214  27.309  0.00  0.00    +0.019 C 
ATOM     15 CL   UNL A   1     -22.924   2.532  25.750  0.00  0.00    -0.080 Cl
ATOM     16  C   UNL A   1     -30.672  -0.814  28.740  0.00  0.00    +0.159 C 
ATOM     17  C   UNL A   1     -31.774  -0.030  29.453  0.00  0.00    +0.036 C 
ENDROOT
BRANCH  14  18
ATOM     18  C   UNL A   1     -25.688   1.614  26.461  0.00  0.00    +0.039 C 
ATOM     19  C   UNL A   1     -26.250   2.920  26.395  0.00  0.00    +0.077 C 
ATOM     20  C   UNL A   1     -27.438   3.091  25.645  0.00  0.00    +0.107 C 
ATOM     21  N   UNL A   1     -28.075   2.089  25.003  0.00  0.00    -0.208 NA
ATOM     22  C   UNL A   1     -27.543   0.849  25.079  0.00  0.00    +0.253 C 
ATOM     23  C   UNL A   1     -26.354   0.576  25.777  0.00  0.00    +0.193 C 
ATOM     24  F   UNL A   1     -25.860  -0.681  25.795  0.00  0.00    -0.199 F 
BRANCH  19  25
ATOM     25  C   UNL A   1     -25.642   4.093  27.123  0.00  0.00    +0.266 C 
ATOM     26  N   UNL A   1     -25.614   5.252  26.449  0.00  0.00    -0.200 NA
ATOM     27  C   UNL A   1     -25.026   6.479  26.963  0.00  0.00    +0.139 C 
ATOM     28  O   UNL A   1     -25.143   3.966  28.243  0.00  0.00    -0.268 OA
ENDBRANCH  19  25
BRANCH  22  29
ATOM     29  O   UNL A   1     -28.193  -0.208  24.477  0.00  0.00    -0.456 OA
BRANCH  29  30
ATOM     30  C   UNL A   1     -29.460   0.005  23.866  0.00  0.00    +0.243 C 
BRANCH  30  31
ATOM     31  C   UNL A   1     -30.065  -1.377  23.573  0.00  0.00    +0.229 C 
ATOM     32  O   UNL A   1     -30.729  -1.878  24.721  0.00  0.00    -0.216 OA
ENDBRANCH  30  31
ENDBRANCH  29  30
ENDBRANCH  22  29
ENDBRANCH  14  18
BRANCH   2  33
ATOM     33  C   UNL A   1     -24.855  -1.012  30.143  0.00  0.00    +0.049 C 
BRANCH  33  34
ATOM     34  C   UNL A   1     -24.973  -2.505  29.788  0.00  0.00    -0.020 C 
ATOM     35  C   UNL A   1     -23.906  -3.173  29.146  0.00  0.00    -0.004 C 
ATOM     36  C   UNL A   1     -23.989  -4.549  28.853  0.00  0.00    -0.000 C 
ATOM     37  C   UNL A   1     -25.137  -5.280  29.205  0.00  0.00    -0.000 C 
ATOM     38  C   UNL A   1     -26.232  -4.611  29.784  0.00  0.00    -0.000 C 
ATOM     39  C   UNL A   1     -26.155  -3.232  30.065  0.00  0.00    -0.004 C 
ENDBRANCH  33  34
BRANCH  33  40
ATOM     40  C   UNL A   1     -25.387  -0.679  31.571  0.00  0.00    +0.077 C 
ATOM     41  C   UNL A   1     -25.189   0.773  32.028  0.00  0.00    +0.019 C 
ATOM     42  C   UNL A   1     -25.336   0.684  33.544  0.00  0.00    +0.020 C 
ATOM     43  C   UNL A   1     -24.829  -0.715  33.905  0.00  0.00    +0.089 C 
ATOM     44  N   UNL A   1     -24.758  -1.481  32.646  0.00  0.00    -0.219 NA
ENDBRANCH  33  40
ENDBRANCH   2  33
TORSDOF 8
