MODEL 2059
MODEL 1
REMARK VINA RESULT:    -5.967      0.000      0.000
REMARK INTER + INTRA:          -8.053
REMARK INTER:                  -7.362
REMARK INTRA:                  -0.691
REMARK UNBOUND:                -0.691
REMARK  Name = No_2059-gen_results/8p0m/2024-11-27-11-27-31/
REMARK  4 active torsions:
REMARK  status: ('A' for Active; 'I' for Inactive)
REMARK    1  A    between atoms: C_1  and  C_2
REMARK    2  A    between atoms: C_1  and  C_8
REMARK    3  A    between atoms: C_5  and  C_10
REMARK    4  A    between atoms: C_9  and  C_13
REMARK                            x       y       z     vdW  Elec       q    Type
REMARK                         _______ _______ _______ _____ _____    ______ ____
ROOT
ATOM      1  C   UNL A   1     -29.767 -10.486  30.312  0.00  0.00    -0.018 A 
ATOM      2  C   UNL A   1     -29.879 -10.005  31.517  0.00  0.00    -0.004 A 
ATOM      3  C   UNL A   1     -29.088 -10.416  32.703  0.00  0.00    +0.006 A 
ATOM      4  C   UNL A   1     -28.150 -11.469  32.504  0.00  0.00    +0.080 A 
ATOM      5  C   UNL A   1     -28.071 -12.019  31.250  0.00  0.00    +0.006 A 
ATOM      6  C   UNL A   1     -28.823 -11.625  30.196  0.00  0.00    -0.004 A 
ENDROOT
BRANCH   4   7
ATOM      7  C   UNL A   1     -27.309 -11.928  33.583  0.00  0.00    +0.388 C 
ATOM      8  O   UNL A   1     -26.599 -12.865  33.581  0.00  0.00    -0.241 OA
ATOM      9  O   UNL A   1     -27.219 -11.035  34.614  0.00  0.00    -0.241 OA
ENDBRANCH   4   7
BRANCH   1  10
ATOM     10  C   UNL A   1     -30.397 -10.177  29.328  0.00  0.00    +0.052 C 
BRANCH  10  11
ATOM     11  C   UNL A   1     -31.281 -11.297  28.779  0.00  0.00    -0.021 C 
ATOM     12  C   UNL A   1     -31.182 -11.680  27.599  0.00  0.00    -0.005 C 
BRANCH  12  13
ATOM     13  C   UNL A   1     -30.203 -11.112  26.738  0.00  0.00    -0.005 C 
ATOM     14  C   UNL A   1     -29.474 -11.707  26.360  0.00  0.00    -0.026 C 
ATOM     15  C   UNL A   1     -29.165 -13.107  26.690  0.00  0.00    +0.031 C 
ENDBRANCH  12  13
ENDBRANCH  10  11
ENDBRANCH   1  10
TORSDOF 4
ENDMDL
ENDMDL
