REMARK  Name = outputs/IAG933/test6/raw/output_2059_IAG933_linker_design_.xyz
REMARK  11 active torsions:
REMARK  status: ('A' for Active; 'I' for Inactive)
REMARK    1  A    between atoms: C_1  and  C_2
REMARK    2  A    between atoms: C_1  and  C_8
REMARK    3  A    between atoms: C_9  and  C_33
REMARK    4  A    between atoms: C_14  and  C_15
REMARK    5  A    between atoms: C_15  and  O_18
REMARK    6  A    between atoms: O_18  and  C_44
REMARK    7  A    between atoms: C_21  and  O_22
REMARK    8  A    between atoms: O_22  and  C_23
REMARK    9  A    between atoms: C_23  and  C_24
REMARK   10  A    between atoms: C_37  and  C_44
REMARK   11  A    between atoms: C_41  and  C_44
REMARK                            x       y       z     vdW  Elec       q    Type
REMARK                         _______ _______ _______ _____ _____    ______ ____
ROOT
ATOM      1  C   UNL A   1     -24.624   2.763  28.867  0.00  0.00    +0.209 C 
ENDROOT
BRANCH   1   9
ATOM      2  C   UNL A   1     -26.598   3.122  30.112  0.00  0.00    +0.039 C 
ATOM      3  O   UNL A   1     -27.540   5.293  29.187  0.00  0.00    -0.221 OA
ATOM      4  O   UNL A   1     -28.267   3.236  31.812  0.00  0.00    -0.351 OA
ATOM      5  C   UNL A   1     -26.046   2.081  31.432  0.00  0.00    +0.035 C 
ATOM      6  C   UNL A   1     -27.524   1.982  31.790  0.00  0.00    +0.142 C 
ATOM      7  C   UNL A   1     -27.477   4.429  31.605  0.00  0.00    +0.175 C 
ATOM      8  C   UNL A   1     -26.806   4.654  30.163  0.00  0.00    +0.181 C 
ATOM      9  C   UNL A   1     -25.401   2.255  30.141  0.00  0.00    +0.051 C 
BRANCH   5  11
ATOM     10  C   UNL A   1     -25.387  -0.679  31.571  0.00  0.00    +0.077 C 
ATOM     11  C   UNL A   1     -25.189   0.773  32.028  0.00  0.00    +0.020 C 
ATOM     12  C   UNL A   1     -25.336   0.684  33.544  0.00  0.00    +0.020 C 
ATOM     13  C   UNL A   1     -24.829  -0.715  33.905  0.00  0.00    +0.089 C 
ATOM     14  N   UNL A   1     -24.758  -1.481  32.646  0.00  0.00    -0.219 NA
BRANCH  10  15
ATOM     15  C   UNL A   1     -24.855  -1.012  30.143  0.00  0.00    +0.044 C 
BRANCH  15  16
ATOM     16  C   UNL A   1     -24.973  -2.505  29.788  0.00  0.00    -0.021 C 
ATOM     17  C   UNL A   1     -23.906  -3.173  29.146  0.00  0.00    -0.004 C 
ATOM     18  C   UNL A   1     -23.989  -4.549  28.853  0.00  0.00    -0.000 C 
ATOM     19  C   UNL A   1     -25.137  -5.280  29.205  0.00  0.00    -0.000 C 
ATOM     20  C   UNL A   1     -26.232  -4.611  29.784  0.00  0.00    -0.000 C 
ATOM     21  C   UNL A   1     -26.155  -3.232  30.065  0.00  0.00    -0.004 C 
ENDBRANCH  15  16
ENDBRANCH  10  15
ENDBRANCH   5  11
ENDBRANCH   1   9
BRANCH   1  26
ATOM     22  C   UNL A   1     -21.297   1.319  27.598  0.00  0.00    +0.062 C 
ATOM     23  N   UNL A   1     -23.150   0.903  29.684  0.00  0.00    -0.240 NA
ATOM     24  F   UNL A   1     -20.032   0.381  27.946  0.00  0.00    -0.203 F 
ATOM     25  C   UNL A   1     -21.925   0.150  29.566  0.00  0.00    +0.128 C 
ATOM     26  C   UNL A   1     -23.453   1.923  28.766  0.00  0.00    +0.126 C 
ATOM     27  C   UNL A   1     -21.051   0.490  28.474  0.00  0.00    +0.161 C 
ATOM     28  C   UNL A   1     -22.640   2.000  27.651  0.00  0.00    +0.159 C 
ATOM     29  F   UNL A   1     -22.974   2.701  26.500  0.00  0.00    -0.203 F 
ENDBRANCH   1  26
BRANCH   1  30
ATOM     30  O   UNL A   1     -25.143   3.966  28.243  0.00  0.00    -0.458 OA
BRANCH  30  31
ATOM     31  C   UNL A   1     -25.642   4.093  27.123  0.00  0.00    +0.222 C 
ATOM     32  N   UNL A   1     -25.614   5.252  26.449  0.00  0.00    -0.236 NA
ATOM     33  C   UNL A   1     -25.026   6.479  26.963  0.00  0.00    +0.155 C 
BRANCH  31  35
ATOM     34  C   UNL A   1     -25.688   1.614  26.461  0.00  0.00    +0.041 C 
ATOM     35  C   UNL A   1     -26.250   2.920  26.395  0.00  0.00    +0.074 C 
ATOM     36  C   UNL A   1     -27.438   3.091  25.645  0.00  0.00    +0.107 C 
ATOM     37  N   UNL A   1     -28.075   2.089  25.003  0.00  0.00    -0.208 NA
ATOM     38  C   UNL A   1     -27.543   0.849  25.079  0.00  0.00    +0.253 C 
ATOM     39  C   UNL A   1     -26.354   0.576  25.777  0.00  0.00    +0.193 C 
ATOM     40  F   UNL A   1     -25.860  -0.681  25.795  0.00  0.00    -0.199 F 
BRANCH  38  41
ATOM     41  O   UNL A   1     -28.193  -0.208  24.477  0.00  0.00    -0.456 OA
BRANCH  41  42
ATOM     42  C   UNL A   1     -29.460   0.005  23.866  0.00  0.00    +0.243 C 
BRANCH  42  43
ATOM     43  C   UNL A   1     -30.065  -1.377  23.573  0.00  0.00    +0.229 C 
ATOM     44  O   UNL A   1     -30.729  -1.878  24.721  0.00  0.00    -0.216 OA
ENDBRANCH  42  43
ENDBRANCH  41  42
ENDBRANCH  38  41
ENDBRANCH  31  35
ENDBRANCH  30  31
ENDBRANCH   1  30
TORSDOF 11
