MODEL 2061
MODEL 1
REMARK VINA RESULT:    -4.434      0.000      0.000
REMARK INTER + INTRA:          -4.434
REMARK INTER:                  -4.434
REMARK INTRA:                   0.000
REMARK UNBOUND:                 0.000
REMARK  Name = No_2061-gen_results/8p0m/2024-11-27-11-27-31/
REMARK  0 active torsions:
REMARK  status: ('A' for Active; 'I' for Inactive)
REMARK                            x       y       z     vdW  Elec       q    Type
REMARK                         _______ _______ _______ _____ _____    ______ ____
ROOT
ATOM      1  C   UNL A   1     -23.913  -3.233  28.697  0.00  0.00    +0.001 A 
ATOM      2  C   UNL A   1     -24.836  -2.641  29.206  0.00  0.00    +0.007 A 
ATOM      3  C   UNL A   1     -25.965  -3.273  29.726  0.00  0.00    +0.035 A 
ATOM      4  C   UNL A   1     -26.085  -4.714  29.608  0.00  0.00    +0.007 A 
ATOM      5  C   UNL A   1     -25.007  -5.354  28.998  0.00  0.00    +0.001 A 
ATOM      6  C   UNL A   1     -23.981  -4.675  28.523  0.00  0.00    +0.000 A 
ATOM      7 BR   UNL A   1     -27.430  -2.401  30.538  0.00  0.00    -0.049 Br
ENDROOT
TORSDOF 0
ENDMDL
ENDMDL
