REMARK  Name = outputs/IAG933/test6/raw/output_2061_IAG933_linker_design_.xyz
REMARK  11 active torsions:
REMARK  status: ('A' for Active; 'I' for Inactive)
REMARK    1  A    between atoms: C_1  and  C_2
REMARK    2  A    between atoms: C_1  and  C_8
REMARK    3  A    between atoms: C_1  and  C_41
REMARK    4  A    between atoms: C_13  and  C_29
REMARK    5  A    between atoms: C_14  and  C_15
REMARK    6  A    between atoms: C_21  and  O_22
REMARK    7  A    between atoms: O_22  and  C_23
REMARK    8  A    between atoms: C_23  and  C_24
REMARK    9  A    between atoms: O_34  and  C_35
REMARK   10  A    between atoms: O_34  and  C_39
REMARK   11  A    between atoms: N_40  and  N_42
REMARK                            x       y       z     vdW  Elec       q    Type
REMARK                         _______ _______ _______ _____ _____    ______ ____
ROOT
ATOM      1  F   UNL A   1     -21.249   1.741  27.811  0.00  0.00    -0.200 F 
ATOM      2  C   UNL A   1     -24.541   1.270  27.309  0.00  0.00    +0.177 C 
ATOM      3  N   UNL A   1     -22.111   0.325  29.944  0.00  0.00    -0.125 NA
ATOM      4  C   UNL A   1     -23.426   1.442  26.835  0.00  0.00    +0.172 C 
ATOM      5  C   UNL A   1     -22.852   0.408  28.919  0.00  0.00    +0.130 C 
ATOM      6  C   UNL A   1     -22.452   1.163  27.758  0.00  0.00    +0.189 C 
ATOM      7  C   UNL A   1     -24.194   0.058  29.183  0.00  0.00    +0.070 C 
ATOM      8  N   UNL A   1     -25.114   0.861  28.529  0.00  0.00    -0.210 N 
ENDROOT
BRANCH   2   9
ATOM      9  C   UNL A   1     -25.688   1.614  26.461  0.00  0.00    +0.043 C 
ATOM     10  C   UNL A   1     -26.250   2.920  26.395  0.00  0.00    +0.075 C 
ATOM     11  C   UNL A   1     -27.438   3.091  25.645  0.00  0.00    +0.106 C 
ATOM     12  N   UNL A   1     -28.075   2.089  25.003  0.00  0.00    -0.208 NA
ATOM     13  C   UNL A   1     -27.543   0.849  25.079  0.00  0.00    +0.253 C 
ATOM     14  C   UNL A   1     -26.354   0.576  25.777  0.00  0.00    +0.191 C 
ATOM     15  F   UNL A   1     -25.860  -0.681  25.795  0.00  0.00    -0.200 F 
BRANCH  10  16
ATOM     16  C   UNL A   1     -25.642   4.093  27.123  0.00  0.00    +0.266 C 
ATOM     17  N   UNL A   1     -25.614   5.252  26.449  0.00  0.00    -0.200 NA
ATOM     18  C   UNL A   1     -25.026   6.479  26.963  0.00  0.00    +0.139 C 
ATOM     19  O   UNL A   1     -25.143   3.966  28.243  0.00  0.00    -0.268 OA
ENDBRANCH  10  16
BRANCH  13  20
ATOM     20  O   UNL A   1     -28.193  -0.208  24.477  0.00  0.00    -0.456 OA
BRANCH  20  21
ATOM     21  C   UNL A   1     -29.460   0.005  23.866  0.00  0.00    +0.243 C 
BRANCH  21  22
ATOM     22  C   UNL A   1     -30.065  -1.377  23.573  0.00  0.00    +0.229 C 
ATOM     23  O   UNL A   1     -30.729  -1.878  24.721  0.00  0.00    -0.216 OA
ENDBRANCH  21  22
ENDBRANCH  20  21
ENDBRANCH  13  20
ENDBRANCH   2   9
BRANCH   8  27
ATOM     24  C   UNL A   1     -27.445   0.434  29.235  0.00  0.00    +0.260 C 
ATOM     25  C   UNL A   1     -28.496   0.687  30.309  0.00  0.00    +0.098 C 
ATOM     26  O   UNL A   1     -27.655  -0.561  28.502  0.00  0.00    -0.272 OA
ATOM     27  N   UNL A   1     -26.440   1.255  29.071  0.00  0.00    -0.109 NA
ENDBRANCH   8  27
BRANCH   7  28
ATOM     28  C   UNL A   1     -24.855  -1.012  30.143  0.00  0.00    +0.077 C 
BRANCH  28  29
ATOM     29  C   UNL A   1     -24.973  -2.505  29.788  0.00  0.00    -0.016 C 
ATOM     30  C   UNL A   1     -23.906  -3.173  29.146  0.00  0.00    -0.004 C 
ATOM     31  C   UNL A   1     -23.989  -4.549  28.853  0.00  0.00    -0.000 C 
ATOM     32  C   UNL A   1     -25.137  -5.280  29.205  0.00  0.00    -0.000 C 
ATOM     33  C   UNL A   1     -26.232  -4.611  29.784  0.00  0.00    -0.000 C 
ATOM     34  C   UNL A   1     -26.155  -3.232  30.065  0.00  0.00    -0.004 C 
ENDBRANCH  28  29
BRANCH  28  35
ATOM     35  C   UNL A   1     -25.387  -0.679  31.571  0.00  0.00    +0.082 C 
ATOM     36  C   UNL A   1     -25.189   0.773  32.028  0.00  0.00    +0.020 C 
ATOM     37  C   UNL A   1     -25.336   0.684  33.544  0.00  0.00    +0.020 C 
ATOM     38  C   UNL A   1     -24.829  -0.715  33.905  0.00  0.00    +0.089 C 
ATOM     39  N   UNL A   1     -24.758  -1.481  32.646  0.00  0.00    -0.219 NA
ENDBRANCH  28  35
ENDBRANCH   7  28
BRANCH   4  40
ATOM     40  O   UNL A   1     -23.482   1.564  25.436  0.00  0.00    -0.445 OA
BRANCH  40  42
ATOM     41  F   UNL A   1     -21.317   2.008  25.339  0.00  0.00    -0.181 F 
ATOM     42  C   UNL A   1     -22.467   2.092  24.755  0.00  0.00    +0.403 C 
ENDBRANCH  40  42
ENDBRANCH   4  40
TORSDOF 11
