MODEL 2062
MODEL 1
REMARK VINA RESULT:    -7.211      0.000      0.000
REMARK INTER + INTRA:          -9.802
REMARK INTER:                  -8.476
REMARK INTRA:                  -1.326
REMARK UNBOUND:                -1.326
REMARK  Name = No_2062-gen_results/8p0m/2024-11-27-11-27-31/
REMARK  3 active torsions:
REMARK  status: ('A' for Active; 'I' for Inactive)
REMARK    1  A    between atoms: C_2  and  C_22
REMARK    2  A    between atoms: C_4  and  C_7
REMARK    3  A    between atoms: C_8  and  C_14
REMARK                            x       y       z     vdW  Elec       q    Type
REMARK                         _______ _______ _______ _____ _____    ______ ____
ROOT
ATOM      1  C   UNL A   1      -8.295   0.781  36.648  0.00  0.00    +0.027 C 
ATOM      2  C   UNL A   1      -8.810   1.904  35.938  0.00  0.00    +0.080 C 
ATOM      3  C   UNL A   1      -8.154   2.325  34.763  0.00  0.00    +0.009 C 
ATOM      4  C   UNL A   1      -6.980   1.651  34.345  0.00  0.00    +0.001 C 
ATOM      5  C   UNL A   1      -7.532  -0.098  35.652  0.00  0.00    +0.004 C 
ATOM      6  C   UNL A   1      -6.644   0.517  34.769  0.00  0.00    +0.000 C 
ATOM      7  C   UNL A   1      -7.106   1.379  37.620  0.00  0.00    +0.005 C 
ENDROOT
BRANCH   2   8
ATOM      8  C   UNL A   1      -9.847   2.800  36.481  0.00  0.00    +0.226 C 
ATOM      9  O   UNL A   1      -9.758   3.511  37.459  0.00  0.00    -0.275 OA
ATOM     10  N   UNL A   1     -11.062   2.720  35.837  0.00  0.00    -0.280 N 
ATOM     11  C   UNL A   1     -11.512   1.978  34.792  0.00  0.00    +0.093 C 
ATOM     12  C   UNL A   1     -12.859   1.901  34.586  0.00  0.00    +0.022 C 
ATOM     13  C   UNL A   1     -12.199   3.396  36.500  0.00  0.00    +0.093 C 
ATOM     14  C   UNL A   1     -13.480   3.333  36.143  0.00  0.00    +0.022 C 
ATOM     15  C   UNL A   1     -13.827   2.583  35.102  0.00  0.00    +0.004 C 
ENDBRANCH   2   8
BRANCH   1  19
ATOM     16  C   UNL A   1     -10.274  -0.666  39.614  0.00  0.00    +0.004 A 
ATOM     17  C   UNL A   1     -10.878  -1.310  39.038  0.00  0.00    +0.071 A 
ATOM     18  C   UNL A   1      -9.245   0.126  38.838  0.00  0.00    -0.004 A 
ATOM     19  C   UNL A   1      -9.250   0.071  37.428  0.00  0.00    -0.022 A 
ATOM     20  C   UNL A   1     -11.106  -1.526  37.592  0.00  0.00    +0.004 A 
ATOM     21  C   UNL A   1     -10.182  -0.808  36.845  0.00  0.00    -0.004 A 
BRANCH  17  22
ATOM     22  C   UNL A   1     -11.916  -2.203  39.869  0.00  0.00    +0.419 C 
ATOM     23  F   UNL A   1     -11.288  -2.745  40.655  0.00  0.00    -0.166 F 
ATOM     24  F   UNL A   1     -12.504  -3.089  39.027  0.00  0.00    -0.166 F 
ATOM     25  F   UNL A   1     -12.856  -1.496  40.413  0.00  0.00    -0.166 F 
ENDBRANCH  17  22
ENDBRANCH   1  19
TORSDOF 3
ENDMDL
ENDMDL
