MODEL 2064
MODEL 1
REMARK VINA RESULT:    -4.248      0.000      0.000
REMARK INTER + INTRA:          -4.248
REMARK INTER:                  -4.248
REMARK INTRA:                   0.000
REMARK UNBOUND:                 0.000
REMARK  Name = No_2064-gen_results/8p0m/2024-11-27-11-27-31/
REMARK  0 active torsions:
REMARK  status: ('A' for Active; 'I' for Inactive)
REMARK                            x       y       z     vdW  Elec       q    Type
REMARK                         _______ _______ _______ _____ _____    ______ ____
ROOT
ATOM      1 BR   UNL A   1     -24.252  -1.010  28.684  0.00  0.00    -0.049 Br
ATOM      2  C   UNL A   1     -24.671  -2.504  29.044  0.00  0.00    +0.035 A 
ATOM      3  C   UNL A   1     -25.858  -2.814  29.582  0.00  0.00    +0.007 A 
ATOM      4  C   UNL A   1     -26.284  -4.095  29.692  0.00  0.00    +0.001 A 
ATOM      5  C   UNL A   1     -25.419  -5.199  29.326  0.00  0.00    +0.000 A 
ATOM      6  C   UNL A   1     -24.242  -4.881  28.716  0.00  0.00    +0.001 A 
ATOM      7  C   UNL A   1     -23.930  -3.595  28.572  0.00  0.00    +0.007 A 
ENDROOT
TORSDOF 0
ENDMDL
ENDMDL
