MODEL 2065
MODEL 1
REMARK VINA RESULT:    -6.379      0.000      0.000
REMARK INTER + INTRA:          -6.963
REMARK INTER:                  -6.752
REMARK INTRA:                  -0.211
REMARK UNBOUND:                -0.211
REMARK  Name = No_2065-gen_results/8p0m/2024-11-27-11-27-31/
REMARK  1 active torsions:
REMARK  status: ('A' for Active; 'I' for Inactive)
REMARK    1  A    between atoms: C_3  and  C_7
REMARK                            x       y       z     vdW  Elec       q    Type
REMARK                         _______ _______ _______ _____ _____    ______ ____
ROOT
ATOM      1  C   UNL A   1     -23.900  -1.359  28.677  0.00  0.00    +0.058 A 
ATOM      2  C   UNL A   1     -24.327  -0.459  27.748  0.00  0.00    +0.279 A 
ATOM      3  N   UNL A   1     -23.525   0.585  27.503  0.00  0.00    -0.206 NA
ATOM      4  O   UNL A   1     -25.401  -0.621  27.048  0.00  0.00    -0.265 OA
ATOM      5  C   UNL A   1     -22.333   0.922  28.163  0.00  0.00    +0.102 A 
ATOM      6  C   UNL A   1     -22.632  -1.096  29.347  0.00  0.00    +0.006 A 
ATOM      7  C   UNL A   1     -21.953   0.003  29.022  0.00  0.00    +0.021 A 
ENDROOT
BRANCH   1  10
ATOM      8  C   UNL A   1     -26.511  -3.649  29.893  0.00  0.00    +0.000 A 
ATOM      9  C   UNL A   1     -25.916  -2.623  29.656  0.00  0.00    +0.000 A 
ATOM     10  C   UNL A   1     -24.681  -2.579  29.011  0.00  0.00    +0.005 A 
ATOM     11  C   UNL A   1     -24.029  -3.822  28.648  0.00  0.00    +0.000 A 
ATOM     12  C   UNL A   1     -24.778  -4.979  28.964  0.00  0.00    +0.000 A 
ATOM     13  C   UNL A   1     -25.932  -4.921  29.579  0.00  0.00    +0.000 A 
ENDBRANCH   1  10
TORSDOF 1
ENDMDL
ENDMDL
