MODEL 2066
MODEL 1
REMARK VINA RESULT:    -4.185      0.000      0.000
REMARK INTER + INTRA:          -4.185
REMARK INTER:                  -4.185
REMARK INTRA:                   0.000
REMARK UNBOUND:                 0.000
REMARK  Name = No_2066-gen_results/8p0m/2024-11-27-11-27-31/
REMARK  0 active torsions:
REMARK  status: ('A' for Active; 'I' for Inactive)
REMARK                            x       y       z     vdW  Elec       q    Type
REMARK                         _______ _______ _______ _____ _____    ______ ____
ROOT
ATOM      1  C   UNL A   1     -26.173  -4.818  29.662  0.00  0.00    +0.000 A 
ATOM      2  C   UNL A   1     -26.233  -3.770  29.763  0.00  0.00    +0.000 A 
ATOM      3  C   UNL A   1     -24.997  -5.344  28.951  0.00  0.00    +0.000 A 
ATOM      4  C   UNL A   1     -23.940  -4.474  28.555  0.00  0.00    +0.000 A 
ATOM      5  C   UNL A   1     -25.266  -2.670  29.500  0.00  0.00    +0.000 A 
ATOM      6  C   UNL A   1     -24.166  -3.118  28.831  0.00  0.00    +0.000 A 
ENDROOT
TORSDOF 0
ENDMDL
ENDMDL
