REMARK  Name = outputs/IAG933/test6/raw/output_2066_IAG933_linker_design_.xyz
REMARK  14 active torsions:
REMARK  status: ('A' for Active; 'I' for Inactive)
REMARK    1  A    between atoms: C_1  and  C_2
REMARK    2  A    between atoms: C_1  and  C_8
REMARK    3  A    between atoms: C_1  and  N_37
REMARK    4  A    between atoms: C_13  and  C_40
REMARK    5  A    between atoms: C_14  and  C_15
REMARK    6  A    between atoms: C_21  and  O_22
REMARK    7  A    between atoms: O_22  and  C_23
REMARK    8  A    between atoms: C_23  and  C_24
REMARK    9  A    between atoms: C_29  and  C_30
REMARK   10  A    between atoms: C_29  and  N_37
REMARK   11  A    between atoms: C_29  and  C_40
REMARK   12  A    between atoms: C_30  and  O_39
REMARK   13  A    between atoms: C_36  and  C_42
REMARK   14  A    between atoms: N_41  and  C_42
REMARK                            x       y       z     vdW  Elec       q    Type
REMARK                         _______ _______ _______ _____ _____    ______ ____
ROOT
ATOM      1  N   UNL A   1     -25.399   0.045  29.253  0.00  0.00    -0.251 N 
ATOM      2  C   UNL A   1     -26.755   0.595  29.324  0.00  0.00    +0.324 C 
ATOM      3  N   UNL A   1     -26.958   1.915  29.604  0.00  0.00    -0.186 NA
ATOM      4  O   UNL A   1     -27.627  -0.126  28.954  0.00  0.00    -0.251 OA
ENDROOT
BRANCH   1   5
ATOM      5  C   UNL A   1     -24.855  -1.012  30.143  0.00  0.00    +0.116 C 
BRANCH   5   6
ATOM      6  C   UNL A   1     -24.973  -2.505  29.788  0.00  0.00    -0.003 C 
ATOM      7  C   UNL A   1     -23.906  -3.173  29.146  0.00  0.00    -0.003 C 
ATOM      8  C   UNL A   1     -23.989  -4.549  28.853  0.00  0.00    -0.000 C 
ATOM      9  C   UNL A   1     -25.137  -5.280  29.205  0.00  0.00    -0.000 C 
ATOM     10  C   UNL A   1     -26.232  -4.611  29.784  0.00  0.00    -0.000 C 
ATOM     11  C   UNL A   1     -26.155  -3.232  30.065  0.00  0.00    -0.003 C 
ENDBRANCH   5   6
BRANCH   5  12
ATOM     12  C   UNL A   1     -25.387  -0.679  31.571  0.00  0.00    +0.095 C 
ATOM     13  C   UNL A   1     -25.189   0.773  32.028  0.00  0.00    +0.021 C 
ATOM     14  C   UNL A   1     -25.336   0.684  33.544  0.00  0.00    +0.020 C 
ATOM     15  C   UNL A   1     -24.829  -0.715  33.905  0.00  0.00    +0.089 C 
ATOM     16  N   UNL A   1     -24.758  -1.481  32.646  0.00  0.00    -0.217 NA
ENDBRANCH   5  12
ENDBRANCH   1   5
BRANCH   1  17
ATOM     17  C   UNL A   1     -24.516   1.117  28.674  0.00  0.00    +0.180 C 
BRANCH  17  18
ATOM     18  C   UNL A   1     -22.990   1.016  28.809  0.00  0.00    +0.336 C 
ATOM     19  O   UNL A   1     -22.438   0.295  29.565  0.00  0.00    -0.248 OA
BRANCH  18  21
ATOM     20  C   UNL A   1     -20.844   1.631  27.818  0.00  0.00    +0.256 C 
ATOM     21  O   UNL A   1     -22.250   1.922  27.975  0.00  0.00    -0.443 OA
ENDBRANCH  18  21
ENDBRANCH  17  18
BRANCH  17  22
ATOM     22  C   UNL A   1     -24.512   1.303  27.159  0.00  0.00    +0.060 C 
BRANCH  22  23
ATOM     23  C   UNL A   1     -25.688   1.614  26.461  0.00  0.00    +0.018 C 
ATOM     24  C   UNL A   1     -26.250   2.920  26.395  0.00  0.00    +0.073 C 
ATOM     25  C   UNL A   1     -27.438   3.091  25.645  0.00  0.00    +0.106 C 
ATOM     26  N   UNL A   1     -28.075   2.089  25.003  0.00  0.00    -0.208 NA
ATOM     27  C   UNL A   1     -27.543   0.849  25.079  0.00  0.00    +0.253 C 
ATOM     28  C   UNL A   1     -26.354   0.576  25.777  0.00  0.00    +0.189 C 
ATOM     29  F   UNL A   1     -25.860  -0.681  25.795  0.00  0.00    -0.200 F 
BRANCH  24  30
ATOM     30  C   UNL A   1     -25.642   4.093  27.123  0.00  0.00    +0.266 C 
ATOM     31  N   UNL A   1     -25.614   5.252  26.449  0.00  0.00    -0.200 NA
ATOM     32  C   UNL A   1     -25.026   6.479  26.963  0.00  0.00    +0.139 C 
ATOM     33  O   UNL A   1     -25.143   3.966  28.243  0.00  0.00    -0.268 OA
ENDBRANCH  24  30
BRANCH  27  34
ATOM     34  O   UNL A   1     -28.193  -0.208  24.477  0.00  0.00    -0.456 OA
BRANCH  34  35
ATOM     35  C   UNL A   1     -29.460   0.005  23.866  0.00  0.00    +0.243 C 
BRANCH  35  36
ATOM     36  C   UNL A   1     -30.065  -1.377  23.573  0.00  0.00    +0.229 C 
ATOM     37  O   UNL A   1     -30.729  -1.878  24.721  0.00  0.00    -0.216 OA
ENDBRANCH  35  36
ENDBRANCH  34  35
ENDBRANCH  27  34
ENDBRANCH  22  23
ENDBRANCH  17  22
ENDBRANCH   1  17
BRANCH   3  38
ATOM     38  C   UNL A   1     -28.214   2.623  29.844  0.00  0.00    +0.146 C 
BRANCH  38  44
ATOM     39  O   UNL A   1     -30.060   4.171  32.807  0.00  0.00    -0.251 OA
ATOM     40  O   UNL A   1     -26.133   4.743  30.637  0.00  0.00    -0.275 OA
ATOM     41  C   UNL A   1     -28.924   3.594  32.607  0.00  0.00    +0.438 C 
ATOM     42  C   UNL A   1     -27.119   5.033  31.337  0.00  0.00    +0.232 C 
ATOM     43  N   UNL A   1     -28.077   4.085  31.732  0.00  0.00    -0.202 N 
ATOM     44  C   UNL A   1     -28.355   2.810  31.416  0.00  0.00    +0.207 C 
ATOM     45  C   UNL A   1     -27.139   6.473  31.683  0.00  0.00    +0.095 C 
ATOM     46  O   UNL A   1     -28.646   2.847  33.649  0.00  0.00    -0.251 OA
ENDBRANCH  38  44
ENDBRANCH   3  38
TORSDOF 14
