REMARK  Name = outputs/IAG933/test6/raw/output_2067_IAG933_linker_design_.xyz
REMARK  14 active torsions:
REMARK  status: ('A' for Active; 'I' for Inactive)
REMARK    1  A    between atoms: C_1  and  C_2
REMARK    2  A    between atoms: C_1  and  C_8
REMARK    3  A    between atoms: C_1  and  C_34
REMARK    4  A    between atoms: C_14  and  C_15
REMARK    5  A    between atoms: C_15  and  O_18
REMARK    6  A    between atoms: O_18  and  C_32
REMARK    7  A    between atoms: C_21  and  O_22
REMARK    8  A    between atoms: O_22  and  C_23
REMARK    9  A    between atoms: C_23  and  C_24
REMARK   10  A    between atoms: N_28  and  C_36
REMARK   11  A    between atoms: C_30  and  O_43
REMARK   12  A    between atoms: C_31  and  O_43
REMARK   13  A    between atoms: C_34  and  C_41
REMARK   14  A    between atoms: C_34  and  C_44
REMARK                            x       y       z     vdW  Elec       q    Type
REMARK                         _______ _______ _______ _____ _____    ______ ____
ROOT
ATOM      1  C   UNL A   1     -25.889   4.782  30.466  0.00  0.00    +0.239 C 
ATOM      2  C   UNL A   1     -25.630   3.667  29.526  0.00  0.00    +0.232 C 
ATOM      3  C   UNL A   1     -27.362   5.131  30.321  0.00  0.00    +0.190 C 
ATOM      4  O   UNL A   1     -28.134   4.096  30.686  0.00  0.00    -0.348 OA
ATOM      5  C   UNL A   1     -26.665   2.683  29.532  0.00  0.00    +0.168 C 
ATOM      6  C   UNL A   1     -27.679   2.969  30.524  0.00  0.00    +0.168 C 
ENDROOT
BRANCH   5   7
ATOM      7  N   UNL A   1     -26.774   1.595  28.784  0.00  0.00    -0.200 NA
ATOM      8  O   UNL A   1     -27.378  -0.552  28.745  0.00  0.00    -0.272 OA
ATOM      9  C   UNL A   1     -26.497   0.323  28.830  0.00  0.00    +0.254 C 
BRANCH   9  10
ATOM     10  C   UNL A   1     -25.012  -0.069  29.018  0.00  0.00    +0.147 C 
BRANCH  10  12
ATOM     11  C   UNL A   1     -22.718   1.015  28.196  0.00  0.00    -0.089 C 
ATOM     12  C   UNL A   1     -23.799   0.526  28.526  0.00  0.00    -0.082 C 
ATOM     13  C   UNL A   1     -21.389   1.494  27.898  0.00  0.00    +0.090 C 
ENDBRANCH  10  12
BRANCH  10  14
ATOM     14  C   UNL A   1     -24.855  -1.012  30.143  0.00  0.00    +0.059 C 
BRANCH  14  15
ATOM     15  C   UNL A   1     -24.973  -2.505  29.788  0.00  0.00    -0.020 C 
ATOM     16  C   UNL A   1     -23.906  -3.173  29.146  0.00  0.00    -0.004 C 
ATOM     17  C   UNL A   1     -23.989  -4.549  28.853  0.00  0.00    -0.000 C 
ATOM     18  C   UNL A   1     -25.137  -5.280  29.205  0.00  0.00    -0.000 C 
ATOM     19  C   UNL A   1     -26.232  -4.611  29.784  0.00  0.00    -0.000 C 
ATOM     20  C   UNL A   1     -26.155  -3.232  30.065  0.00  0.00    -0.004 C 
ENDBRANCH  14  15
BRANCH  14  21
ATOM     21  C   UNL A   1     -25.387  -0.679  31.571  0.00  0.00    +0.078 C 
ATOM     22  C   UNL A   1     -25.189   0.773  32.028  0.00  0.00    +0.019 C 
ATOM     23  C   UNL A   1     -25.336   0.684  33.544  0.00  0.00    +0.020 C 
ATOM     24  C   UNL A   1     -24.829  -0.715  33.905  0.00  0.00    +0.089 C 
ATOM     25  N   UNL A   1     -24.758  -1.481  32.646  0.00  0.00    -0.219 NA
ENDBRANCH  14  21
ENDBRANCH  10  14
ENDBRANCH   9  10
ENDBRANCH   5   7
BRANCH   2  26
ATOM     26  O   UNL A   1     -25.143   3.966  28.243  0.00  0.00    -0.458 OA
BRANCH  26  27
ATOM     27  C   UNL A   1     -25.642   4.093  27.123  0.00  0.00    +0.222 C 
ATOM     28  N   UNL A   1     -25.614   5.252  26.449  0.00  0.00    -0.236 NA
ATOM     29  C   UNL A   1     -25.026   6.479  26.963  0.00  0.00    +0.155 C 
BRANCH  27  31
ATOM     30  C   UNL A   1     -25.688   1.614  26.461  0.00  0.00    +0.041 C 
ATOM     31  C   UNL A   1     -26.250   2.920  26.395  0.00  0.00    +0.074 C 
ATOM     32  C   UNL A   1     -27.438   3.091  25.645  0.00  0.00    +0.107 C 
ATOM     33  N   UNL A   1     -28.075   2.089  25.003  0.00  0.00    -0.208 NA
ATOM     34  C   UNL A   1     -27.543   0.849  25.079  0.00  0.00    +0.253 C 
ATOM     35  C   UNL A   1     -26.354   0.576  25.777  0.00  0.00    +0.193 C 
ATOM     36  F   UNL A   1     -25.860  -0.681  25.795  0.00  0.00    -0.199 F 
BRANCH  34  37
ATOM     37  O   UNL A   1     -28.193  -0.208  24.477  0.00  0.00    -0.456 OA
BRANCH  37  38
ATOM     38  C   UNL A   1     -29.460   0.005  23.866  0.00  0.00    +0.243 C 
BRANCH  38  39
ATOM     39  C   UNL A   1     -30.065  -1.377  23.573  0.00  0.00    +0.229 C 
ATOM     40  O   UNL A   1     -30.729  -1.878  24.721  0.00  0.00    -0.216 OA
ENDBRANCH  38  39
ENDBRANCH  37  38
ENDBRANCH  34  37
ENDBRANCH  27  31
ENDBRANCH  26  27
ENDBRANCH   2  26
BRANCH   1  41
ATOM     41  O   UNL A   1     -25.616   4.387  31.907  0.00  0.00    -0.446 OA
BRANCH  41  43
ATOM     42  O   UNL A   1     -24.534   6.463  32.232  0.00  0.00    -0.250 OA
ATOM     43  C   UNL A   1     -24.755   5.171  32.662  0.00  0.00    +0.318 C 
ATOM     44  C   UNL A   1     -24.881   5.064  34.221  0.00  0.00    +0.121 C 
ENDBRANCH  41  43
ENDBRANCH   1  41
TORSDOF 14
