MODEL 2067
MODEL 1
REMARK VINA RESULT:    -7.214      0.000      0.000
REMARK INTER + INTRA:          -8.575
REMARK INTER:                  -8.058
REMARK INTRA:                  -0.517
REMARK UNBOUND:                -0.517
REMARK  Name = No_2067-gen_results/8p0m/2024-11-27-11-27-31/
REMARK  2 active torsions:
REMARK  status: ('A' for Active; 'I' for Inactive)
REMARK    1  A    between atoms: C_11  and  C_12
REMARK    2  A    between atoms: C_12  and  C_13
REMARK                            x       y       z     vdW  Elec       q    Type
REMARK                         _______ _______ _______ _____ _____    ______ ____
ROOT
ATOM      1  C   UNL A   1     -30.559 -10.696  26.865  0.00  0.00    +0.003 A 
ATOM      2  C   UNL A   1     -30.356 -10.916  28.036  0.00  0.00    +0.035 A 
ATOM      3  C   UNL A   1     -29.763 -12.103  28.452  0.00  0.00    -0.015 A 
ATOM      4  C   UNL A   1     -29.189 -12.907  27.603  0.00  0.00    -0.004 A 
ATOM      5  C   UNL A   1     -29.423 -12.690  26.202  0.00  0.00    -0.000 A 
ATOM      6  C   UNL A   1     -30.111 -11.620  25.864  0.00  0.00    +0.000 A 
ATOM      7  C   UNL A   1     -30.884 -10.050  29.154  0.00  0.00    +0.195 C 
ATOM      8  C   UNL A   1     -30.246  -9.855  30.207  0.00  0.00    +0.035 A 
ATOM      9  C   UNL A   1     -29.418 -10.774  30.642  0.00  0.00    -0.018 A 
ATOM     10  C   UNL A   1     -28.988 -11.895  29.777  0.00  0.00    +0.052 C 
ATOM     11  C   UNL A   1     -28.802 -10.903  32.023  0.00  0.00    -0.015 A 
ATOM     12  C   UNL A   1     -29.269  -9.900  32.792  0.00  0.00    -0.004 A 
ATOM     13  C   UNL A   1     -30.626  -8.887  31.166  0.00  0.00    +0.003 A 
ATOM     14  C   UNL A   1     -30.073  -8.804  32.457  0.00  0.00    -0.000 A 
ATOM     15  O   UNL A   1     -31.953  -9.353  28.736  0.00  0.00    -0.287 OA
ENDROOT
BRANCH  11  16
ATOM     16  C   UNL A   1     -28.699 -12.108  32.706  0.00  0.00    +0.125 C 
ATOM     17  C   UNL A   1     -29.805 -12.779  33.271  0.00  0.00    +0.017 C 
BRANCH  16  18
ATOM     18  C   UNL A   1     -27.418 -12.414  33.206  0.00  0.00    +0.368 C 
ATOM     19  O   UNL A   1     -27.183 -12.402  34.521  0.00  0.00    -0.245 OA
ATOM     20  O   UNL A   1     -26.430 -12.770  32.502  0.00  0.00    -0.245 OA
ENDBRANCH  16  18
ENDBRANCH  11  16
TORSDOF 2
ENDMDL
ENDMDL
