MODEL 2068
MODEL 1
REMARK VINA RESULT:    -5.061      0.000      0.000
REMARK INTER + INTRA:          -5.518
REMARK INTER:                  -5.357
REMARK INTRA:                  -0.161
REMARK UNBOUND:                -0.161
REMARK  Name = No_2068-gen_results/8p0m/2024-11-27-11-27-31/
REMARK  1 active torsions:
REMARK  status: ('A' for Active; 'I' for Inactive)
REMARK    1  A    between atoms: C_6  and  C_8
REMARK                            x       y       z     vdW  Elec       q    Type
REMARK                         _______ _______ _______ _____ _____    ______ ____
ROOT
ATOM      1  C   UNL A   1     -22.351   2.176  26.888  0.00  0.00    +0.011 A 
ATOM      2  C   UNL A   1     -23.551   2.238  26.749  0.00  0.00    +0.058 A 
ATOM      3  C   UNL A   1     -24.426   1.367  27.312  0.00  0.00    +0.011 A 
ATOM      4  C   UNL A   1     -23.914   0.324  28.106  0.00  0.00    +0.005 A 
ATOM      5  C   UNL A   1     -21.765   1.193  27.764  0.00  0.00    +0.005 A 
ATOM      6  C   UNL A   1     -22.599   0.276  28.330  0.00  0.00    +0.071 A 
ATOM      7 CL   UNL A   1     -24.288   3.495  25.795  0.00  0.00    -0.082 Cl
ENDROOT
BRANCH   6   8
ATOM      8  C   UNL A   1     -22.003  -0.783  29.200  0.00  0.00    +0.419 C 
ATOM      9  F   UNL A   1     -22.005  -0.574  30.413  0.00  0.00    -0.166 F 
ATOM     10  F   UNL A   1     -20.708  -1.002  28.803  0.00  0.00    -0.166 F 
ATOM     11  F   UNL A   1     -22.737  -1.925  28.916  0.00  0.00    -0.166 F 
ENDBRANCH   6   8
TORSDOF 1
ENDMDL
ENDMDL
