MODEL 2069
MODEL 1
REMARK VINA RESULT:    -7.283      0.000      0.000
REMARK INTER + INTRA:         -14.989
REMARK INTER:                 -10.689
REMARK INTRA:                  -4.300
REMARK UNBOUND:                -4.300
REMARK  Name = No_2069-gen_results/8p0m/2024-11-27-11-27-31/
REMARK  8 active torsions:
REMARK  status: ('A' for Active; 'I' for Inactive)
REMARK    1  A    between atoms: C_4  and  C_11
REMARK    2  A    between atoms: C_5  and  C_8
REMARK    3  A    between atoms: C_8  and  O_10
REMARK    4  A    between atoms: O_10  and  C_20
REMARK    5  A    between atoms: C_11  and  C_12
REMARK    6  A    between atoms: C_21  and  C_22
REMARK    7  A    between atoms: C_22  and  N_23
REMARK    8  A    between atoms: C_24  and  C_33
REMARK                            x       y       z     vdW  Elec       q    Type
REMARK                         _______ _______ _______ _____ _____    ______ ____
ROOT
ATOM      1  C   UNL A   1     -26.205   0.954  25.135  0.00  0.00    +0.348 C 
ATOM      2  O   UNL A   1     -26.148   0.374  24.276  0.00  0.00    -0.244 OA
ENDROOT
BRANCH   1   7
ATOM      3  C   UNL A   1     -23.132   1.199  27.082  0.00  0.00    +0.036 A 
ATOM      4  C   UNL A   1     -23.886   1.308  26.353  0.00  0.00    +0.147 A 
ATOM      5  C   UNL A   1     -23.385   0.330  28.166  0.00  0.00    +0.033 A 
ATOM      6  C   UNL A   1     -24.578  -0.353  28.292  0.00  0.00    -0.011 A 
ATOM      7  C   UNL A   1     -25.228   0.703  26.249  0.00  0.00    +0.103 A 
ATOM      8  C   UNL A   1     -25.511  -0.137  27.269  0.00  0.00    +0.005 A 
ATOM      9 BR   UNL A   1     -22.096  -0.009  29.514  0.00  0.00    -0.049 Br
ATOM     10  F   UNL A   1     -23.629   2.177  25.223  0.00  0.00    -0.204 F 
BRANCH   6  11
ATOM     11  C   UNL A   1     -24.622  -1.287  29.397  0.00  0.00    +0.055 C 
BRANCH  11  12
ATOM     12  C   UNL A   1     -24.879  -2.694  29.086  0.00  0.00    +0.010 A 
ATOM     13  C   UNL A   1     -25.923  -3.390  29.826  0.00  0.00    +0.137 A 
ATOM     14  C   UNL A   1     -26.040  -4.867  29.639  0.00  0.00    +0.029 A 
ATOM     15  C   UNL A   1     -23.923  -3.681  28.556  0.00  0.00    -0.002 A 
ATOM     16  C   UNL A   1     -24.012  -5.024  28.505  0.00  0.00    -0.000 A 
ATOM     17  C   UNL A   1     -25.161  -5.619  29.095  0.00  0.00    +0.002 A 
ATOM     18  F   UNL A   1     -26.882  -2.698  30.345  0.00  0.00    -0.204 F 
ENDBRANCH  11  12
ENDBRANCH   6  11
ENDBRANCH   1   7
BRANCH   1  19
ATOM     19  O   UNL A   1     -26.766   2.211  25.266  0.00  0.00    -0.418 OA
BRANCH  19  20
ATOM     20  C   UNL A   1     -28.122   2.302  25.175  0.00  0.00    +0.180 C 
ATOM     21  C   UNL A   1     -28.659   2.180  26.477  0.00  0.00    +0.036 C 
BRANCH  21  22
ATOM     22  C   UNL A   1     -28.537   3.187  27.322  0.00  0.00    +0.121 C 
BRANCH  22  23
ATOM     23  N   UNL A   1     -27.921   2.933  28.505  0.00  0.00    -0.304 N 
ATOM     24  C   UNL A   1     -26.593   3.057  28.756  0.00  0.00    +0.040 C 
ATOM     25  C   UNL A   1     -26.121   2.520  30.020  0.00  0.00    -0.025 C 
ATOM     26  C   UNL A   1     -27.255   1.866  30.611  0.00  0.00    +0.040 C 
ATOM     27  C   UNL A   1     -28.410   2.060  29.542  0.00  0.00    +0.095 C 
ATOM     28  C   UNL A   1     -27.045   0.421  30.993  0.00  0.00    +0.010 C 
ATOM     29  C   UNL A   1     -26.479   0.298  32.335  0.00  0.00    +0.026 C 
ATOM     30  C   UNL A   1     -25.513   1.083  32.684  0.00  0.00    -0.030 C 
ATOM     31  C   UNL A   1     -25.223   2.090  32.249  0.00  0.00    -0.026 C 
ATOM     32  C   UNL A   1     -25.024   2.734  30.825  0.00  0.00    +0.049 C 
BRANCH  24  33
ATOM     33  C   UNL A   1     -25.654   3.859  27.993  0.00  0.00    +0.009 C 
ATOM     34  C   UNL A   1     -25.741   5.255  28.100  0.00  0.00    -0.025 C 
ATOM     35  C   UNL A   1     -24.841   6.038  27.409  0.00  0.00    +0.031 C 
ENDBRANCH  24  33
ENDBRANCH  22  23
ENDBRANCH  21  22
ENDBRANCH  19  20
ENDBRANCH   1  19
TORSDOF 8
ENDMDL
ENDMDL
