REMARK  Name = outputs/IAG933/test6/raw/output_207_IAG933_linker_design_.xyz
REMARK  16 active torsions:
REMARK  status: ('A' for Active; 'I' for Inactive)
REMARK    1  A    between atoms: C_1  and  C_2
REMARK    2  A    between atoms: C_1  and  C_8
REMARK    3  A    between atoms: C_1  and  C_41
REMARK    4  A    between atoms: C_13  and  C_37
REMARK    5  A    between atoms: C_14  and  C_15
REMARK    6  A    between atoms: C_21  and  O_22
REMARK    7  A    between atoms: O_22  and  C_23
REMARK    8  A    between atoms: C_23  and  C_24
REMARK    9  A    between atoms: N_29  and  C_41
REMARK   10  A    between atoms: C_30  and  C_32
REMARK   11  A    between atoms: C_30  and  C_36
REMARK   12  A    between atoms: C_30  and  O_38
REMARK   13  A    between atoms: O_35  and  C_36
REMARK   14  A    between atoms: O_35  and  C_44
REMARK   15  A    between atoms: C_41  and  C_44
REMARK   16  A    between atoms: C_42  and  C_43
REMARK                            x       y       z     vdW  Elec       q    Type
REMARK                         _______ _______ _______ _____ _____    ______ ____
ROOT
ATOM      1  C   UNL A   1     -25.193  -0.187  28.955  0.00  0.00    +0.109 C 
ENDROOT
BRANCH   1   3
ATOM      2  C   UNL A   1     -22.839   0.683  28.765  0.00  0.00    +0.220 C 
ATOM      3  N   UNL A   1     -24.229   0.569  28.330  0.00  0.00    -0.240 NA
ATOM      4  C   UNL A   1     -23.108   1.595  26.497  0.00  0.00    +0.164 C 
ATOM      5  C   UNL A   1     -24.296   1.300  27.056  0.00  0.00    +0.115 C 
ATOM      6  O   UNL A   1     -22.256   1.353  27.526  0.00  0.00    -0.336 OA
BRANCH   5   7
ATOM      7  C   UNL A   1     -25.688   1.614  26.461  0.00  0.00    +0.033 C 
ATOM      8  C   UNL A   1     -26.250   2.920  26.395  0.00  0.00    +0.074 C 
ATOM      9  C   UNL A   1     -27.438   3.091  25.645  0.00  0.00    +0.106 C 
ATOM     10  N   UNL A   1     -28.075   2.089  25.003  0.00  0.00    -0.208 NA
ATOM     11  C   UNL A   1     -27.543   0.849  25.079  0.00  0.00    +0.253 C 
ATOM     12  C   UNL A   1     -26.354   0.576  25.777  0.00  0.00    +0.190 C 
ATOM     13  F   UNL A   1     -25.860  -0.681  25.795  0.00  0.00    -0.200 F 
BRANCH   8  14
ATOM     14  C   UNL A   1     -25.642   4.093  27.123  0.00  0.00    +0.266 C 
ATOM     15  N   UNL A   1     -25.614   5.252  26.449  0.00  0.00    -0.200 NA
ATOM     16  C   UNL A   1     -25.026   6.479  26.963  0.00  0.00    +0.139 C 
ATOM     17  O   UNL A   1     -25.143   3.966  28.243  0.00  0.00    -0.268 OA
ENDBRANCH   8  14
BRANCH  11  18
ATOM     18  O   UNL A   1     -28.193  -0.208  24.477  0.00  0.00    -0.456 OA
BRANCH  18  19
ATOM     19  C   UNL A   1     -29.460   0.005  23.866  0.00  0.00    +0.243 C 
BRANCH  19  20
ATOM     20  C   UNL A   1     -30.065  -1.377  23.573  0.00  0.00    +0.229 C 
ATOM     21  O   UNL A   1     -30.729  -1.878  24.721  0.00  0.00    -0.216 OA
ENDBRANCH  19  20
ENDBRANCH  18  19
ENDBRANCH  11  18
ENDBRANCH   5   7
ENDBRANCH   1   3
BRANCH   1  22
ATOM     22  C   UNL A   1     -24.855  -1.012  30.143  0.00  0.00    +0.057 C 
BRANCH  22  23
ATOM     23  C   UNL A   1     -24.973  -2.505  29.788  0.00  0.00    -0.020 C 
ATOM     24  C   UNL A   1     -23.906  -3.173  29.146  0.00  0.00    -0.004 C 
ATOM     25  C   UNL A   1     -23.989  -4.549  28.853  0.00  0.00    -0.000 C 
ATOM     26  C   UNL A   1     -25.137  -5.280  29.205  0.00  0.00    -0.000 C 
ATOM     27  C   UNL A   1     -26.232  -4.611  29.784  0.00  0.00    -0.000 C 
ATOM     28  C   UNL A   1     -26.155  -3.232  30.065  0.00  0.00    -0.004 C 
ENDBRANCH  22  23
BRANCH  22  29
ATOM     29  C   UNL A   1     -25.387  -0.679  31.571  0.00  0.00    +0.078 C 
ATOM     30  C   UNL A   1     -25.189   0.773  32.028  0.00  0.00    +0.019 C 
ATOM     31  C   UNL A   1     -25.336   0.684  33.544  0.00  0.00    +0.020 C 
ATOM     32  C   UNL A   1     -24.829  -0.715  33.905  0.00  0.00    +0.089 C 
ATOM     33  N   UNL A   1     -24.758  -1.481  32.646  0.00  0.00    -0.219 NA
ENDBRANCH  22  29
ENDBRANCH   1  22
BRANCH   1  34
ATOM     34  C   UNL A   1     -26.444  -0.190  28.495  0.00  0.00    +0.225 C 
BRANCH  34  35
ATOM     35  O   UNL A   1     -27.441   0.619  28.744  0.00  0.00    -0.445 OA
BRANCH  35  36
ATOM     36  C   UNL A   1     -28.423   0.060  29.216  0.00  0.00    +0.349 C 
ATOM     37  O   UNL A   1     -28.520  -1.175  29.401  0.00  0.00    -0.247 OA
BRANCH  36  38
ATOM     38  C   UNL A   1     -29.544   0.962  29.466  0.00  0.00    +0.239 C 
BRANCH  38  40
ATOM     39  O   UNL A   1     -30.421  -0.065  27.209  0.00  0.00    -0.290 OA
ATOM     40  C   UNL A   1     -30.809   0.384  29.433  0.00  0.00    +0.053 C 
ATOM     41  C   UNL A   1     -31.201  -0.180  28.281  0.00  0.00    +0.191 C 
BRANCH  41  43
ATOM     42  N   UNL A   1     -33.179  -1.232  29.411  0.00  0.00    -0.123 NA
ATOM     43  C   UNL A   1     -32.601  -0.734  28.123  0.00  0.00    +0.178 C 
ENDBRANCH  41  43
ENDBRANCH  38  40
BRANCH  38  44
ATOM     44  O   UNL A   1     -29.562   2.412  29.464  0.00  0.00    -0.339 OA
ATOM     45  C   UNL A   1     -29.074   3.107  28.313  0.00  0.00    +0.175 C 
ENDBRANCH  38  44
ENDBRANCH  36  38
ENDBRANCH  35  36
ENDBRANCH  34  35
ENDBRANCH   1  34
TORSDOF 16
