MODEL 2070
MODEL 1
REMARK VINA RESULT:    -6.497      0.000      0.000
REMARK INTER + INTRA:          -7.222
REMARK INTER:                  -6.877
REMARK INTRA:                  -0.345
REMARK UNBOUND:                -0.345
REMARK  Name = No_2070-gen_results/8p0m/2024-11-27-11-27-31/
REMARK  1 active torsions:
REMARK  status: ('A' for Active; 'I' for Inactive)
REMARK    1  A    between atoms: C_3  and  C_4
REMARK                            x       y       z     vdW  Elec       q    Type
REMARK                         _______ _______ _______ _____ _____    ______ ____
ROOT
ATOM      1  C   UNL A   1     -21.701  -0.116  28.916  0.00  0.00    +0.000 A 
ATOM      2  C   UNL A   1     -22.299  -1.111  29.255  0.00  0.00    +0.000 A 
ATOM      3  C   UNL A   1     -23.583  -1.370  28.790  0.00  0.00    +0.000 A 
ATOM      4  C   UNL A   1     -22.341   0.977  28.195  0.00  0.00    +0.000 A 
ATOM      5  C   UNL A   1     -23.571   0.773  27.600  0.00  0.00    +0.000 A 
ATOM      6  C   UNL A   1     -24.260  -0.400  27.943  0.00  0.00    +0.000 A 
ENDROOT
BRANCH   3   7
ATOM      7  C   UNL A   1     -24.425  -2.550  29.141  0.00  0.00    +0.000 A 
ATOM      8  C   UNL A   1     -23.946  -3.815  28.687  0.00  0.00    +0.000 A 
ATOM      9  C   UNL A   1     -24.684  -4.973  28.926  0.00  0.00    +0.000 A 
ATOM     10  C   UNL A   1     -25.970  -4.812  29.484  0.00  0.00    +0.000 A 
ATOM     11  C   UNL A   1     -26.446  -3.604  29.905  0.00  0.00    +0.000 A 
ATOM     12  C   UNL A   1     -25.670  -2.404  29.690  0.00  0.00    +0.000 A 
ENDBRANCH   3   7
TORSDOF 1
ENDMDL
ENDMDL
