REMARK  Name = No_2071-gen_results/8p0m/2024-11-27-11-27-31/
REMARK  3 active torsions:
REMARK  status: ('A' for Active; 'I' for Inactive)
REMARK    1  A    between atoms: C_3  and  C_4
REMARK    2  A    between atoms: C_4  and  C_8
REMARK    3  A    between atoms: C_4  and  C_11
REMARK                            x       y       z     vdW  Elec       q    Type
REMARK                         _______ _______ _______ _____ _____    ______ ____
ROOT
ATOM      1  C   UNL A   1     -26.910   0.849  27.420  0.00  0.00    +0.066 C 
ENDROOT
BRANCH   1   4
ATOM      2  C   UNL A   1     -28.016  -0.814  28.878  0.00  0.00    -0.004 A 
ATOM      3  C   UNL A   1     -28.469  -0.785  29.829  0.00  0.00    -0.000 A 
ATOM      4  C   UNL A   1     -27.087   0.290  28.638  0.00  0.00    -0.014 A 
ATOM      5  C   UNL A   1     -27.886  -0.505  31.094  0.00  0.00    -0.000 A 
ATOM      6  C   UNL A   1     -26.929   0.593  31.074  0.00  0.00    -0.000 A 
ATOM      7  C   UNL A   1     -26.523   0.955  29.801  0.00  0.00    -0.004 A 
ENDBRANCH   1   4
BRANCH   1   8
ATOM      8  C   UNL A   1     -25.342   0.879  27.068  0.00  0.00    -0.014 A 
ATOM      9  C   UNL A   1     -24.388   0.443  27.919  0.00  0.00    -0.004 A 
ATOM     10  C   UNL A   1     -23.105   0.930  28.119  0.00  0.00    -0.000 A 
ATOM     11  C   UNL A   1     -22.642   1.900  27.140  0.00  0.00    -0.000 A 
ATOM     12  C   UNL A   1     -23.553   2.261  26.142  0.00  0.00    -0.000 A 
ATOM     13  C   UNL A   1     -24.929   1.910  26.132  0.00  0.00    -0.004 A 
ENDBRANCH   1   8
BRANCH   1  14
ATOM     14  C   UNL A   1     -27.692   1.153  26.599  0.00  0.00    -0.022 C 
ATOM     15  C   UNL A   1     -29.056   1.077  26.886  0.00  0.00    -0.030 C 
ATOM     16  C   UNL A   1     -30.002   1.409  25.802  0.00  0.00    +0.030 C 
ENDBRANCH   1  14
TORSDOF 3
