MODEL 2071
MODEL 1
REMARK VINA RESULT:    -7.053      0.000      0.000
REMARK INTER + INTRA:          -9.438
REMARK INTER:                  -8.291
REMARK INTRA:                  -1.148
REMARK UNBOUND:                -1.148
REMARK  Name = No_2071-gen_results/8p0m/2024-11-27-11-27-31/
REMARK  3 active torsions:
REMARK  status: ('A' for Active; 'I' for Inactive)
REMARK    1  A    between atoms: C_3  and  C_4
REMARK    2  A    between atoms: C_4  and  C_8
REMARK    3  A    between atoms: C_4  and  C_11
REMARK                            x       y       z     vdW  Elec       q    Type
REMARK                         _______ _______ _______ _____ _____    ______ ____
ROOT
ATOM      1  C   UNL A   1     -24.393  -0.972  29.565  0.00  0.00    +0.066 C 
ENDROOT
BRANCH   1   4
ATOM      2  C   UNL A   1     -22.516   0.306  28.587  0.00  0.00    -0.004 A 
ATOM      3  C   UNL A   1     -22.430   1.211  28.053  0.00  0.00    -0.000 A 
ATOM      4  C   UNL A   1     -23.855  -0.279  28.536  0.00  0.00    -0.014 A 
ATOM      5  C   UNL A   1     -22.937   1.548  26.769  0.00  0.00    -0.000 A 
ATOM      6  C   UNL A   1     -24.289   1.064  26.522  0.00  0.00    -0.000 A 
ATOM      7  C   UNL A   1     -24.715   0.111  27.431  0.00  0.00    -0.004 A 
ENDBRANCH   1   4
BRANCH   1   8
ATOM      8  C   UNL A   1     -24.860  -2.421  29.047  0.00  0.00    -0.014 A 
ATOM      9  C   UNL A   1     -25.981  -3.033  29.486  0.00  0.00    -0.004 A 
ATOM     10  C   UNL A   1     -26.216  -4.383  29.697  0.00  0.00    -0.000 A 
ATOM     11  C   UNL A   1     -25.200  -5.285  29.179  0.00  0.00    -0.000 A 
ATOM     12  C   UNL A   1     -24.090  -4.690  28.570  0.00  0.00    -0.000 A 
ATOM     13  C   UNL A   1     -23.795  -3.301  28.600  0.00  0.00    -0.004 A 
ENDBRANCH   1   8
BRANCH   1  14
ATOM     14  C   UNL A   1     -24.425  -0.732  30.713  0.00  0.00    -0.022 C 
ATOM     15  C   UNL A   1     -23.548  -1.387  31.579  0.00  0.00    -0.030 C 
ATOM     16  C   UNL A   1     -23.669  -1.098  33.022  0.00  0.00    +0.030 C 
ENDBRANCH   1  14
TORSDOF 3
ENDMDL
ENDMDL
