MODEL 2072
MODEL 1
REMARK VINA RESULT:    -6.433      0.000      0.000
REMARK INTER + INTRA:          -6.883
REMARK INTER:                  -6.810
REMARK INTRA:                  -0.074
REMARK UNBOUND:                -0.074
REMARK  Name = No_2072-gen_results/8p0m/2024-11-27-11-27-31/
REMARK  1 active torsions:
REMARK  status: ('A' for Active; 'I' for Inactive)
REMARK    1  A    between atoms: C_8  and  C_9
REMARK                            x       y       z     vdW  Elec       q    Type
REMARK                         _______ _______ _______ _____ _____    ______ ____
ROOT
ATOM      1  C   UNL A   1     -28.117 -11.758  31.320  0.00  0.00    +0.007 A 
ATOM      2  C   UNL A   1     -28.998 -11.572  30.513  0.00  0.00    +0.000 A 
ATOM      3  C   UNL A   1     -29.023 -12.154  29.261  0.00  0.00    +0.000 A 
ATOM      4  C   UNL A   1     -29.678 -11.538  28.197  0.00  0.00    +0.000 A 
ATOM      5  C   UNL A   1     -30.554 -10.391  28.387  0.00  0.00    +0.000 A 
ATOM      6  C   UNL A   1     -30.568  -9.848  29.682  0.00  0.00    +0.000 A 
ATOM      7  C   UNL A   1     -29.768 -10.392  30.639  0.00  0.00    +0.000 A 
ATOM      8  C   UNL A   1     -28.269 -11.282  32.723  0.00  0.00    +0.080 A 
ATOM      9  C   UNL A   1     -29.200 -10.218  33.030  0.00  0.00    +0.007 A 
ATOM     10  C   UNL A   1     -29.892  -9.713  31.933  0.00  0.00    +0.000 A 
ENDROOT
BRANCH   8  11
ATOM     11  C   UNL A   1     -27.308 -11.677  33.755  0.00  0.00    +0.388 C 
ATOM     12  O   UNL A   1     -26.780 -12.814  33.645  0.00  0.00    -0.241 OA
ATOM     13  O   UNL A   1     -26.876 -10.868  34.648  0.00  0.00    -0.241 OA
ENDBRANCH   8  11
TORSDOF 1
ENDMDL
ENDMDL
