REMARK  Name = outputs/IAG933/test6/raw/output_2072_IAG933_linker_design_.xyz
REMARK  22 active torsions:
REMARK  status: ('A' for Active; 'I' for Inactive)
REMARK    1  A    between atoms: C_1  and  C_2
REMARK    2  A    between atoms: C_1  and  C_8
REMARK    3  A    between atoms: C_1  and  C_47
REMARK    4  A    between atoms: C_14  and  C_15
REMARK    5  A    between atoms: C_15  and  O_18
REMARK    6  A    between atoms: O_18  and  C_30
REMARK    7  A    between atoms: C_21  and  O_22
REMARK    8  A    between atoms: O_22  and  C_23
REMARK    9  A    between atoms: C_23  and  C_24
REMARK   10  A    between atoms: C_29  and  C_36
REMARK   11  A    between atoms: C_29  and  C_47
REMARK   12  A    between atoms: C_30  and  C_31
REMARK   13  A    between atoms: C_32  and  C_36
REMARK   14  A    between atoms: C_33  and  N_46
REMARK   15  A    between atoms: C_33  and  C_47
REMARK   16  A    between atoms: C_35  and  C_38
REMARK   17  A    between atoms: C_37  and  C_44
REMARK   18  A    between atoms: C_37  and  N_46
REMARK   19  A    between atoms: C_38  and  C_44
REMARK   20  A    between atoms: C_38  and  C_45
REMARK   21  A    between atoms: C_39  and  N_43
REMARK   22  A    between atoms: C_39  and  N_46
REMARK                            x       y       z     vdW  Elec       q    Type
REMARK                         _______ _______ _______ _____ _____    ______ ____
ROOT
ATOM      1  N   UNL A   1     -27.944   0.693  29.768  0.00  0.00    -0.254 NA
ENDROOT
BRANCH   1   2
ATOM      2  C   UNL A   1     -27.927   1.483  30.220  0.00  0.00    +0.190 C 
BRANCH   2   5
ATOM      3  C   UNL A   1     -26.012   3.724  30.310  0.00  0.00    +0.287 C 
ATOM      4  O   UNL A   1     -25.754   4.786  30.719  0.00  0.00    -0.269 OA
ATOM      5  N   UNL A   1     -26.887   2.831  30.904  0.00  0.00    -0.184 NA
BRANCH   3   6
ATOM      6  C   UNL A   1     -25.657   2.963  29.100  0.00  0.00    +0.293 C 
BRANCH   6   7
ATOM      7  O   UNL A   1     -25.143   3.966  28.243  0.00  0.00    -0.450 OA
BRANCH   7   8
ATOM      8  C   UNL A   1     -25.642   4.093  27.123  0.00  0.00    +0.222 C 
ATOM      9  N   UNL A   1     -25.614   5.252  26.449  0.00  0.00    -0.236 NA
ATOM     10  C   UNL A   1     -25.026   6.479  26.963  0.00  0.00    +0.155 C 
BRANCH   8  12
ATOM     11  C   UNL A   1     -25.688   1.614  26.461  0.00  0.00    +0.041 C 
ATOM     12  C   UNL A   1     -26.250   2.920  26.395  0.00  0.00    +0.074 C 
ATOM     13  C   UNL A   1     -27.438   3.091  25.645  0.00  0.00    +0.107 C 
ATOM     14  N   UNL A   1     -28.075   2.089  25.003  0.00  0.00    -0.208 NA
ATOM     15  C   UNL A   1     -27.543   0.849  25.079  0.00  0.00    +0.253 C 
ATOM     16  C   UNL A   1     -26.354   0.576  25.777  0.00  0.00    +0.193 C 
ATOM     17  F   UNL A   1     -25.860  -0.681  25.795  0.00  0.00    -0.199 F 
BRANCH  15  18
ATOM     18  O   UNL A   1     -28.193  -0.208  24.477  0.00  0.00    -0.456 OA
BRANCH  18  19
ATOM     19  C   UNL A   1     -29.460   0.005  23.866  0.00  0.00    +0.243 C 
BRANCH  19  20
ATOM     20  C   UNL A   1     -30.065  -1.377  23.573  0.00  0.00    +0.229 C 
ATOM     21  O   UNL A   1     -30.729  -1.878  24.721  0.00  0.00    -0.216 OA
ENDBRANCH  19  20
ENDBRANCH  18  19
ENDBRANCH  15  18
ENDBRANCH   8  12
ENDBRANCH   7   8
ENDBRANCH   6   7
ENDBRANCH   3   6
ENDBRANCH   2   5
ENDBRANCH   1   2
BRANCH   1  22
ATOM     22  C   UNL A   1     -29.032   0.863  28.956  0.00  0.00    +0.074 C 
BRANCH  22  23
ATOM     23  C   UNL A   1     -29.384   0.064  27.651  0.00  0.00    +0.027 C 
BRANCH  23  24
ATOM     24  C   UNL A   1     -30.961   0.098  27.392  0.00  0.00    +0.081 C 
BRANCH  24  26
ATOM     25  N   UNL A   1     -31.696   1.052  29.503  0.00  0.00    -0.088 NA
ATOM     26  C   UNL A   1     -31.295   1.283  28.312  0.00  0.00    +0.260 C 
ATOM     27  O   UNL A   1     -31.329   2.622  27.758  0.00  0.00    -0.272 OA
ENDBRANCH  24  26
BRANCH  24  29
ATOM     28  C   UNL A   1     -33.610  -0.211  27.464  0.00  0.00    +0.001 C 
ATOM     29  C   UNL A   1     -32.264  -0.943  27.264  0.00  0.00    +0.009 C 
ENDBRANCH  24  29
ENDBRANCH  23  24
ENDBRANCH  22  23
ENDBRANCH   1  22
BRANCH   1  30
ATOM     30  C   UNL A   1     -27.117  -0.274  28.882  0.00  0.00    +0.074 C 
BRANCH  30  31
ATOM     31  C   UNL A   1     -25.346  -0.035  29.046  0.00  0.00    +0.022 C 
BRANCH  31  32
ATOM     32  C   UNL A   1     -24.855  -1.012  30.143  0.00  0.00    +0.040 C 
BRANCH  32  33
ATOM     33  C   UNL A   1     -24.973  -2.505  29.788  0.00  0.00    -0.021 C 
ATOM     34  C   UNL A   1     -23.906  -3.173  29.146  0.00  0.00    -0.004 C 
ATOM     35  C   UNL A   1     -23.989  -4.549  28.853  0.00  0.00    -0.000 C 
ATOM     36  C   UNL A   1     -25.137  -5.280  29.205  0.00  0.00    -0.000 C 
ATOM     37  C   UNL A   1     -26.232  -4.611  29.784  0.00  0.00    -0.000 C 
ATOM     38  C   UNL A   1     -26.155  -3.232  30.065  0.00  0.00    -0.004 C 
ENDBRANCH  32  33
BRANCH  32  39
ATOM     39  C   UNL A   1     -25.387  -0.679  31.571  0.00  0.00    +0.077 C 
ATOM     40  C   UNL A   1     -25.189   0.773  32.028  0.00  0.00    +0.019 C 
ATOM     41  C   UNL A   1     -25.336   0.684  33.544  0.00  0.00    +0.020 C 
ATOM     42  C   UNL A   1     -24.829  -0.715  33.905  0.00  0.00    +0.089 C 
ATOM     43  N   UNL A   1     -24.758  -1.481  32.646  0.00  0.00    -0.219 NA
ENDBRANCH  32  39
ENDBRANCH  31  32
BRANCH  31  44
ATOM     44  C   UNL A   1     -24.009   0.332  28.234  0.00  0.00    +0.018 C 
BRANCH  44  45
ATOM     45  C   UNL A   1     -22.783   0.896  28.984  0.00  0.00    +0.105 C 
BRANCH  45  46
ATOM     46  C   UNL A   1     -22.126   1.608  27.897  0.00  0.00    +0.073 C 
ATOM     47  N   UNL A   1     -21.557   1.864  26.945  0.00  0.00    -0.196 NA
ENDBRANCH  45  46
ENDBRANCH  44  45
ENDBRANCH  31  44
ENDBRANCH  30  31
ENDBRANCH   1  30
TORSDOF 22
