MODEL 2074
MODEL 1
REMARK VINA RESULT:    -6.574      0.000      0.000
REMARK INTER + INTRA:          -7.520
REMARK INTER:                  -7.342
REMARK INTRA:                  -0.177
REMARK UNBOUND:                -0.177
REMARK  Name = No_2074-gen_results/8p0m/2024-11-27-11-27-31/
REMARK  2 active torsions:
REMARK  status: ('A' for Active; 'I' for Inactive)
REMARK    1  A    between atoms: C_5  and  C_16
REMARK    2  A    between atoms: C_16  and  O_18
REMARK                            x       y       z     vdW  Elec       q    Type
REMARK                         _______ _______ _______ _____ _____    ______ ____
ROOT
ATOM      1  C   UNL A   1     -31.549 -10.461  10.924  0.00  0.00    +0.003 A 
ATOM      2  C   UNL A   1     -30.683  -9.970  10.238  0.00  0.00    +0.035 A 
ATOM      3  C   UNL A   1     -29.382 -10.435  10.144  0.00  0.00    -0.015 A 
ATOM      4  C   UNL A   1     -29.055 -11.602  10.895  0.00  0.00    +0.003 A 
ATOM      5  C   UNL A   1     -30.071 -12.218  11.520  0.00  0.00    +0.075 A 
ATOM      6  C   UNL A   1     -31.278 -11.730  11.518  0.00  0.00    +0.006 A 
ATOM      7  C   UNL A   1     -28.303  -9.707   9.385  0.00  0.00    +0.045 C 
ATOM      8  C   UNL A   1     -28.581  -8.408   9.179  0.00  0.00    -0.015 A 
ATOM      9  C   UNL A   1     -27.656  -7.595   8.367  0.00  0.00    -0.004 A 
ATOM     10  C   UNL A   1     -28.063  -6.290   7.933  0.00  0.00    -0.000 A 
ATOM     11  C   UNL A   1     -29.200  -5.711   8.395  0.00  0.00    +0.000 A 
ATOM     12  C   UNL A   1     -30.041  -6.402   9.296  0.00  0.00    +0.003 A 
ATOM     13  C   UNL A   1     -29.755  -7.722   9.615  0.00  0.00    +0.035 A 
ATOM     14  C   UNL A   1     -30.837  -8.495   9.944  0.00  0.00    +0.195 C 
ATOM     15  O   UNL A   1     -31.977  -7.969  10.231  0.00  0.00    -0.287 OA
ATOM     16  C   UNL A   1     -27.066 -10.363   9.104  0.00  0.00    +0.009 C 
ENDROOT
BRANCH   5  17
ATOM     17  C   UNL A   1     -29.784 -13.543  12.126  0.00  0.00    +0.341 C 
ATOM     18  O   UNL A   1     -30.131 -13.831  13.269  0.00  0.00    -0.245 OA
BRANCH  17  19
ATOM     19  O   UNL A   1     -29.576 -14.573  11.289  0.00  0.00    -0.441 OA
ATOM     20  C   UNL A   1     -30.581 -15.442  10.942  0.00  0.00    +0.256 C 
ENDBRANCH  17  19
ENDBRANCH   5  17
TORSDOF 2
ENDMDL
ENDMDL
