MODEL 2075
MODEL 1
REMARK VINA RESULT:    -5.437      0.000      0.000
REMARK INTER + INTRA:          -5.437
REMARK INTER:                  -5.437
REMARK INTRA:                   0.000
REMARK UNBOUND:                 0.000
REMARK  Name = No_2075-gen_results/8p0m/2024-11-27-11-27-31/
REMARK  0 active torsions:
REMARK  status: ('A' for Active; 'I' for Inactive)
REMARK                            x       y       z     vdW  Elec       q    Type
REMARK                         _______ _______ _______ _____ _____    ______ ____
ROOT
ATOM      1  C   UNL A   1     -25.046  -1.671  30.307  0.00  0.00    +0.071 C 
ATOM      2  C   UNL A   1     -25.317  -0.662  30.446  0.00  0.00    +0.031 C 
ATOM      3  C   UNL A   1     -26.125  -2.591  30.084  0.00  0.00    +0.183 C 
ATOM      4  C   UNL A   1     -25.861  -3.985  29.672  0.00  0.00    +0.218 C 
ATOM      5  C   UNL A   1     -24.705  -4.269  28.920  0.00  0.00    +0.043 C 
ATOM      6  C   UNL A   1     -23.739  -3.256  28.745  0.00  0.00    +0.013 C 
ATOM      7  C   UNL A   1     -23.925  -2.030  29.267  0.00  0.00    +0.085 C 
ATOM      8  C   UNL A   1     -24.218   0.400  30.712  0.00  0.00    +0.116 C 
ATOM      9  N   UNL A   1     -23.053   0.168  30.026  0.00  0.00    -0.205 NA
ATOM     10  C   UNL A   1     -22.766  -1.093  29.450  0.00  0.00    +0.241 C 
ATOM     11  O   UNL A   1     -21.658  -1.266  28.944  0.00  0.00    -0.273 OA
ATOM     12  O   UNL A   1     -27.233  -2.510  30.805  0.00  0.00    -0.293 OA
ATOM     13  F   UNL A   1     -26.776  -4.904  29.694  0.00  0.00    -0.229 F 
ENDROOT
TORSDOF 0
ENDMDL
ENDMDL
