REMARK  Name = No_2075-gen_results/8p0m/2024-11-27-11-27-31/
REMARK  0 active torsions:
REMARK  status: ('A' for Active; 'I' for Inactive)
REMARK                            x       y       z     vdW  Elec       q    Type
REMARK                         _______ _______ _______ _____ _____    ______ ____
ROOT
ATOM      1  C   UNL A   1     -28.016  -0.814  28.878  0.00  0.00    +0.071 C 
ATOM      2  C   UNL A   1     -28.469  -0.785  29.829  0.00  0.00    +0.031 C 
ATOM      3  C   UNL A   1     -28.196   0.348  28.055  0.00  0.00    +0.183 C 
ATOM      4  C   UNL A   1     -27.442   0.510  26.795  0.00  0.00    +0.218 C 
ATOM      5  C   UNL A   1     -26.169  -0.079  26.679  0.00  0.00    +0.043 C 
ATOM      6  C   UNL A   1     -25.731  -0.961  27.688  0.00  0.00    +0.013 C 
ATOM      7  C   UNL A   1     -26.504  -1.222  28.758  0.00  0.00    +0.085 C 
ATOM      8  C   UNL A   1     -28.343  -2.004  30.779  0.00  0.00    +0.116 C 
ATOM      9  N   UNL A   1     -27.130  -2.640  30.698  0.00  0.00    -0.205 NA
ATOM     10  C   UNL A   1     -26.253  -2.435  29.605  0.00  0.00    +0.241 C 
ATOM     11  O   UNL A   1     -25.232  -3.118  29.540  0.00  0.00    -0.273 OA
ATOM     12  O   UNL A   1     -29.380   0.938  27.980  0.00  0.00    -0.293 OA
ATOM     13  F   UNL A   1     -27.745   1.411  25.912  0.00  0.00    -0.229 F 
ENDROOT
TORSDOF 0
