REMARK  Name = outputs/IAG933/test6/raw/output_2076_IAG933_linker_design_.xyz
REMARK  8 active torsions:
REMARK  status: ('A' for Active; 'I' for Inactive)
REMARK    1  A    between atoms: C_1  and  C_2
REMARK    2  A    between atoms: C_1  and  C_8
REMARK    3  A    between atoms: C_1  and  N_28
REMARK    4  A    between atoms: C_13  and  C_35
REMARK    5  A    between atoms: C_14  and  C_15
REMARK    6  A    between atoms: C_21  and  O_22
REMARK    7  A    between atoms: O_22  and  C_23
REMARK    8  A    between atoms: C_23  and  C_24
REMARK                            x       y       z     vdW  Elec       q    Type
REMARK                         _______ _______ _______ _____ _____    ______ ____
ROOT
ATOM      1  N   UNL A   1     -24.247   0.054  29.448  0.00  0.00    -0.280 N 
ATOM      2  O   UNL A   1     -21.606   2.393  25.260  0.00  0.00    -0.247 OA
ATOM      3  O   UNL A   1     -23.598   2.509  26.029  0.00  0.00    -0.428 OA
ATOM      4  C   UNL A   1     -24.639   1.247  29.098  0.00  0.00    +0.334 A 
ATOM      5  O   UNL A   1     -25.032   2.081  29.944  0.00  0.00    -0.246 OA
ATOM      6  C   UNL A   1     -21.925  -0.663  29.377  0.00  0.00    +0.048 C 
ATOM      7  C   UNL A   1     -19.838   0.302  28.497  0.00  0.00    +0.144 C 
ATOM      8  C   UNL A   1     -24.343   1.693  26.946  0.00  0.00    +0.270 C 
ATOM      9  C   UNL A   1     -21.785   1.509  27.326  0.00  0.00    +0.253 C 
ATOM     10  O   UNL A   1     -20.457   1.505  27.622  0.00  0.00    -0.340 OA
ATOM     11  C   UNL A   1     -20.770  -0.367  28.861  0.00  0.00    +0.038 C 
ATOM     12  C   UNL A   1     -22.220   2.167  26.133  0.00  0.00    +0.352 C 
ATOM     13  C   UNL A   1     -23.070   0.063  28.993  0.00  0.00    +0.056 A 
ATOM     14  N   UNL A   1     -23.898   1.330  27.842  0.00  0.00    -0.247 N 
ATOM     15  C   UNL A   1     -22.846   0.988  28.011  0.00  0.00    +0.094 A 
ENDROOT
BRANCH   8  16
ATOM     16  C   UNL A   1     -25.688   1.614  26.461  0.00  0.00    +0.133 C 
ATOM     17  C   UNL A   1     -26.250   2.920  26.395  0.00  0.00    +0.060 C 
ATOM     18  C   UNL A   1     -27.438   3.091  25.645  0.00  0.00    +0.102 C 
ATOM     19  N   UNL A   1     -28.075   2.089  25.003  0.00  0.00    -0.212 NA
ATOM     20  C   UNL A   1     -27.543   0.849  25.079  0.00  0.00    +0.234 C 
ATOM     21  C   UNL A   1     -26.354   0.576  25.777  0.00  0.00    +0.245 C 
ATOM     22  F   UNL A   1     -25.860  -0.681  25.795  0.00  0.00    -0.227 F 
BRANCH  17  23
ATOM     23  C   UNL A   1     -25.642   4.093  27.123  0.00  0.00    +0.263 C 
ATOM     24  N   UNL A   1     -25.614   5.252  26.449  0.00  0.00    -0.200 NA
ATOM     25  C   UNL A   1     -25.026   6.479  26.963  0.00  0.00    +0.139 C 
ATOM     26  O   UNL A   1     -25.143   3.966  28.243  0.00  0.00    -0.269 OA
ENDBRANCH  17  23
BRANCH  20  27
ATOM     27  O   UNL A   1     -28.193  -0.208  24.477  0.00  0.00    -0.459 OA
BRANCH  27  28
ATOM     28  C   UNL A   1     -29.460   0.005  23.866  0.00  0.00    +0.242 C 
BRANCH  28  29
ATOM     29  C   UNL A   1     -30.065  -1.377  23.573  0.00  0.00    +0.229 C 
ATOM     30  O   UNL A   1     -30.729  -1.878  24.721  0.00  0.00    -0.216 OA
ENDBRANCH  28  29
ENDBRANCH  27  28
ENDBRANCH  20  27
ENDBRANCH   8  16
BRANCH   1  31
ATOM     31  C   UNL A   1     -24.855  -1.012  30.143  0.00  0.00    +0.128 C 
BRANCH  31  32
ATOM     32  C   UNL A   1     -24.973  -2.505  29.788  0.00  0.00    -0.000 C 
ATOM     33  C   UNL A   1     -23.906  -3.173  29.146  0.00  0.00    -0.002 C 
ATOM     34  C   UNL A   1     -23.989  -4.549  28.853  0.00  0.00    -0.000 C 
ATOM     35  C   UNL A   1     -25.137  -5.280  29.205  0.00  0.00    -0.000 C 
ATOM     36  C   UNL A   1     -26.232  -4.611  29.784  0.00  0.00    -0.000 C 
ATOM     37  C   UNL A   1     -26.155  -3.232  30.065  0.00  0.00    -0.002 C 
ENDBRANCH  31  32
BRANCH  31  38
ATOM     38  C   UNL A   1     -25.387  -0.679  31.571  0.00  0.00    +0.098 C 
ATOM     39  C   UNL A   1     -25.189   0.773  32.028  0.00  0.00    +0.021 C 
ATOM     40  C   UNL A   1     -25.336   0.684  33.544  0.00  0.00    +0.020 C 
ATOM     41  C   UNL A   1     -24.829  -0.715  33.905  0.00  0.00    +0.089 C 
ATOM     42  N   UNL A   1     -24.758  -1.481  32.646  0.00  0.00    -0.217 NA
ENDBRANCH  31  38
ENDBRANCH   1  31
TORSDOF 8
