MODEL 2076
MODEL 1
REMARK VINA RESULT:    -4.838      0.000      0.000
REMARK INTER + INTRA:          -5.266
REMARK INTER:                  -5.121
REMARK INTRA:                  -0.145
REMARK UNBOUND:                -0.145
REMARK  Name = No_2076-gen_results/8p0m/2024-11-27-11-27-31/
REMARK  1 active torsions:
REMARK  status: ('A' for Active; 'I' for Inactive)
REMARK    1  A    between atoms: C_3  and  C_4
REMARK                            x       y       z     vdW  Elec       q    Type
REMARK                         _______ _______ _______ _____ _____    ______ ____
ROOT
ATOM      1  C   UNL A   1     -24.552  -2.437  29.074  0.00  0.00    +0.001 A 
ATOM      2  C   UNL A   1     -25.846  -2.979  29.672  0.00  0.00    +0.000 A 
ATOM      3  C   UNL A   1     -26.290  -4.345  29.741  0.00  0.00    +0.000 A 
ATOM      4  C   UNL A   1     -25.349  -5.279  29.199  0.00  0.00    +0.000 A 
ATOM      5  C   UNL A   1     -24.179  -4.869  28.621  0.00  0.00    +0.000 A 
ATOM      6  C   UNL A   1     -23.877  -3.573  28.563  0.00  0.00    +0.000 A 
ENDROOT
BRANCH   1   9
ATOM      7 CL   UNL A   1     -23.169  -0.990  30.830  0.00  0.00    -0.081 Cl
ATOM      8  C   UNL A   1     -23.526  -0.616  29.724  0.00  0.00    +0.068 C 
ATOM      9  C   UNL A   1     -24.148  -1.531  28.929  0.00  0.00    +0.012 C 
ENDBRANCH   1   9
TORSDOF 1
ENDMDL
ENDMDL
