REMARK  Name = outputs/IAG933/test6/raw/output_2077_IAG933_linker_design_.xyz
REMARK  9 active torsions:
REMARK  status: ('A' for Active; 'I' for Inactive)
REMARK    1  A    between atoms: C_1  and  C_2
REMARK    2  A    between atoms: C_1  and  C_8
REMARK    3  A    between atoms: C_1  and  N_34
REMARK    4  A    between atoms: C_13  and  N_32
REMARK    5  A    between atoms: C_14  and  C_15
REMARK    6  A    between atoms: C_21  and  O_22
REMARK    7  A    between atoms: O_22  and  C_23
REMARK    8  A    between atoms: C_23  and  C_24
REMARK    9  A    between atoms: C_37  and  C_38
REMARK                            x       y       z     vdW  Elec       q    Type
REMARK                         _______ _______ _______ _____ _____    ______ ____
ROOT
ATOM      1  O   UNL A   1     -26.195   0.858  29.144  0.00  0.00    -0.252 OA
ATOM      2  F   UNL A   1     -20.980   1.995  27.774  0.00  0.00    -0.235 F 
ATOM      3  N   UNL A   1     -24.678   1.290  27.418  0.00  0.00    -0.231 N 
ATOM      4  C   UNL A   1     -22.105   1.252  27.883  0.00  0.00    +0.190 C 
ATOM      5  N   UNL A   1     -24.224   0.163  29.461  0.00  0.00    -0.260 N 
ATOM      6  C   UNL A   1     -21.904   0.074  28.784  0.00  0.00    +0.059 C 
ATOM      7  C   UNL A   1     -25.031   0.756  28.657  0.00  0.00    +0.311 C 
ATOM      8  C   UNL A   1     -23.333   1.570  27.154  0.00  0.00    +0.208 C 
ATOM      9  C   UNL A   1     -22.823   0.242  29.949  0.00  0.00    +0.098 C 
ENDROOT
BRANCH   3  10
ATOM     10  C   UNL A   1     -25.688   1.614  26.461  0.00  0.00    +0.094 C 
ATOM     11  C   UNL A   1     -26.250   2.920  26.395  0.00  0.00    +0.090 C 
ATOM     12  C   UNL A   1     -27.438   3.091  25.645  0.00  0.00    +0.108 C 
ATOM     13  N   UNL A   1     -28.075   2.089  25.003  0.00  0.00    -0.208 NA
ATOM     14  C   UNL A   1     -27.543   0.849  25.079  0.00  0.00    +0.255 C 
ATOM     15  C   UNL A   1     -26.354   0.576  25.777  0.00  0.00    +0.207 C 
ATOM     16  F   UNL A   1     -25.860  -0.681  25.795  0.00  0.00    -0.198 F 
BRANCH  11  17
ATOM     17  C   UNL A   1     -25.642   4.093  27.123  0.00  0.00    +0.268 C 
ATOM     18  N   UNL A   1     -25.614   5.252  26.449  0.00  0.00    -0.200 NA
ATOM     19  C   UNL A   1     -25.026   6.479  26.963  0.00  0.00    +0.139 C 
ATOM     20  O   UNL A   1     -25.143   3.966  28.243  0.00  0.00    -0.268 OA
ENDBRANCH  11  17
BRANCH  14  21
ATOM     21  O   UNL A   1     -28.193  -0.208  24.477  0.00  0.00    -0.456 OA
BRANCH  21  22
ATOM     22  C   UNL A   1     -29.460   0.005  23.866  0.00  0.00    +0.243 C 
BRANCH  22  23
ATOM     23  C   UNL A   1     -30.065  -1.377  23.573  0.00  0.00    +0.229 C 
ATOM     24  O   UNL A   1     -30.729  -1.878  24.721  0.00  0.00    -0.216 OA
ENDBRANCH  22  23
ENDBRANCH  21  22
ENDBRANCH  14  21
ENDBRANCH   3  10
BRANCH   8  27
ATOM     25  F   UNL A   1     -23.684   1.334  24.875  0.00  0.00    -0.168 F 
ATOM     26  F   UNL A   1     -23.488   3.334  25.600  0.00  0.00    -0.168 F 
ATOM     27  C   UNL A   1     -23.078   2.017  25.844  0.00  0.00    +0.417 C 
ATOM     28  F   UNL A   1     -21.842   2.067  25.418  0.00  0.00    -0.168 F 
ENDBRANCH   8  27
BRANCH   5  29
ATOM     29  C   UNL A   1     -24.855  -1.012  30.143  0.00  0.00    +0.115 C 
BRANCH  29  30
ATOM     30  C   UNL A   1     -24.973  -2.505  29.788  0.00  0.00    -0.003 C 
ATOM     31  C   UNL A   1     -23.906  -3.173  29.146  0.00  0.00    -0.003 C 
ATOM     32  C   UNL A   1     -23.989  -4.549  28.853  0.00  0.00    -0.000 C 
ATOM     33  C   UNL A   1     -25.137  -5.280  29.205  0.00  0.00    -0.000 C 
ATOM     34  C   UNL A   1     -26.232  -4.611  29.784  0.00  0.00    -0.000 C 
ATOM     35  C   UNL A   1     -26.155  -3.232  30.065  0.00  0.00    -0.003 C 
ENDBRANCH  29  30
BRANCH  29  36
ATOM     36  C   UNL A   1     -25.387  -0.679  31.571  0.00  0.00    +0.095 C 
ATOM     37  C   UNL A   1     -25.189   0.773  32.028  0.00  0.00    +0.021 C 
ATOM     38  C   UNL A   1     -25.336   0.684  33.544  0.00  0.00    +0.020 C 
ATOM     39  C   UNL A   1     -24.829  -0.715  33.905  0.00  0.00    +0.089 C 
ATOM     40  N   UNL A   1     -24.758  -1.481  32.646  0.00  0.00    -0.217 NA
ENDBRANCH  29  36
ENDBRANCH   5  29
TORSDOF 9
