MODEL 2078
MODEL 1
REMARK VINA RESULT:    -5.570      0.000      0.000
REMARK INTER + INTRA:          -6.464
REMARK INTER:                  -6.222
REMARK INTRA:                  -0.242
REMARK UNBOUND:                -0.242
REMARK  Name = No_2078-gen_results/8p0m/2024-11-27-11-27-31/
REMARK  2 active torsions:
REMARK  status: ('A' for Active; 'I' for Inactive)
REMARK    1  A    between atoms: C_2  and  C_7
REMARK    2  A    between atoms: C_8  and  C_9
REMARK                            x       y       z     vdW  Elec       q    Type
REMARK                         _______ _______ _______ _____ _____    ______ ____
ROOT
ATOM      1  C   UNL A   1     -24.083  -3.349  28.408  0.00  0.00    -0.000 A 
ATOM      2  C   UNL A   1     -24.958  -2.719  28.955  0.00  0.00    -0.000 A 
ATOM      3  C   UNL A   1     -25.997  -3.284  29.620  0.00  0.00    -0.000 A 
ATOM      4  C   UNL A   1     -26.068  -4.689  29.680  0.00  0.00    -0.000 A 
ATOM      5  C   UNL A   1     -24.041  -4.786  28.509  0.00  0.00    -0.000 A 
ATOM      6  C   UNL A   1     -25.077  -5.403  29.142  0.00  0.00    -0.000 A 
ENDROOT
BRANCH   2   7
ATOM      7  C   UNL A   1     -25.181  -1.199  29.027  0.00  0.00    -0.005 C 
ATOM      8  C   UNL A   1     -24.178  -0.324  29.047  0.00  0.00    -0.026 C 
BRANCH   8   9
ATOM      9  C   UNL A   1     -23.026  -0.674  29.820  0.00  0.00    +0.022 C 
ATOM     10  C   UNL A   1     -23.127  -0.778  31.268  0.00  0.00    +0.005 C 
ATOM     11  C   UNL A   1     -21.729  -0.683  29.153  0.00  0.00    +0.005 C 
ENDBRANCH   8   9
ENDBRANCH   2   7
TORSDOF 2
ENDMDL
ENDMDL
