MODEL 2079
MODEL 1
REMARK VINA RESULT:    -6.748      0.000      0.000
REMARK INTER + INTRA:          -8.584
REMARK INTER:                  -7.537
REMARK INTRA:                  -1.047
REMARK UNBOUND:                -1.047
REMARK  Name = No_2079-gen_results/8p0m/2024-11-27-11-27-31/
REMARK  2 active torsions:
REMARK  status: ('A' for Active; 'I' for Inactive)
REMARK    1  A    between atoms: C_3  and  C_7
REMARK    2  A    between atoms: C_11  and  C_13
REMARK                            x       y       z     vdW  Elec       q    Type
REMARK                         _______ _______ _______ _____ _____    ______ ____
ROOT
ATOM      1  C   UNL A   1     -24.160  -1.056  28.815  0.00  0.00    +0.008 A 
ATOM      2  C   UNL A   1     -24.438  -0.516  27.691  0.00  0.00    +0.001 A 
ATOM      3  C   UNL A   1     -23.784   0.768  27.389  0.00  0.00    +0.000 A 
ATOM      4  C   UNL A   1     -23.093   1.433  28.446  0.00  0.00    +0.001 A 
ATOM      5  C   UNL A   1     -23.358  -0.421  29.783  0.00  0.00    +0.042 A 
ATOM      6  C   UNL A   1     -22.892   0.778  29.593  0.00  0.00    +0.008 A 
ENDROOT
BRANCH   1   9
ATOM      7  C   UNL A   1     -26.045  -2.576  29.700  0.00  0.00    +0.000 A 
ATOM      8  C   UNL A   1     -26.331  -3.583  29.816  0.00  0.00    +0.000 A 
ATOM      9  C   UNL A   1     -24.722  -2.408  29.098  0.00  0.00    +0.001 A 
ATOM     10  C   UNL A   1     -23.956  -3.479  28.711  0.00  0.00    +0.000 A 
ATOM     11  C   UNL A   1     -25.745  -4.887  29.504  0.00  0.00    +0.000 A 
ATOM     12  C   UNL A   1     -24.464  -4.736  28.920  0.00  0.00    +0.000 A 
ENDBRANCH   1   9
BRANCH   5  13
ATOM     13  C   UNL A   1     -23.117  -1.102  31.105  0.00  0.00    -0.064 C 
ATOM     14  C   UNL A   1     -23.173  -1.110  32.172  0.00  0.00    -0.085 C 
ATOM     15  C   UNL A   1     -24.340  -0.994  33.050  0.00  0.00    +0.090 C 
ENDBRANCH   5  13
TORSDOF 2
ENDMDL
ENDMDL
