MODEL 207
MODEL 1
REMARK VINA RESULT:    -6.119      0.000      0.000
REMARK INTER + INTRA:          -7.755
REMARK INTER:                  -7.192
REMARK INTRA:                  -0.562
REMARK UNBOUND:                -0.562
REMARK  Name = No_207-gen_results/8p0m/2024-11-27-11-27-31/
REMARK  3 active torsions:
REMARK  status: ('A' for Active; 'I' for Inactive)
REMARK    1  A    between atoms: C_1  and  C_7
REMARK    2  A    between atoms: C_3  and  C_14
REMARK    3  A    between atoms: C_5  and  C_11
REMARK                            x       y       z     vdW  Elec       q    Type
REMARK                         _______ _______ _______ _____ _____    ______ ____
ROOT
ATOM      1  C   UNL A   1     -29.268 -11.128  30.345  0.00  0.00    +0.072 A 
ATOM      2  C   UNL A   1     -29.779 -10.127  30.792  0.00  0.00    +0.008 A 
ATOM      3  C   UNL A   1     -29.660  -9.731  32.109  0.00  0.00    +0.072 A 
ATOM      4  C   UNL A   1     -28.858 -10.527  32.975  0.00  0.00    +0.010 A 
ATOM      5  C   UNL A   1     -28.172 -11.536  32.391  0.00  0.00    +0.080 A 
ATOM      6  C   UNL A   1     -28.316 -11.819  31.110  0.00  0.00    +0.010 A 
ENDROOT
BRANCH   1   7
ATOM      7  C   UNL A   1     -29.442 -11.478  28.888  0.00  0.00    +0.419 C 
ATOM      8  F   UNL A   1     -28.663 -11.859  28.231  0.00  0.00    -0.166 F 
ATOM      9  F   UNL A   1     -30.140 -10.444  28.228  0.00  0.00    -0.166 F 
ATOM     10  F   UNL A   1     -30.626 -12.367  28.942  0.00  0.00    -0.166 F 
ENDBRANCH   1   7
BRANCH   3  11
ATOM     11  C   UNL A   1     -30.257  -8.591  32.798  0.00  0.00    +0.419 C 
ATOM     12  F   UNL A   1     -30.834  -7.859  32.092  0.00  0.00    -0.166 F 
ATOM     13  F   UNL A   1     -30.942  -8.944  33.910  0.00  0.00    -0.166 F 
ATOM     14  F   UNL A   1     -29.098  -7.940  33.317  0.00  0.00    -0.166 F 
ENDBRANCH   3  11
BRANCH   5  15
ATOM     15  C   UNL A   1     -27.188 -12.363  33.108  0.00  0.00    +0.388 C 
ATOM     16  O   UNL A   1     -26.381 -13.002  32.546  0.00  0.00    -0.241 OA
ATOM     17  O   UNL A   1     -27.240 -12.290  34.444  0.00  0.00    -0.241 OA
ENDBRANCH   5  15
TORSDOF 3
ENDMDL
ENDMDL
