REMARK  Name = No_208-gen_results/8p0m/2024-11-27-11-27-31/
REMARK  5 active torsions:
REMARK  status: ('A' for Active; 'I' for Inactive)
REMARK    1  A    between atoms: C_2  and  C_7
REMARK    2  A    between atoms: C_7  and  C_8
REMARK    3  A    between atoms: C_7  and  C_14
REMARK    4  A    between atoms: C_15  and  C_16
REMARK    5  A    between atoms: C_16  and  C_17
REMARK                            x       y       z     vdW  Elec       q    Type
REMARK                         _______ _______ _______ _____ _____    ______ ____
ROOT
ATOM      1  C   UNL A   1     -27.106   1.102  27.759  0.00  0.00    +0.066 C 
ENDROOT
BRANCH   1   3
ATOM      2  C   UNL A   1     -28.016  -0.814  28.878  0.00  0.00    -0.004 A 
ATOM      3  C   UNL A   1     -27.064  -0.119  28.608  0.00  0.00    -0.014 A 
ATOM      4  C   UNL A   1     -25.792  -0.430  29.076  0.00  0.00    -0.004 A 
ATOM      5  C   UNL A   1     -25.576  -1.565  29.936  0.00  0.00    -0.000 A 
ATOM      6  C   UNL A   1     -26.735  -2.300  30.217  0.00  0.00    -0.000 A 
ATOM      7  C   UNL A   1     -27.918  -1.954  29.763  0.00  0.00    -0.000 A 
ENDBRANCH   1   3
BRANCH   1   8
ATOM      8  C   UNL A   1     -26.716   2.235  27.994  0.00  0.00    -0.014 A 
ATOM      9  C   UNL A   1     -26.693   3.346  27.034  0.00  0.00    -0.004 A 
ATOM     10  C   UNL A   1     -26.114   4.652  27.283  0.00  0.00    -0.000 A 
ATOM     11  C   UNL A   1     -25.547   4.835  28.536  0.00  0.00    -0.000 A 
ATOM     12  C   UNL A   1     -25.493   3.826  29.463  0.00  0.00    -0.000 A 
ATOM     13  C   UNL A   1     -26.007   2.572  29.236  0.00  0.00    -0.004 A 
ENDBRANCH   1   8
BRANCH   1  14
ATOM     14  C   UNL A   1     -27.808   0.821  26.462  0.00  0.00    -0.022 C 
ATOM     15  C   UNL A   1     -27.134   0.601  25.383  0.00  0.00    -0.024 C 
BRANCH  15  16
ATOM     16  C   UNL A   1     -25.725   0.256  25.432  0.00  0.00    +0.071 C 
BRANCH  16  17
ATOM     17  C   UNL A   1     -24.799   0.315  26.484  0.00  0.00    +0.063 A 
ATOM     18  C   UNL A   1     -23.904   1.333  26.800  0.00  0.00    +0.015 A 
ATOM     19  C   UNL A   1     -22.831   1.202  27.673  0.00  0.00    -0.002 A 
ATOM     20  C   UNL A   1     -22.675  -0.030  28.361  0.00  0.00    -0.003 A 
ATOM     21  C   UNL A   1     -21.617  -0.134  29.336  0.00  0.00    +0.033 C 
ATOM     22  N   UNL A   1     -24.563  -0.843  27.206  0.00  0.00    -0.248 NA
ATOM     23  C   UNL A   1     -23.585  -1.034  28.044  0.00  0.00    +0.094 A 
ENDBRANCH  16  17
ENDBRANCH  15  16
ENDBRANCH   1  14
TORSDOF 5
