MODEL 2080
MODEL 1
REMARK VINA RESULT:    -5.955      0.000      0.000
REMARK INTER + INTRA:          -6.378
REMARK INTER:                  -6.303
REMARK INTRA:                  -0.076
REMARK UNBOUND:                -0.076
REMARK  Name = No_2080-gen_results/8p0m/2024-11-27-11-27-31/
REMARK  1 active torsions:
REMARK  status: ('A' for Active; 'I' for Inactive)
REMARK    1  A    between atoms: C_8  and  C_11
REMARK                            x       y       z     vdW  Elec       q    Type
REMARK                         _______ _______ _______ _____ _____    ______ ____
ROOT
ATOM      1  C   UNL A   1     -23.958   1.695  26.410  0.00  0.00    +0.000 A 
ATOM      2  C   UNL A   1     -24.620   0.712  26.651  0.00  0.00    +0.000 A 
ATOM      3  C   UNL A   1     -24.273  -0.234  27.615  0.00  0.00    +0.000 A 
ATOM      4  C   UNL A   1     -23.026  -0.080  28.338  0.00  0.00    +0.000 A 
ATOM      5  C   UNL A   1     -22.302   1.085  27.998  0.00  0.00    +0.000 A 
ATOM      6  C   UNL A   1     -22.707   1.916  27.071  0.00  0.00    +0.000 A 
ATOM      7  C   UNL A   1     -25.041  -1.455  27.972  0.00  0.00    +0.004 A 
ATOM      8  C   UNL A   1     -24.736  -2.248  28.972  0.00  0.00    +0.050 A 
ATOM      9  C   UNL A   1     -23.528  -1.891  29.735  0.00  0.00    +0.004 A 
ATOM     10  C   UNL A   1     -22.706  -0.891  29.433  0.00  0.00    +0.000 A 
ENDROOT
BRANCH   8  11
ATOM     11  C   UNL A   1     -25.492  -3.410  29.384  0.00  0.00    +0.254 C 
ATOM     12 CL   UNL A   1     -25.076  -5.008  29.083  0.00  0.00    -0.038 Cl
ATOM     13  O   UNL A   1     -26.852  -3.244  29.655  0.00  0.00    -0.274 OA
ENDBRANCH   8  11
TORSDOF 1
ENDMDL
ENDMDL
