REMARK  Name = outputs/IAG933/test6/raw/output_2081_IAG933_linker_design_.xyz
REMARK  13 active torsions:
REMARK  status: ('A' for Active; 'I' for Inactive)
REMARK    1  A    between atoms: C_1  and  C_2
REMARK    2  A    between atoms: C_1  and  C_8
REMARK    3  A    between atoms: C_1  and  C_36
REMARK    4  A    between atoms: C_13  and  N_40
REMARK    5  A    between atoms: C_14  and  C_15
REMARK    6  A    between atoms: C_21  and  O_22
REMARK    7  A    between atoms: O_22  and  C_23
REMARK    8  A    between atoms: C_23  and  C_24
REMARK    9  A    between atoms: S_29  and  C_31
REMARK   10  A    between atoms: S_29  and  C_41
REMARK   11  A    between atoms: O_33  and  C_35
REMARK   12  A    between atoms: C_35  and  C_41
REMARK   13  A    between atoms: C_38  and  C_41
REMARK                            x       y       z     vdW  Elec       q    Type
REMARK                         _______ _______ _______ _____ _____    ______ ____
ROOT
ATOM      1  O   UNL A   1     -21.159   1.521  27.753  0.00  0.00    -0.222 OA
ATOM      2  C   UNL A   1     -22.554   1.363  28.157  0.00  0.00    +0.168 C 
ATOM      3  C   UNL A   1     -25.180   0.714  28.487  0.00  0.00    +0.107 C 
ATOM      4  C   UNL A   1     -22.837   0.067  28.950  0.00  0.00    +0.037 C 
ATOM      5  C   UNL A   1     -23.419   1.448  26.942  0.00  0.00    +0.106 C 
ATOM      6  C   UNL A   1     -24.390  -0.119  29.240  0.00  0.00    +0.033 C 
ATOM      7  N   UNL A   1     -24.791   1.243  27.366  0.00  0.00    -0.258 NA
ENDROOT
BRANCH   7   8
ATOM      8  C   UNL A   1     -25.688   1.614  26.461  0.00  0.00    +0.129 C 
ATOM      9  C   UNL A   1     -26.250   2.920  26.395  0.00  0.00    +0.070 C 
ATOM     10  C   UNL A   1     -27.438   3.091  25.645  0.00  0.00    +0.103 C 
ATOM     11  N   UNL A   1     -28.075   2.089  25.003  0.00  0.00    -0.212 NA
ATOM     12  C   UNL A   1     -27.543   0.849  25.079  0.00  0.00    +0.235 C 
ATOM     13  C   UNL A   1     -26.354   0.576  25.777  0.00  0.00    +0.255 C 
ATOM     14  F   UNL A   1     -25.860  -0.681  25.795  0.00  0.00    -0.225 F 
BRANCH   9  15
ATOM     15  C   UNL A   1     -25.642   4.093  27.123  0.00  0.00    +0.264 C 
ATOM     16  N   UNL A   1     -25.614   5.252  26.449  0.00  0.00    -0.200 NA
ATOM     17  C   UNL A   1     -25.026   6.479  26.963  0.00  0.00    +0.139 C 
ATOM     18  O   UNL A   1     -25.143   3.966  28.243  0.00  0.00    -0.269 OA
ENDBRANCH   9  15
BRANCH  12  19
ATOM     19  O   UNL A   1     -28.193  -0.208  24.477  0.00  0.00    -0.459 OA
BRANCH  19  20
ATOM     20  C   UNL A   1     -29.460   0.005  23.866  0.00  0.00    +0.242 C 
BRANCH  20  21
ATOM     21  C   UNL A   1     -30.065  -1.377  23.573  0.00  0.00    +0.229 C 
ATOM     22  O   UNL A   1     -30.729  -1.878  24.721  0.00  0.00    -0.216 OA
ENDBRANCH  20  21
ENDBRANCH  19  20
ENDBRANCH  12  19
ENDBRANCH   7   8
BRANCH   6  23
ATOM     23  C   UNL A   1     -24.855  -1.012  30.143  0.00  0.00    +0.041 C 
BRANCH  23  24
ATOM     24  C   UNL A   1     -24.973  -2.505  29.788  0.00  0.00    -0.021 C 
ATOM     25  C   UNL A   1     -23.906  -3.173  29.146  0.00  0.00    -0.004 C 
ATOM     26  C   UNL A   1     -23.989  -4.549  28.853  0.00  0.00    -0.000 C 
ATOM     27  C   UNL A   1     -25.137  -5.280  29.205  0.00  0.00    -0.000 C 
ATOM     28  C   UNL A   1     -26.232  -4.611  29.784  0.00  0.00    -0.000 C 
ATOM     29  C   UNL A   1     -26.155  -3.232  30.065  0.00  0.00    -0.004 C 
ENDBRANCH  23  24
BRANCH  23  30
ATOM     30  C   UNL A   1     -25.387  -0.679  31.571  0.00  0.00    +0.077 C 
ATOM     31  C   UNL A   1     -25.189   0.773  32.028  0.00  0.00    +0.019 C 
ATOM     32  C   UNL A   1     -25.336   0.684  33.544  0.00  0.00    +0.020 C 
ATOM     33  C   UNL A   1     -24.829  -0.715  33.905  0.00  0.00    +0.089 C 
ATOM     34  N   UNL A   1     -24.758  -1.481  32.646  0.00  0.00    -0.219 NA
ENDBRANCH  23  30
ENDBRANCH   6  23
BRANCH   3  35
ATOM     35  S   UNL A   1     -26.899   1.004  28.958  0.00  0.00    -0.113 S 
BRANCH  35  36
ATOM     36  C   UNL A   1     -28.707   1.305  28.965  0.00  0.00    +0.173 C 
BRANCH  36  37
ATOM     37  C   UNL A   1     -29.590   0.079  28.865  0.00  0.00    +0.286 C 
ATOM     38  O   UNL A   1     -29.912  -0.288  27.552  0.00  0.00    -0.189 OA
BRANCH  37  39
ATOM     39  O   UNL A   1     -28.800  -1.031  29.279  0.00  0.00    -0.325 OA
ATOM     40  C   UNL A   1     -28.870  -1.117  30.631  0.00  0.00    +0.177 C 
ENDBRANCH  37  39
ENDBRANCH  36  37
BRANCH  36  41
ATOM     41  C   UNL A   1     -28.977   1.661  30.452  0.00  0.00    +0.223 C 
ATOM     42  O   UNL A   1     -29.540   1.526  31.099  0.00  0.00    -0.287 OA
ENDBRANCH  36  41
ENDBRANCH  35  36
ENDBRANCH   3  35
TORSDOF 13
