MODEL 2081
MODEL 1
REMARK VINA RESULT:    -5.974      0.000      0.000
REMARK INTER + INTRA:          -7.988
REMARK INTER:                  -7.371
REMARK INTRA:                  -0.618
REMARK UNBOUND:                -0.618
REMARK  Name = No_2081-gen_results/8p0m/2024-11-27-11-27-31/
REMARK  4 active torsions:
REMARK  status: ('A' for Active; 'I' for Inactive)
REMARK    1  A    between atoms: C_3  and  C_7
REMARK    2  A    between atoms: C_6  and  C_13
REMARK    3  A    between atoms: C_13  and  N_14
REMARK    4  A    between atoms: N_14  and  C_15
REMARK                            x       y       z     vdW  Elec       q    Type
REMARK                         _______ _______ _______ _____ _____    ______ ____
ROOT
ATOM      1  C   UNL A   1     -27.937 -11.879  32.261  0.00  0.00    -0.003 A 
ATOM      2  C   UNL A   1     -28.243 -12.016  31.099  0.00  0.00    -0.000 A 
ATOM      3  C   UNL A   1     -29.143 -11.183  30.435  0.00  0.00    -0.000 A 
ATOM      4  C   UNL A   1     -29.803 -10.125  31.175  0.00  0.00    -0.000 A 
ATOM      5  C   UNL A   1     -29.436 -10.015  32.516  0.00  0.00    -0.003 A 
ATOM      6  C   UNL A   1     -28.582 -10.856  33.067  0.00  0.00    -0.001 A 
ENDROOT
BRANCH   3   7
ATOM      7  C   UNL A   1     -29.562 -11.283  29.007  0.00  0.00    -0.000 A 
ATOM      8  C   UNL A   1     -28.941 -12.046  28.158  0.00  0.00    -0.000 A 
ATOM      9  C   UNL A   1     -29.307 -12.071  26.769  0.00  0.00    +0.000 A 
ATOM     10  C   UNL A   1     -30.217 -11.231  26.227  0.00  0.00    +0.000 A 
ATOM     11  C   UNL A   1     -30.559 -10.344  28.471  0.00  0.00    -0.000 A 
ATOM     12  C   UNL A   1     -30.862 -10.356  27.077  0.00  0.00    +0.000 A 
ENDBRANCH   3   7
BRANCH   6  13
ATOM     13  C   UNL A   1     -28.291 -10.699  34.523  0.00  0.00    +0.139 C 
BRANCH  13  14
ATOM     14  N   UNL A   1     -27.124 -10.396  34.806  0.00  0.00    -0.232 NA
BRANCH  14  15
ATOM     15  C   UNL A   1     -26.772  -9.134  34.939  0.00  0.00    +0.081 C 
ATOM     16  C   UNL A   1     -27.473  -8.347  35.925  0.00  0.00    +0.019 C 
ENDBRANCH  14  15
ENDBRANCH  13  14
ENDBRANCH   6  13
TORSDOF 4
ENDMDL
ENDMDL
