MODEL 2083
MODEL 1
REMARK VINA RESULT:    -8.203      0.000      0.000
REMARK INTER + INTRA:         -12.318
REMARK INTER:                 -10.601
REMARK INTRA:                  -1.717
REMARK UNBOUND:                -1.717
REMARK  Name = No_2083-gen_results/8p0m/2024-11-27-11-27-31/
REMARK  5 active torsions:
REMARK  status: ('A' for Active; 'I' for Inactive)
REMARK    1  A    between atoms: C_2  and  C_7
REMARK    2  A    between atoms: C_6  and  C_13
REMARK    3  A    between atoms: C_11  and  C_17
REMARK    4  A    between atoms: C_20  and  C_34
REMARK    5  A    between atoms: C_22  and  C_24
REMARK                            x       y       z     vdW  Elec       q    Type
REMARK                         _______ _______ _______ _____ _____    ______ ____
ROOT
ATOM      1  C   UNL A   1     -10.000   0.086  36.878  0.00  0.00    +0.249 C 
ATOM      2  N   UNL A   1     -10.435   1.150  36.503  0.00  0.00    -0.276 N 
ATOM      3  O   UNL A   1      -8.728  -0.220  36.700  0.00  0.00    -0.270 OA
ATOM      4  C   UNL A   1      -9.671   2.085  35.652  0.00  0.00    +0.095 C 
ATOM      5  C   UNL A   1     -10.500   3.017  35.088  0.00  0.00    +0.039 C 
ATOM      6  C   UNL A   1     -11.520   3.357  35.729  0.00  0.00    +0.009 C 
ATOM      7  C   UNL A   1     -12.354   2.596  36.601  0.00  0.00    +0.042 C 
ATOM      8  C   UNL A   1     -11.790   1.479  36.884  0.00  0.00    +0.098 C 
ENDROOT
BRANCH   7   9
ATOM      9  C   UNL A   1     -13.698   2.997  36.994  0.00  0.00    -0.021 A 
ATOM     10  C   UNL A   1     -14.645   3.397  36.097  0.00  0.00    -0.004 A 
ATOM     11  C   UNL A   1     -15.942   3.736  36.544  0.00  0.00    -0.000 A 
ATOM     12  C   UNL A   1     -16.248   3.675  37.898  0.00  0.00    -0.000 A 
ATOM     13  C   UNL A   1     -14.094   2.928  38.365  0.00  0.00    -0.004 A 
ATOM     14  C   UNL A   1     -15.327   3.253  38.778  0.00  0.00    -0.000 A 
ATOM     15  C   UNL A   1     -17.649   4.024  38.361  0.00  0.00    -0.000 A 
ATOM     16  C   UNL A   1     -17.892   4.194  39.495  0.00  0.00    -0.000 A 
ATOM     17  C   UNL A   1     -16.891   3.741  40.566  0.00  0.00    -0.000 A 
ATOM     18  C   UNL A   1     -15.680   3.337  40.177  0.00  0.00    -0.000 A 
ENDBRANCH   7   9
BRANCH   1  24
ATOM     19  C   UNL A   1     -11.049  -0.364  39.201  0.00  0.00    +0.004 A 
ATOM     20  C   UNL A   1     -11.740  -1.037  39.932  0.00  0.00    +0.000 A 
ATOM     21  C   UNL A   1     -12.214  -2.280  39.528  0.00  0.00    +0.000 A 
ATOM     22  C   UNL A   1     -11.935  -2.787  38.209  0.00  0.00    +0.000 A 
ATOM     23  C   UNL A   1     -11.150  -1.935  37.422  0.00  0.00    +0.004 A 
ATOM     24  C   UNL A   1     -10.741  -0.760  37.845  0.00  0.00    +0.054 A 
BRANCH  20  25
ATOM     25  C   UNL A   1     -12.149  -0.661  41.312  0.00  0.00    +0.000 A 
ATOM     26  C   UNL A   1     -11.680  -0.761  42.215  0.00  0.00    +0.000 A 
ATOM     27  C   UNL A   1     -12.163  -0.455  43.612  0.00  0.00    +0.000 A 
ATOM     28  C   UNL A   1     -13.468  -0.020  43.746  0.00  0.00    +0.007 A 
ATOM     29  C   UNL A   1     -14.260   0.090  42.600  0.00  0.00    +0.080 A 
ATOM     30  C   UNL A   1     -13.707  -0.183  41.384  0.00  0.00    +0.007 A 
BRANCH  29  31
ATOM     31  C   UNL A   1     -15.635   0.543  42.719  0.00  0.00    +0.388 C 
ATOM     32  O   UNL A   1     -15.884   1.571  43.504  0.00  0.00    -0.241 OA
ATOM     33  O   UNL A   1     -16.628  -0.018  42.094  0.00  0.00    -0.241 OA
ENDBRANCH  29  31
ENDBRANCH  20  25
ENDBRANCH   1  24
BRANCH   5  34
ATOM     34  C   UNL A   1      -9.741   4.020  34.222  0.00  0.00    +0.111 C 
ATOM     35  N   UNL A   1     -10.282   5.012  33.858  0.00  0.00    -0.131 NA
ENDBRANCH   5  34
TORSDOF 5
ENDMDL
ENDMDL
