REMARK  Name = outputs/IAG933/test6/raw/output_2083_IAG933_linker_design_.xyz
REMARK  15 active torsions:
REMARK  status: ('A' for Active; 'I' for Inactive)
REMARK    1  A    between atoms: C_1  and  C_2
REMARK    2  A    between atoms: C_1  and  C_8
REMARK    3  A    between atoms: C_9  and  O_31
REMARK    4  A    between atoms: C_13  and  C_39
REMARK    5  A    between atoms: C_14  and  C_15
REMARK    6  A    between atoms: C_21  and  O_22
REMARK    7  A    between atoms: O_22  and  C_23
REMARK    8  A    between atoms: C_23  and  C_24
REMARK    9  A    between atoms: O_31  and  C_38
REMARK   10  A    between atoms: C_35  and  C_38
REMARK   11  A    between atoms: N_36  and  C_37
REMARK   12  A    between atoms: N_36  and  C_39
REMARK   13  A    between atoms: C_37  and  C_38
REMARK   14  A    between atoms: C_39  and  O_43
REMARK   15  A    between atoms: O_43  and  C_44
REMARK                            x       y       z     vdW  Elec       q    Type
REMARK                         _______ _______ _______ _____ _____    ______ ____
ROOT
ATOM      1  C   UNL A   1     -25.819   1.787  29.738  0.00  0.00    +0.125 C 
ENDROOT
BRANCH   1   2
ATOM      2  N   UNL A   1     -24.823   1.372  28.724  0.00  0.00    -0.189 NA
BRANCH   2   3
ATOM      3  C   UNL A   1     -24.730   1.074  27.502  0.00  0.00    +0.198 C 
BRANCH   3   4
ATOM      4  C   UNL A   1     -25.688   1.614  26.461  0.00  0.00    +0.114 C 
ATOM      5  C   UNL A   1     -26.250   2.920  26.395  0.00  0.00    +0.059 C 
ATOM      6  C   UNL A   1     -27.438   3.091  25.645  0.00  0.00    +0.102 C 
ATOM      7  N   UNL A   1     -28.075   2.089  25.003  0.00  0.00    -0.212 NA
ATOM      8  C   UNL A   1     -27.543   0.849  25.079  0.00  0.00    +0.234 C 
ATOM      9  C   UNL A   1     -26.354   0.576  25.777  0.00  0.00    +0.244 C 
ATOM     10  F   UNL A   1     -25.860  -0.681  25.795  0.00  0.00    -0.227 F 
BRANCH   5  11
ATOM     11  C   UNL A   1     -25.642   4.093  27.123  0.00  0.00    +0.263 C 
ATOM     12  N   UNL A   1     -25.614   5.252  26.449  0.00  0.00    -0.200 NA
ATOM     13  C   UNL A   1     -25.026   6.479  26.963  0.00  0.00    +0.139 C 
ATOM     14  O   UNL A   1     -25.143   3.966  28.243  0.00  0.00    -0.269 OA
ENDBRANCH   5  11
BRANCH   8  15
ATOM     15  O   UNL A   1     -28.193  -0.208  24.477  0.00  0.00    -0.459 OA
BRANCH  15  16
ATOM     16  C   UNL A   1     -29.460   0.005  23.866  0.00  0.00    +0.242 C 
BRANCH  16  17
ATOM     17  C   UNL A   1     -30.065  -1.377  23.573  0.00  0.00    +0.229 C 
ATOM     18  O   UNL A   1     -30.729  -1.878  24.721  0.00  0.00    -0.216 OA
ENDBRANCH  16  17
ENDBRANCH  15  16
ENDBRANCH   8  15
ENDBRANCH   3   4
BRANCH   3  19
ATOM     19  O   UNL A   1     -23.611   0.378  26.955  0.00  0.00    -0.326 OA
BRANCH  19  22
ATOM     20  C   UNL A   1     -21.364   1.460  27.808  0.00  0.00    +0.051 C 
ATOM     21 CL   UNL A   1     -22.825   2.511  25.810  0.00  0.00    -0.082 Cl
ATOM     22  C   UNL A   1     -22.764   1.649  27.161  0.00  0.00    +0.196 C 
ENDBRANCH  19  22
ENDBRANCH   3  19
ENDBRANCH   2   3
ENDBRANCH   1   2
BRANCH   1  23
ATOM     23  C   UNL A   1     -25.334   2.911  30.844  0.00  0.00    +0.158 C 
BRANCH  23  28
ATOM     24  C   UNL A   1     -27.168   4.779  31.075  0.00  0.00    +0.001 C 
ATOM     25  C   UNL A   1     -25.200   6.968  34.362  0.00  0.00    +0.034 C 
ATOM     26  C   UNL A   1     -25.823   6.311  33.121  0.00  0.00    +0.017 C 
ATOM     27  C   UNL A   1     -27.158   6.701  32.758  0.00  0.00    -0.001 C 
ATOM     28  C   UNL A   1     -25.877   4.287  31.468  0.00  0.00    +0.045 C 
ATOM     29  C   UNL A   1     -27.777   5.968  31.658  0.00  0.00    -0.000 C 
ATOM     30  O   UNL A   1     -23.900   4.826  32.718  0.00  0.00    -0.287 OA
ATOM     31  C   UNL A   1     -25.187   5.123  32.437  0.00  0.00    +0.190 C 
ENDBRANCH  23  28
BRANCH  23  32
ATOM     32  O   UNL A   1     -24.636   2.106  31.763  0.00  0.00    -0.351 OA
BRANCH  32  34
ATOM     33  C   UNL A   1     -25.387  -0.679  31.571  0.00  0.00    +0.104 C 
ATOM     34  C   UNL A   1     -25.189   0.773  32.028  0.00  0.00    +0.133 C 
ATOM     35  C   UNL A   1     -25.336   0.684  33.544  0.00  0.00    +0.050 C 
ATOM     36  C   UNL A   1     -24.829  -0.715  33.905  0.00  0.00    +0.091 C 
ATOM     37  N   UNL A   1     -24.758  -1.481  32.646  0.00  0.00    -0.217 NA
BRANCH  33  38
ATOM     38  C   UNL A   1     -24.855  -1.012  30.143  0.00  0.00    +0.046 C 
BRANCH  38  39
ATOM     39  C   UNL A   1     -24.973  -2.505  29.788  0.00  0.00    -0.021 C 
ATOM     40  C   UNL A   1     -23.906  -3.173  29.146  0.00  0.00    -0.004 C 
ATOM     41  C   UNL A   1     -23.989  -4.549  28.853  0.00  0.00    -0.000 C 
ATOM     42  C   UNL A   1     -25.137  -5.280  29.205  0.00  0.00    -0.000 C 
ATOM     43  C   UNL A   1     -26.232  -4.611  29.784  0.00  0.00    -0.000 C 
ATOM     44  C   UNL A   1     -26.155  -3.232  30.065  0.00  0.00    -0.004 C 
ENDBRANCH  38  39
ENDBRANCH  33  38
ENDBRANCH  32  34
ENDBRANCH  23  32
ENDBRANCH   1  23
TORSDOF 15
