MODEL 2084
MODEL 1
REMARK VINA RESULT:    -7.485      0.000      0.000
REMARK INTER + INTRA:         -11.287
REMARK INTER:                 -10.111
REMARK INTRA:                  -1.176
REMARK UNBOUND:                -1.176
REMARK  Name = No_2084-gen_results/8p0m/2024-11-27-11-27-31/
REMARK  6 active torsions:
REMARK  status: ('A' for Active; 'I' for Inactive)
REMARK    1  A    between atoms: C_2  and  C_7
REMARK    2  A    between atoms: C_3  and  C_16
REMARK    3  A    between atoms: N_9  and  C_10
REMARK    4  A    between atoms: N_9  and  C_26
REMARK    5  A    between atoms: N_17  and  C_18
REMARK    6  A    between atoms: C_18  and  C_19
REMARK                            x       y       z     vdW  Elec       q    Type
REMARK                         _______ _______ _______ _____ _____    ______ ____
ROOT
ATOM      1  C   UNL A   1     -24.437   2.282  28.009  0.00  0.00    +0.009 A 
ATOM      2  C   UNL A   1     -24.798   2.967  27.293  0.00  0.00    +0.054 A 
ATOM      3  C   UNL A   1     -23.298   1.444  27.602  0.00  0.00    +0.055 A 
ATOM      4  C   UNL A   1     -22.644   1.665  26.355  0.00  0.00    +0.005 A 
ATOM      5  C   UNL A   1     -24.275   3.425  25.977  0.00  0.00    +0.004 A 
ATOM      6  C   UNL A   1     -23.224   2.664  25.562  0.00  0.00    +0.000 A 
ENDROOT
BRANCH   2   7
ATOM      7  C   UNL A   1     -26.019   3.907  27.702  0.00  0.00    +0.253 C 
ATOM      8  O   UNL A   1     -25.982   4.748  28.434  0.00  0.00    -0.270 OA
ATOM      9  N   UNL A   1     -27.208   3.465  27.125  0.00  0.00    -0.255 N 
BRANCH   9  10
ATOM     10  C   UNL A   1     -27.373   2.454  26.172  0.00  0.00    +0.054 A 
ATOM     11  C   UNL A   1     -27.670   2.935  25.003  0.00  0.00    +0.015 A 
ATOM     12  C   UNL A   1     -27.778   1.997  23.889  0.00  0.00    +0.001 A 
ATOM     13  C   UNL A   1     -27.685   0.588  24.119  0.00  0.00    +0.000 A 
ATOM     14  C   UNL A   1     -27.453   0.188  25.438  0.00  0.00    +0.001 A 
ATOM     15  C   UNL A   1     -27.233   1.044  26.409  0.00  0.00    +0.015 A 
ENDBRANCH   9  10
BRANCH   9  16
ATOM     16  C   UNL A   1     -28.374   4.189  27.523  0.00  0.00    +0.099 C 
ATOM     17  C   UNL A   1     -29.316   3.602  28.159  0.00  0.00    +0.024 C 
ENDBRANCH   9  16
ENDBRANCH   2   7
BRANCH   3  18
ATOM     18  C   UNL A   1     -22.688   0.335  28.413  0.00  0.00    +0.265 C 
ATOM     19  N   UNL A   1     -23.436  -0.636  28.834  0.00  0.00    -0.197 NA
ATOM     20  O   UNL A   1     -21.496   0.358  28.569  0.00  0.00    -0.268 OA
BRANCH  19  21
ATOM     21  C   UNL A   1     -23.048  -1.859  28.955  0.00  0.00    +0.142 C 
BRANCH  21  22
ATOM     22  C   UNL A   1     -24.082  -2.885  29.063  0.00  0.00    -0.001 A 
ATOM     23  C   UNL A   1     -24.083  -3.985  28.890  0.00  0.00    -0.003 A 
ATOM     24  C   UNL A   1     -25.090  -5.019  29.059  0.00  0.00    -0.000 A 
ATOM     25  C   UNL A   1     -26.196  -4.523  29.594  0.00  0.00    -0.000 A 
ATOM     26  C   UNL A   1     -25.426  -2.425  29.626  0.00  0.00    -0.003 A 
ATOM     27  C   UNL A   1     -26.359  -3.170  29.876  0.00  0.00    -0.000 A 
ENDBRANCH  21  22
ENDBRANCH  19  21
ENDBRANCH   3  18
TORSDOF 6
ENDMDL
ENDMDL
