REMARK  Name = outputs/IAG933/test6/raw/output_2085_IAG933_linker_design_.xyz
REMARK  16 active torsions:
REMARK  status: ('A' for Active; 'I' for Inactive)
REMARK    1  A    between atoms: C_1  and  C_2
REMARK    2  A    between atoms: C_1  and  C_8
REMARK    3  A    between atoms: C_1  and  C_36
REMARK    4  A    between atoms: C_14  and  C_15
REMARK    5  A    between atoms: C_21  and  O_22
REMARK    6  A    between atoms: O_22  and  C_23
REMARK    7  A    between atoms: C_23  and  C_24
REMARK    8  A    between atoms: C_24  and  O_25
REMARK    9  A    between atoms: O_25  and  C_39
REMARK   10  A    between atoms: C_29  and  N_37
REMARK   11  A    between atoms: C_32  and  C_35
REMARK   12  A    between atoms: C_32  and  N_41
REMARK   13  A    between atoms: O_33  and  C_36
REMARK   14  A    between atoms: C_35  and  C_40
REMARK   15  A    between atoms: C_36  and  N_41
REMARK   16  A    between atoms: N_37  and  C_40
REMARK                            x       y       z     vdW  Elec       q    Type
REMARK                         _______ _______ _______ _____ _____    ______ ____
ROOT
ATOM      1  C   UNL A   1     -33.405  -0.892  27.139  0.00  0.00    +0.004 C 
ATOM      2  C   UNL A   1     -31.302   0.109  27.914  0.00  0.00    +0.068 C 
ATOM      3  C   UNL A   1     -32.775  -1.357  25.947  0.00  0.00    +0.037 C 
ATOM      4  C   UNL A   1     -32.683  -0.138  28.093  0.00  0.00    +0.016 C 
ATOM      5  C   UNL A   1     -30.613  -0.472  26.776  0.00  0.00    +0.053 C 
ATOM      6  C   UNL A   1     -31.339  -1.227  25.769  0.00  0.00    +0.140 C 
ENDROOT
BRANCH   2   7
ATOM      7  N   UNL A   1     -30.618   1.033  28.918  0.00  0.00    -0.237 NA
BRANCH   7   8
ATOM      8  C   UNL A   1     -29.139   0.963  28.914  0.00  0.00    +0.114 C 
BRANCH   8   9
ATOM      9  C   UNL A   1     -28.595  -0.449  29.133  0.00  0.00    +0.042 C 
BRANCH   9  10
ATOM     10  C   UNL A   1     -27.161  -0.575  28.618  0.00  0.00    +0.093 C 
BRANCH  10  11
ATOM     11  N   UNL A   1     -26.143   0.494  28.911  0.00  0.00    -0.192 NA
BRANCH  11  12
ATOM     12  C   UNL A   1     -24.596  -0.049  28.891  0.00  0.00    +0.195 C 
BRANCH  12  13
ATOM     13  O   UNL A   1     -23.096   0.219  28.628  0.00  0.00    -0.337 OA
ATOM     14  C   UNL A   1     -22.003   1.160  28.205  0.00  0.00    +0.176 C 
ENDBRANCH  12  13
BRANCH  12  15
ATOM     15  C   UNL A   1     -24.855  -1.012  30.143  0.00  0.00    +0.083 C 
BRANCH  15  16
ATOM     16  C   UNL A   1     -24.973  -2.505  29.788  0.00  0.00    -0.017 C 
ATOM     17  C   UNL A   1     -23.906  -3.173  29.146  0.00  0.00    -0.004 C 
ATOM     18  C   UNL A   1     -23.989  -4.549  28.853  0.00  0.00    -0.000 C 
ATOM     19  C   UNL A   1     -25.137  -5.280  29.205  0.00  0.00    -0.000 C 
ATOM     20  C   UNL A   1     -26.232  -4.611  29.784  0.00  0.00    -0.000 C 
ATOM     21  C   UNL A   1     -26.155  -3.232  30.065  0.00  0.00    -0.004 C 
ENDBRANCH  15  16
BRANCH  15  22
ATOM     22  C   UNL A   1     -25.387  -0.679  31.571  0.00  0.00    +0.081 C 
ATOM     23  C   UNL A   1     -25.189   0.773  32.028  0.00  0.00    +0.019 C 
ATOM     24  C   UNL A   1     -25.336   0.684  33.544  0.00  0.00    +0.020 C 
ATOM     25  C   UNL A   1     -24.829  -0.715  33.905  0.00  0.00    +0.089 C 
ATOM     26  N   UNL A   1     -24.758  -1.481  32.646  0.00  0.00    -0.219 NA
ENDBRANCH  15  22
ENDBRANCH  12  15
ENDBRANCH  11  12
ENDBRANCH  10  11
ENDBRANCH   9  10
ENDBRANCH   8   9
ENDBRANCH   7   8
ENDBRANCH   2   7
BRANCH   6  27
ATOM     27  O   UNL A   1     -30.729  -1.878  24.721  0.00  0.00    -0.471 OA
BRANCH  27  28
ATOM     28  C   UNL A   1     -30.065  -1.377  23.573  0.00  0.00    +0.253 C 
BRANCH  28  29
ATOM     29  C   UNL A   1     -29.460   0.005  23.866  0.00  0.00    +0.254 C 
BRANCH  29  30
ATOM     30  O   UNL A   1     -28.193  -0.208  24.477  0.00  0.00    -0.457 OA
BRANCH  30  35
ATOM     31  C   UNL A   1     -25.688   1.614  26.461  0.00  0.00    +0.025 C 
ATOM     32  C   UNL A   1     -26.250   2.920  26.395  0.00  0.00    +0.073 C 
ATOM     33  C   UNL A   1     -27.438   3.091  25.645  0.00  0.00    +0.106 C 
ATOM     34  N   UNL A   1     -28.075   2.089  25.003  0.00  0.00    -0.211 NA
ATOM     35  C   UNL A   1     -27.543   0.849  25.079  0.00  0.00    +0.238 C 
ATOM     36  C   UNL A   1     -26.354   0.576  25.777  0.00  0.00    +0.258 C 
ATOM     37  F   UNL A   1     -25.860  -0.681  25.795  0.00  0.00    -0.222 F 
ATOM     38  C   UNL A   1     -24.410   1.471  26.874  0.00  0.00    -0.001 C 
BRANCH  32  39
ATOM     39  C   UNL A   1     -25.642   4.093  27.123  0.00  0.00    +0.266 C 
ATOM     40  N   UNL A   1     -25.614   5.252  26.449  0.00  0.00    -0.200 NA
ATOM     41  C   UNL A   1     -25.026   6.479  26.963  0.00  0.00    +0.139 C 
ATOM     42  O   UNL A   1     -25.143   3.966  28.243  0.00  0.00    -0.268 OA
ENDBRANCH  32  39
ENDBRANCH  30  35
ENDBRANCH  29  30
ENDBRANCH  28  29
ENDBRANCH  27  28
ENDBRANCH   6  27
TORSDOF 16
