MODEL 2085
MODEL 1
REMARK VINA RESULT:    -4.519      0.000      0.000
REMARK INTER + INTRA:          -4.519
REMARK INTER:                  -4.519
REMARK INTRA:                   0.000
REMARK UNBOUND:                 0.000
REMARK  Name = No_2085-gen_results/8p0m/2024-11-27-11-27-31/
REMARK  0 active torsions:
REMARK  status: ('A' for Active; 'I' for Inactive)
REMARK                            x       y       z     vdW  Elec       q    Type
REMARK                         _______ _______ _______ _____ _____    ______ ____
ROOT
ATOM      1  C   UNL A   1     -10.297  -9.085  19.459  0.00  0.00    +0.002 A 
ATOM      2  C   UNL A   1      -9.380  -9.172  20.244  0.00  0.00    +0.030 A 
ATOM      3  C   UNL A   1      -8.216  -9.896  19.992  0.00  0.00    +0.140 A 
ATOM      4  C   UNL A   1      -8.101 -10.640  18.752  0.00  0.00    +0.030 A 
ATOM      5  C   UNL A   1      -9.213 -10.498  17.890  0.00  0.00    +0.002 A 
ATOM      6  C   UNL A   1     -10.269  -9.798  18.218  0.00  0.00    +0.000 A 
ATOM      7  F   UNL A   1      -7.198 -10.030  20.836  0.00  0.00    -0.204 F 
ENDROOT
TORSDOF 0
ENDMDL
ENDMDL
