MODEL 2086
MODEL 1
REMARK VINA RESULT:    -4.789      0.000      0.000
REMARK INTER + INTRA:          -5.474
REMARK INTER:                  -5.349
REMARK INTRA:                  -0.125
REMARK UNBOUND:                -0.125
REMARK  Name = No_2086-gen_results/8p0m/2024-11-27-11-27-31/
REMARK  2 active torsions:
REMARK  status: ('A' for Active; 'I' for Inactive)
REMARK    1  A    between atoms: C_3  and  C_8
REMARK    2  A    between atoms: C_8  and  N_9
REMARK                            x       y       z     vdW  Elec       q    Type
REMARK                         _______ _______ _______ _____ _____    ______ ____
ROOT
ATOM      1  O   UNL A   1     -14.500 -18.901  19.157  0.00  0.00    -0.273 OA
ATOM      2  C   UNL A   1     -13.499 -19.469  18.705  0.00  0.00    +0.243 C 
ATOM      3  C   UNL A   1     -13.061 -20.613  19.081  0.00  0.00    +0.103 C 
ATOM      4  N   UNL A   1     -13.024 -19.078  17.412  0.00  0.00    -0.205 NA
ATOM      5  C   UNL A   1     -11.871 -21.274  18.576  0.00  0.00    +0.013 C 
ATOM      6  C   UNL A   1     -11.886 -19.652  16.781  0.00  0.00    +0.115 C 
ATOM      7  C   UNL A   1     -11.342 -20.775  17.369  0.00  0.00    +0.024 C 
ENDROOT
BRANCH   3   8
ATOM      8  C   UNL A   1     -13.549 -21.177  20.390  0.00  0.00    +0.148 C 
BRANCH   8   9
ATOM      9  N   UNL A   1     -12.908 -20.899  21.387  0.00  0.00    -0.193 NA
ATOM     10  C   UNL A   1     -13.084 -21.232  22.550  0.00  0.00    +0.235 C 
ATOM     11  O   UNL A   1     -12.360 -20.871  23.579  0.00  0.00    -0.210 OA
ENDBRANCH   8   9
ENDBRANCH   3   8
TORSDOF 2
ENDMDL
ENDMDL
