REMARK  Name = No_2086-gen_results/8p0m/2024-11-27-11-27-31/
REMARK  2 active torsions:
REMARK  status: ('A' for Active; 'I' for Inactive)
REMARK    1  A    between atoms: C_3  and  C_8
REMARK    2  A    between atoms: C_8  and  N_9
REMARK                            x       y       z     vdW  Elec       q    Type
REMARK                         _______ _______ _______ _____ _____    ______ ____
ROOT
ATOM      1  O   UNL A   1     -28.123  -1.335  28.487  0.00  0.00    -0.273 OA
ATOM      2  C   UNL A   1     -27.064  -0.824  28.869  0.00  0.00    +0.243 C 
ATOM      3  C   UNL A   1     -26.959   0.093  29.758  0.00  0.00    +0.103 C 
ATOM      4  N   UNL A   1     -25.847  -1.549  28.659  0.00  0.00    -0.205 NA
ATOM      5  C   UNL A   1     -25.722   0.718  30.192  0.00  0.00    +0.013 C 
ATOM      6  C   UNL A   1     -24.565  -1.074  29.051  0.00  0.00    +0.115 C 
ATOM      7  C   UNL A   1     -24.529   0.051  29.848  0.00  0.00    +0.024 C 
ENDROOT
BRANCH   3   8
ATOM      8  C   UNL A   1     -28.189   0.878  30.132  0.00  0.00    +0.148 C 
BRANCH   8   9
ATOM      9  N   UNL A   1     -28.930   0.385  30.963  0.00  0.00    -0.193 NA
ATOM     10  C   UNL A   1     -30.148   0.433  31.054  0.00  0.00    +0.235 C 
ATOM     11  O   UNL A   1     -30.878  -0.108  31.996  0.00  0.00    -0.210 OA
ENDBRANCH   8   9
ENDBRANCH   3   8
TORSDOF 2
