REMARK  Name = No_2088-gen_results/8p0m/2024-11-27-11-27-31/
REMARK  1 active torsions:
REMARK  status: ('A' for Active; 'I' for Inactive)
REMARK    1  A    between atoms: C_2  and  C_18
REMARK                            x       y       z     vdW  Elec       q    Type
REMARK                         _______ _______ _______ _____ _____    ______ ____
ROOT
ATOM      1  C   UNL A   1     -28.016  -0.814  28.878  0.00  0.00    +0.021 A 
ATOM      2  C   UNL A   1     -28.469  -0.785  29.829  0.00  0.00    +0.081 A 
ATOM      3  C   UNL A   1     -26.546  -0.876  28.850  0.00  0.00    +0.048 A 
ATOM      4  C   UNL A   1     -25.804  -1.032  30.057  0.00  0.00    -0.004 A 
ATOM      5  C   UNL A   1     -24.370  -1.100  30.072  0.00  0.00    +0.055 C 
ATOM      6  C   UNL A   1     -27.990  -1.005  31.209  0.00  0.00    +0.006 A 
ATOM      7  C   UNL A   1     -26.562  -1.137  31.260  0.00  0.00    -0.003 A 
ATOM      8  C   UNL A   1     -23.634  -0.782  29.067  0.00  0.00    -0.004 A 
ATOM      9  C   UNL A   1     -22.176  -0.678  29.166  0.00  0.00    -0.003 A 
ATOM     10  C   UNL A   1     -21.440  -0.130  28.121  0.00  0.00    -0.001 A 
ATOM     11  C   UNL A   1     -22.101   0.877  27.308  0.00  0.00    -0.003 A 
ATOM     12  C   UNL A   1     -23.547   0.996  27.364  0.00  0.00    -0.009 A 
ATOM     13  C   UNL A   1     -24.263   0.302  28.249  0.00  0.00    +0.044 A 
ATOM     14  N   UNL A   1     -25.733  -0.293  27.860  0.00  0.00    -0.288 N 
ATOM     15  C   UNL A   1     -26.206   0.130  26.596  0.00  0.00    +0.096 C 
ATOM     16  C   UNL A   1     -25.890   1.383  26.109  0.00  0.00    +0.026 C 
ATOM     17  C   UNL A   1     -24.214   1.742  26.229  0.00  0.00    +0.029 C 
ENDROOT
BRANCH   2  18
ATOM     18  C   UNL A   1     -30.087  -0.772  29.868  0.00  0.00    +0.388 C 
ATOM     19  O   UNL A   1     -30.731  -1.539  30.349  0.00  0.00    -0.241 OA
ATOM     20  O   UNL A   1     -30.589   0.209  29.192  0.00  0.00    -0.241 OA
ENDBRANCH   2  18
TORSDOF 1
