REMARK  Name = No_2089-gen_results/8p0m/2024-11-27-11-27-31/
REMARK  2 active torsions:
REMARK  status: ('A' for Active; 'I' for Inactive)
REMARK    1  A    between atoms: C_1  and  N_8
REMARK    2  A    between atoms: C_5  and  C_11
REMARK                            x       y       z     vdW  Elec       q    Type
REMARK                         _______ _______ _______ _____ _____    ______ ____
ROOT
ATOM      1  C   UNL A   1     -28.016  -0.814  28.878  0.00  0.00    +0.053 C 
ATOM      2  C   UNL A   1     -27.064  -0.119  28.608  0.00  0.00    -0.030 C 
ATOM      3  C   UNL A   1     -25.765  -0.390  29.036  0.00  0.00    +0.024 C 
ATOM      4  C   UNL A   1     -24.552   0.406  28.765  0.00  0.00    +0.010 C 
ATOM      5  C   UNL A   1     -24.696   1.448  27.799  0.00  0.00    +0.044 C 
ATOM      6  C   UNL A   1     -25.976   1.725  27.308  0.00  0.00    +0.010 C 
ATOM      7  C   UNL A   1     -27.072   1.013  27.654  0.00  0.00    +0.024 C 
ENDROOT
BRANCH   1   8
ATOM      8  N   UNL A   1     -29.183  -0.148  29.117  0.00  0.00    -0.304 N 
ATOM      9  C   UNL A   1     -29.612   0.112  30.337  0.00  0.00    +0.112 C 
ATOM     10  C   UNL A   1     -30.050   0.029  28.010  0.00  0.00    +0.112 C 
ENDBRANCH   1   8
BRANCH   5  11
ATOM     11  C   UNL A   1     -23.507   2.234  27.532  0.00  0.00    +0.095 C 
ATOM     12  N   UNL A   1     -22.546   1.977  27.383  0.00  0.00    -0.151 NA
ENDBRANCH   5  11
TORSDOF 2
