MODEL 208
MODEL 1
REMARK VINA RESULT:    -6.988      0.000      0.000
REMARK INTER + INTRA:         -11.337
REMARK INTER:                  -9.030
REMARK INTRA:                  -2.307
REMARK UNBOUND:                -2.307
REMARK  Name = No_208-gen_results/8p0m/2024-11-27-11-27-31/
REMARK  5 active torsions:
REMARK  status: ('A' for Active; 'I' for Inactive)
REMARK    1  A    between atoms: C_2  and  C_7
REMARK    2  A    between atoms: C_7  and  C_8
REMARK    3  A    between atoms: C_7  and  C_14
REMARK    4  A    between atoms: C_15  and  C_16
REMARK    5  A    between atoms: C_16  and  C_17
REMARK                            x       y       z     vdW  Elec       q    Type
REMARK                         _______ _______ _______ _____ _____    ______ ____
ROOT
ATOM      1  C   UNL A   1     -23.897  -1.069  29.186  0.00  0.00    +0.066 C 
ENDROOT
BRANCH   1   3
ATOM      2  C   UNL A   1     -25.749  -2.531  29.616  0.00  0.00    -0.004 A 
ATOM      3  C   UNL A   1     -24.605  -2.375  29.255  0.00  0.00    -0.014 A 
ATOM      4  C   UNL A   1     -23.831  -3.453  28.838  0.00  0.00    -0.004 A 
ATOM      5  C   UNL A   1     -24.352  -4.795  28.868  0.00  0.00    -0.000 A 
ATOM      6  C   UNL A   1     -25.674  -4.887  29.321  0.00  0.00    -0.000 A 
ATOM      7  C   UNL A   1     -26.358  -3.839  29.720  0.00  0.00    -0.000 A 
ENDBRANCH   1   3
BRANCH   1   8
ATOM      8  C   UNL A   1     -23.749  -0.305  28.244  0.00  0.00    -0.014 A 
ATOM      9  C   UNL A   1     -22.714   0.731  28.141  0.00  0.00    -0.004 A 
ATOM     10  C   UNL A   1     -22.620   1.714  27.079  0.00  0.00    -0.000 A 
ATOM     11  C   UNL A   1     -23.600   1.643  26.099  0.00  0.00    -0.000 A 
ATOM     12  C   UNL A   1     -24.622   0.731  26.159  0.00  0.00    -0.000 A 
ATOM     13  C   UNL A   1     -24.747  -0.189  27.172  0.00  0.00    -0.004 A 
ENDBRANCH   1   8
BRANCH   1  14
ATOM     14  C   UNL A   1     -23.242  -0.751  30.499  0.00  0.00    -0.022 C 
ATOM     15  C   UNL A   1     -23.780   0.091  31.316  0.00  0.00    -0.024 C 
BRANCH  15  16
ATOM     16  C   UNL A   1     -25.173   0.479  31.189  0.00  0.00    +0.071 C 
BRANCH  16  17
ATOM     17  C   UNL A   1     -25.800   1.386  30.322  0.00  0.00    +0.063 A 
ATOM     18  C   UNL A   1     -26.972   1.221  29.588  0.00  0.00    +0.015 A 
ATOM     19  C   UNL A   1     -27.374   2.043  28.542  0.00  0.00    -0.002 A 
ATOM     20  C   UNL A   1     -26.582   3.184  28.246  0.00  0.00    -0.003 A 
ATOM     21  C   UNL A   1     -27.050   4.087  27.222  0.00  0.00    +0.033 C 
ATOM     22  N   UNL A   1     -25.101   2.524  29.957  0.00  0.00    -0.248 NA
ATOM     23  C   UNL A   1     -25.421   3.342  28.996  0.00  0.00    +0.094 A 
ENDBRANCH  16  17
ENDBRANCH  15  16
ENDBRANCH   1  14
TORSDOF 5
ENDMDL
ENDMDL
