MODEL 2090
MODEL 1
REMARK VINA RESULT:    -6.868      0.000      0.000
REMARK INTER + INTRA:          -7.595
REMARK INTER:                  -7.269
REMARK INTRA:                  -0.326
REMARK UNBOUND:                -0.326
REMARK  Name = No_2090-gen_results/8p0m/2024-11-27-11-27-31/
REMARK  1 active torsions:
REMARK  status: ('A' for Active; 'I' for Inactive)
REMARK    1  A    between atoms: C_3  and  C_7
REMARK                            x       y       z     vdW  Elec       q    Type
REMARK                         _______ _______ _______ _____ _____    ______ ____
ROOT
ATOM      1  C   UNL A   1     -21.826  -0.113  28.904  0.00  0.00    +0.030 A 
ATOM      2  C   UNL A   1     -22.393  -1.131  29.228  0.00  0.00    +0.002 A 
ATOM      3  C   UNL A   1     -23.673  -1.473  28.794  0.00  0.00    +0.000 A 
ATOM      4  C   UNL A   1     -24.405  -0.544  27.954  0.00  0.00    +0.002 A 
ATOM      5  C   UNL A   1     -23.722   0.624  27.621  0.00  0.00    +0.030 A 
ATOM      6  C   UNL A   1     -22.513   0.873  28.086  0.00  0.00    +0.140 A 
ATOM      7  F   UNL A   1     -21.919   2.017  27.739  0.00  0.00    -0.204 F 
ENDROOT
BRANCH   3   8
ATOM      8  C   UNL A   1     -24.441  -2.710  29.144  0.00  0.00    +0.000 A 
ATOM      9  C   UNL A   1     -24.022  -3.895  28.800  0.00  0.00    +0.000 A 
ATOM     10  C   UNL A   1     -24.804  -5.061  29.060  0.00  0.00    +0.000 A 
ATOM     11  C   UNL A   1     -26.096  -4.992  29.522  0.00  0.00    +0.000 A 
ATOM     12  C   UNL A   1     -25.807  -2.603  29.678  0.00  0.00    +0.000 A 
ATOM     13  C   UNL A   1     -26.586  -3.767  29.876  0.00  0.00    +0.000 A 
ENDBRANCH   3   8
TORSDOF 1
ENDMDL
ENDMDL
