REMARK  Name = No_2091-gen_results/8p0m/2024-11-27-11-27-31/
REMARK  3 active torsions:
REMARK  status: ('A' for Active; 'I' for Inactive)
REMARK    1  A    between atoms: C_2  and  C_5
REMARK    2  A    between atoms: C_4  and  C_6
REMARK    3  A    between atoms: C_7  and  C_17
REMARK                            x       y       z     vdW  Elec       q    Type
REMARK                         _______ _______ _______ _____ _____    ______ ____
ROOT
ATOM      1  C   UNL A   1     -24.367  -0.819  30.138  0.00  0.00    +0.029 C 
ATOM      2  C   UNL A   1     -23.823   0.508  30.123  0.00  0.00    +0.107 C 
ATOM      3  C   UNL A   1     -22.687   0.659  29.257  0.00  0.00    +0.012 C 
ATOM      4  C   UNL A   1     -21.935  -0.470  28.925  0.00  0.00    +0.001 C 
ATOM      5  C   UNL A   1     -22.508  -1.720  29.017  0.00  0.00    +0.000 C 
ATOM      6  C   UNL A   1     -23.762  -1.735  29.201  0.00  0.00    +0.005 C 
ATOM      7  C   UNL A   1     -23.918  -1.329  31.648  0.00  0.00    +0.005 C 
ENDROOT
BRANCH   1  11
ATOM      8  C   UNL A   1     -28.016  -0.814  28.878  0.00  0.00    +0.006 A 
ATOM      9  C   UNL A   1     -28.469  -0.785  29.829  0.00  0.00    +0.080 A 
ATOM     10  C   UNL A   1     -26.504  -0.778  28.877  0.00  0.00    -0.004 A 
ATOM     11  C   UNL A   1     -25.810  -0.853  30.103  0.00  0.00    -0.022 A 
ATOM     12  C   UNL A   1     -27.914  -0.959  31.209  0.00  0.00    +0.006 A 
ATOM     13  C   UNL A   1     -26.526  -0.972  31.302  0.00  0.00    -0.004 A 
BRANCH   9  14
ATOM     14  C   UNL A   1     -30.014  -0.841  29.851  0.00  0.00    +0.388 C 
ATOM     15  O   UNL A   1     -30.500  -0.364  28.922  0.00  0.00    -0.241 OA
ATOM     16  O   UNL A   1     -30.704  -1.000  30.970  0.00  0.00    -0.241 OA
ENDBRANCH   9  14
ENDBRANCH   1  11
BRANCH   2  17
ATOM     17  C   UNL A   1     -24.351   1.682  30.817  0.00  0.00    +0.365 C 
ATOM     18  O   UNL A   1     -24.840   2.658  30.185  0.00  0.00    -0.246 OA
ATOM     19  O   UNL A   1     -24.264   1.755  32.138  0.00  0.00    -0.246 OA
ENDBRANCH   2  17
TORSDOF 3
