MODEL 2091
MODEL 1
REMARK VINA RESULT:    -6.319      0.000      0.000
REMARK INTER + INTRA:          -8.148
REMARK INTER:                  -7.427
REMARK INTRA:                  -0.721
REMARK UNBOUND:                -0.721
REMARK  Name = No_2091-gen_results/8p0m/2024-11-27-11-27-31/
REMARK  3 active torsions:
REMARK  status: ('A' for Active; 'I' for Inactive)
REMARK    1  A    between atoms: C_2  and  C_5
REMARK    2  A    between atoms: C_4  and  C_6
REMARK    3  A    between atoms: C_7  and  C_17
REMARK                            x       y       z     vdW  Elec       q    Type
REMARK                         _______ _______ _______ _____ _____    ______ ____
ROOT
ATOM      1  C   UNL A   1     -23.690   1.090  27.716  0.00  0.00    +0.029 C 
ATOM      2  C   UNL A   1     -24.352   2.078  28.518  0.00  0.00    +0.107 C 
ATOM      3  C   UNL A   1     -24.875   3.182  27.763  0.00  0.00    +0.012 C 
ATOM      4  C   UNL A   1     -24.321   3.470  26.514  0.00  0.00    +0.001 C 
ATOM      5  C   UNL A   1     -23.649   2.484  25.824  0.00  0.00    +0.000 C 
ATOM      6  C   UNL A   1     -23.767   1.311  26.292  0.00  0.00    +0.005 C 
ATOM      7  C   UNL A   1     -22.111   1.339  28.145  0.00  0.00    +0.005 C 
ENDROOT
BRANCH   1  11
ATOM      8  C   UNL A   1     -25.561  -2.258  28.165  0.00  0.00    +0.006 A 
ATOM      9  C   UNL A   1     -24.840  -2.713  28.784  0.00  0.00    +0.080 A 
ATOM     10  C   UNL A   1     -25.259  -0.833  27.755  0.00  0.00    -0.004 A 
ATOM     11  C   UNL A   1     -24.010  -0.268  28.090  0.00  0.00    -0.022 A 
ATOM     12  C   UNL A   1     -23.443  -2.319  29.153  0.00  0.00    +0.006 A 
ATOM     13  C   UNL A   1     -23.063  -1.033  28.785  0.00  0.00    -0.004 A 
BRANCH   9  14
ATOM     14  C   UNL A   1     -25.122  -4.176  29.198  0.00  0.00    +0.388 C 
ATOM     15  O   UNL A   1     -26.075  -4.294  29.834  0.00  0.00    -0.241 OA
ATOM     16  O   UNL A   1     -24.178  -5.105  29.213  0.00  0.00    -0.241 OA
ENDBRANCH   9  14
ENDBRANCH   1  11
BRANCH   2  17
ATOM     17  C   UNL A   1     -24.599   2.019  29.958  0.00  0.00    +0.365 C 
ATOM     18  O   UNL A   1     -25.759   1.845  30.423  0.00  0.00    -0.246 OA
ATOM     19  O   UNL A   1     -23.595   2.210  30.803  0.00  0.00    -0.246 OA
ENDBRANCH   2  17
TORSDOF 3
ENDMDL
ENDMDL
