MODEL 2092
MODEL 1
REMARK VINA RESULT:    -7.043      0.000      0.000
REMARK INTER + INTRA:          -8.178
REMARK INTER:                  -7.867
REMARK INTRA:                  -0.312
REMARK UNBOUND:                -0.312
REMARK  Name = No_2092-gen_results/8p0m/2024-11-27-11-27-31/
REMARK  2 active torsions:
REMARK  status: ('A' for Active; 'I' for Inactive)
REMARK    1  A    between atoms: C_1  and  C_2
REMARK    2  A    between atoms: C_1  and  C_12
REMARK                            x       y       z     vdW  Elec       q    Type
REMARK                         _______ _______ _______ _____ _____    ______ ____
ROOT
ATOM      1  C   UNL A   1     -25.248  -0.330  30.081  0.00  0.00    +0.068 A 
ATOM      2  N   UNL A   1     -24.510  -1.245  29.436  0.00  0.00    -0.249 NA
ATOM      3  C   UNL A   1     -24.829  -2.572  29.206  0.00  0.00    +0.081 A 
ATOM      4  C   UNL A   1     -23.931  -3.534  28.565  0.00  0.00    +0.019 A 
ATOM      5  C   UNL A   1     -26.483  -0.846  30.667  0.00  0.00    +0.015 A 
ATOM      6  C   UNL A   1     -26.908  -2.204  30.558  0.00  0.00    +0.003 A 
ATOM      7  C   UNL A   1     -26.012  -3.170  29.791  0.00  0.00    +0.018 A 
ATOM      8  C   UNL A   1     -24.162  -4.865  28.623  0.00  0.00    +0.002 A 
ATOM      9  C   UNL A   1     -25.338  -5.357  29.197  0.00  0.00    +0.000 A 
ATOM     10  C   UNL A   1     -26.304  -4.526  29.749  0.00  0.00    +0.002 A 
ENDROOT
BRANCH   1  11
ATOM     11  C   UNL A   1     -24.895   0.809  30.282  0.00  0.00    +0.131 C 
BRANCH  11  12
ATOM     12  C   UNL A   1     -25.065   1.709  29.046  0.00  0.00    +0.232 C 
ATOM     13  O   UNL A   1     -26.253   2.135  28.817  0.00  0.00    -0.274 OA
ATOM     14  N   UNL A   1     -24.139   1.884  28.117  0.00  0.00    -0.279 N 
ATOM     15  C   UNL A   1     -22.761   1.474  28.248  0.00  0.00    +0.093 C 
ATOM     16  C   UNL A   1     -22.066   1.699  27.187  0.00  0.00    +0.022 C 
ATOM     17  C   UNL A   1     -22.592   2.268  26.066  0.00  0.00    +0.004 C 
ATOM     18  C   UNL A   1     -23.890   2.649  25.927  0.00  0.00    +0.022 C 
ATOM     19  C   UNL A   1     -24.728   2.465  27.001  0.00  0.00    +0.093 C 
ENDBRANCH  11  12
ENDBRANCH   1  11
TORSDOF 2
ENDMDL
ENDMDL
