MODEL 2093
MODEL 1
REMARK VINA RESULT:    -7.500      0.000      0.000
REMARK INTER + INTRA:          -8.318
REMARK INTER:                  -7.938
REMARK INTRA:                  -0.380
REMARK UNBOUND:                -0.380
REMARK  Name = No_2093-gen_results/8p0m/2024-11-27-11-27-31/
REMARK  1 active torsions:
REMARK  status: ('A' for Active; 'I' for Inactive)
REMARK    1  A    between atoms: C_3  and  C_7
REMARK                            x       y       z     vdW  Elec       q    Type
REMARK                         _______ _______ _______ _____ _____    ______ ____
ROOT
ATOM      1  C   UNL A   1     -24.255  -1.216  29.517  0.00  0.00    +0.048 C 
ATOM      2  C   UNL A   1     -24.556  -0.389  28.424  0.00  0.00    -0.004 A 
ATOM      3  C   UNL A   1     -23.648  -0.719  30.646  0.00  0.00    +0.032 C 
ATOM      4  C   UNL A   1     -23.485   0.655  30.761  0.00  0.00    +0.113 C 
ATOM      5  C   UNL A   1     -25.277  -0.848  27.261  0.00  0.00    -0.003 A 
ATOM      6  C   UNL A   1     -25.271   0.003  26.170  0.00  0.00    -0.000 A 
ATOM      7  C   UNL A   1     -24.302   1.030  26.024  0.00  0.00    +0.001 A 
ATOM      8  C   UNL A   1     -23.390   1.263  27.023  0.00  0.00    +0.016 A 
ATOM      9  C   UNL A   1     -23.479   0.568  28.206  0.00  0.00    +0.062 A 
ATOM     10  N   UNL A   1     -23.260   1.443  29.430  0.00  0.00    -0.238 NA
ENDROOT
BRANCH   1  13
ATOM     11  C   UNL A   1     -23.801  -3.605  28.700  0.00  0.00    -0.004 A 
ATOM     12  C   UNL A   1     -24.146  -4.599  28.632  0.00  0.00    -0.000 A 
ATOM     13  C   UNL A   1     -24.634  -2.660  29.337  0.00  0.00    -0.018 A 
ATOM     14  C   UNL A   1     -25.870  -3.004  29.850  0.00  0.00    -0.004 A 
ATOM     15  C   UNL A   1     -26.243  -4.332  29.724  0.00  0.00    -0.000 A 
ATOM     16  C   UNL A   1     -25.367  -5.219  29.124  0.00  0.00    -0.000 A 
ENDBRANCH   1  13
TORSDOF 1
ENDMDL
ENDMDL
