REMARK  Name = No_2093-gen_results/8p0m/2024-11-27-11-27-31/
REMARK  1 active torsions:
REMARK  status: ('A' for Active; 'I' for Inactive)
REMARK    1  A    between atoms: C_3  and  C_7
REMARK                            x       y       z     vdW  Elec       q    Type
REMARK                         _______ _______ _______ _____ _____    ______ ____
ROOT
ATOM      1  C   UNL A   1     -26.411   0.307  27.219  0.00  0.00    +0.048 C 
ATOM      2  C   UNL A   1     -25.012   0.334  27.320  0.00  0.00    -0.004 A 
ATOM      3  C   UNL A   1     -27.043   0.357  25.999  0.00  0.00    +0.032 C 
ATOM      4  C   UNL A   1     -26.271   0.266  24.849  0.00  0.00    +0.113 C 
ATOM      5  C   UNL A   1     -24.307   0.188  28.571  0.00  0.00    -0.003 A 
ATOM      6  C   UNL A   1     -22.956   0.491  28.544  0.00  0.00    -0.000 A 
ATOM      7  C   UNL A   1     -22.385   1.285  27.515  0.00  0.00    +0.001 A 
ATOM      8  C   UNL A   1     -23.156   1.700  26.458  0.00  0.00    +0.016 A 
ATOM      9  C   UNL A   1     -24.455   1.264  26.346  0.00  0.00    +0.062 A 
ATOM     10  N   UNL A   1     -24.831   0.870  24.926  0.00  0.00    -0.238 NA
ENDROOT
BRANCH   1  13
ATOM     11  C   UNL A   1     -28.016  -0.814  28.878  0.00  0.00    -0.004 A 
ATOM     12  C   UNL A   1     -28.469  -0.785  29.829  0.00  0.00    -0.000 A 
ATOM     13  C   UNL A   1     -27.136   0.236  28.535  0.00  0.00    -0.018 A 
ATOM     14  C   UNL A   1     -26.875   1.282  29.398  0.00  0.00    -0.004 A 
ATOM     15  C   UNL A   1     -27.507   1.238  30.630  0.00  0.00    -0.000 A 
ATOM     16  C   UNL A   1     -28.327   0.164  30.924  0.00  0.00    -0.000 A 
ENDBRANCH   1  13
TORSDOF 1
