MODEL 2094
MODEL 1
REMARK VINA RESULT:    -4.670      0.000      0.000
REMARK INTER + INTRA:          -4.987
REMARK INTER:                  -4.943
REMARK INTRA:                  -0.044
REMARK UNBOUND:                -0.044
REMARK  Name = No_2094-gen_results/8p0m/2024-11-27-11-27-31/
REMARK  1 active torsions:
REMARK  status: ('A' for Active; 'I' for Inactive)
REMARK    1  A    between atoms: C_3  and  C_8
REMARK                            x       y       z     vdW  Elec       q    Type
REMARK                         _______ _______ _______ _____ _____    ______ ____
ROOT
ATOM      1  C   UNL A   1     -21.965  -0.020  29.089  0.00  0.00    +0.042 A 
ATOM      2  C   UNL A   1     -22.361  -1.123  29.386  0.00  0.00    +0.005 A 
ATOM      3  C   UNL A   1     -23.563  -1.660  28.927  0.00  0.00    +0.019 A 
ATOM      4  C   UNL A   1     -24.428  -0.846  28.095  0.00  0.00    +0.005 A 
ATOM      5  C   UNL A   1     -23.904   0.432  27.798  0.00  0.00    +0.042 A 
ATOM      6  C   UNL A   1     -22.763   0.853  28.282  0.00  0.00    +0.196 A 
ATOM      7  O   UNL A   1     -22.381   2.127  27.970  0.00  0.00    -0.287 OA
ENDROOT
BRANCH   3   8
ATOM      8  C   UNL A   1     -24.119  -3.015  29.250  0.00  0.00    +0.093 C 
ATOM      9  N   UNL A   1     -24.126  -3.975  28.454  0.00  0.00    -0.267 NA
ATOM     10  C   UNL A   1     -24.589  -5.216  28.912  0.00  0.00    +0.152 C 
ENDBRANCH   3   8
TORSDOF 1
ENDMDL
ENDMDL
