MODEL 2095
MODEL 1
REMARK VINA RESULT:    -6.885      0.000      0.000
REMARK INTER + INTRA:         -12.671
REMARK INTER:                 -10.105
REMARK INTRA:                  -2.566
REMARK UNBOUND:                -2.566
REMARK  Name = No_2095-gen_results/8p0m/2024-11-27-11-27-31/
REMARK  8 active torsions:
REMARK  status: ('A' for Active; 'I' for Inactive)
REMARK    1  A    between atoms: C_3  and  C_8
REMARK    2  A    between atoms: C_6  and  O_7
REMARK    3  A    between atoms: O_7  and  C_18
REMARK    4  A    between atoms: C_10  and  C_32
REMARK    5  A    between atoms: C_18  and  C_19
REMARK    6  A    between atoms: C_18  and  C_22
REMARK    7  A    between atoms: C_27  and  C_28
REMARK    8  A    between atoms: C_32  and  N_33
REMARK                            x       y       z     vdW  Elec       q    Type
REMARK                         _______ _______ _______ _____ _____    ______ ____
ROOT
ATOM      1  C   UNL A   1     -32.882 -12.021   9.495  0.00  0.00    +0.067 A 
ATOM      2  C   UNL A   1     -32.433 -10.924   9.254  0.00  0.00    +0.143 A 
ATOM      3  C   UNL A   1     -31.543 -10.253  10.092  0.00  0.00    +0.028 A 
ATOM      4  C   UNL A   1     -31.168 -10.860  11.354  0.00  0.00    +0.005 A 
ATOM      5  C   UNL A   1     -31.738 -12.135  11.572  0.00  0.00    +0.037 A 
ATOM      6  C   UNL A   1     -32.572 -12.685  10.726  0.00  0.00    +0.141 A 
ATOM      7  F   UNL A   1     -32.643 -10.330   8.063  0.00  0.00    -0.204 F 
ENDROOT
BRANCH   3   8
ATOM      8  C   UNL A   1     -30.945  -8.898   9.860  0.00  0.00    +0.006 A 
ATOM      9  C   UNL A   1     -29.930  -8.747   9.020  0.00  0.00    +0.033 A 
ATOM     10  C   UNL A   1     -29.355  -9.691   8.219  0.00  0.00    -0.002 A 
ATOM     11  C   UNL A   1     -29.301  -7.354   9.002  0.00  0.00    +0.162 A 
ATOM     12  N   UNL A   1     -28.089  -7.251   8.412  0.00  0.00    -0.225 NA
ATOM     13  N   UNL A   1     -29.721  -6.365   9.778  0.00  0.00    -0.225 NA
ATOM     14  C   UNL A   1     -28.205  -9.488   7.463  0.00  0.00    +0.018 A 
ATOM     15  C   UNL A   1     -27.639  -8.172   7.539  0.00  0.00    +0.100 A 
ATOM     16  C   UNL A   1     -31.419  -7.771  10.662  0.00  0.00    +0.021 A 
ATOM     17  C   UNL A   1     -30.748  -6.505  10.538  0.00  0.00    +0.101 A 
BRANCH  10  18
ATOM     18  C   UNL A   1     -28.902 -10.802   8.774  0.00  0.00    +0.095 C 
ATOM     19  C   UNL A   1     -29.196 -12.183   8.240  0.00  0.00    +0.024 C 
BRANCH  18  20
ATOM     20  N   UNL A   1     -28.028 -10.896   9.631  0.00  0.00    -0.213 NA
ATOM     21  C   UNL A   1     -28.433 -11.940   9.262  0.00  0.00    +0.108 C 
ENDBRANCH  18  20
ENDBRANCH  10  18
ENDBRANCH   3   8
BRANCH   6  22
ATOM     22  O   UNL A   1     -33.102 -13.897  11.066  0.00  0.00    -0.472 OA
BRANCH  22  23
ATOM     23  C   UNL A   1     -32.926 -14.958  10.197  0.00  0.00    +0.216 C 
BRANCH  23  24
ATOM     24  C   UNL A   1     -31.706 -15.427   9.791  0.00  0.00    +0.019 A 
ATOM     25  C   UNL A   1     -30.712 -15.591  10.727  0.00  0.00    -0.001 A 
ATOM     26  C   UNL A   1     -29.559 -15.524  10.265  0.00  0.00    +0.006 A 
ATOM     27  C   UNL A   1     -31.363 -15.630   8.425  0.00  0.00    -0.001 A 
ATOM     28  C   UNL A   1     -30.142 -15.817   7.915  0.00  0.00    +0.006 A 
ATOM     29  C   UNL A   1     -29.087 -15.825   8.927  0.00  0.00    +0.080 A 
BRANCH  29  30
ATOM     30  C   UNL A   1     -27.698 -15.951   8.497  0.00  0.00    +0.388 C 
ATOM     31  O   UNL A   1     -27.208 -15.162   7.811  0.00  0.00    -0.241 OA
ATOM     32  O   UNL A   1     -26.968 -16.792   9.226  0.00  0.00    -0.241 OA
ENDBRANCH  29  30
ENDBRANCH  23  24
BRANCH  23  33
ATOM     33  C   UNL A   1     -34.177 -15.436   9.737  0.00  0.00    +0.192 C 
ATOM     34 BR   UNL A   1     -35.222 -15.703  10.873  0.00  0.00    -0.056 Br
ATOM     35  N   UNL A   1     -34.771 -14.615   8.670  0.00  0.00    -0.116 NA
ENDBRANCH  23  33
ENDBRANCH  22  23
ENDBRANCH   6  22
TORSDOF 8
ENDMDL
ENDMDL
