REMARK  Name = outputs/IAG933/test6/raw/output_2096_IAG933_linker_design_.xyz
REMARK  12 active torsions:
REMARK  status: ('A' for Active; 'I' for Inactive)
REMARK    1  A    between atoms: C_1  and  C_2
REMARK    2  A    between atoms: C_1  and  C_8
REMARK    3  A    between atoms: C_1  and  C_41
REMARK    4  A    between atoms: C_13  and  C_33
REMARK    5  A    between atoms: C_14  and  C_15
REMARK    6  A    between atoms: C_21  and  O_22
REMARK    7  A    between atoms: O_22  and  C_23
REMARK    8  A    between atoms: C_23  and  C_24
REMARK    9  A    between atoms: C_30  and  C_40
REMARK   10  A    between atoms: C_36  and  C_41
REMARK   11  A    between atoms: C_40  and  N_43
REMARK   12  A    between atoms: C_41  and  N_43
REMARK                            x       y       z     vdW  Elec       q    Type
REMARK                         _______ _______ _______ _____ _____    ______ ____
ROOT
ATOM      1  C   UNL A   1     -25.119   0.171  29.177  0.00  0.00    +0.122 C 
ENDROOT
BRANCH   1   5
ATOM      2  C   UNL A   1     -21.828   1.659  26.763  0.00  0.00    +0.040 C 
ATOM      3  C   UNL A   1     -24.298   1.349  27.011  0.00  0.00    +0.021 C 
ATOM      4  C   UNL A   1     -23.160   1.860  26.289  0.00  0.00    +0.003 C 
ATOM      5  C   UNL A   1     -24.010   0.652  28.255  0.00  0.00    +0.204 C 
ATOM      6  O   UNL A   1     -22.695   0.460  28.708  0.00  0.00    -0.470 OA
ATOM      7  C   UNL A   1     -21.629   0.862  27.906  0.00  0.00    +0.173 C 
BRANCH   3   8
ATOM      8  C   UNL A   1     -25.688   1.614  26.461  0.00  0.00    +0.037 C 
ATOM      9  C   UNL A   1     -26.250   2.920  26.395  0.00  0.00    +0.076 C 
ATOM     10  C   UNL A   1     -27.438   3.091  25.645  0.00  0.00    +0.107 C 
ATOM     11  N   UNL A   1     -28.075   2.089  25.003  0.00  0.00    -0.208 NA
ATOM     12  C   UNL A   1     -27.543   0.849  25.079  0.00  0.00    +0.253 C 
ATOM     13  C   UNL A   1     -26.354   0.576  25.777  0.00  0.00    +0.193 C 
ATOM     14  F   UNL A   1     -25.860  -0.681  25.795  0.00  0.00    -0.199 F 
BRANCH   9  15
ATOM     15  C   UNL A   1     -25.642   4.093  27.123  0.00  0.00    +0.266 C 
ATOM     16  N   UNL A   1     -25.614   5.252  26.449  0.00  0.00    -0.200 NA
ATOM     17  C   UNL A   1     -25.026   6.479  26.963  0.00  0.00    +0.139 C 
ATOM     18  O   UNL A   1     -25.143   3.966  28.243  0.00  0.00    -0.268 OA
ENDBRANCH   9  15
BRANCH  12  19
ATOM     19  O   UNL A   1     -28.193  -0.208  24.477  0.00  0.00    -0.456 OA
BRANCH  19  20
ATOM     20  C   UNL A   1     -29.460   0.005  23.866  0.00  0.00    +0.243 C 
BRANCH  20  21
ATOM     21  C   UNL A   1     -30.065  -1.377  23.573  0.00  0.00    +0.229 C 
ATOM     22  O   UNL A   1     -30.729  -1.878  24.721  0.00  0.00    -0.216 OA
ENDBRANCH  20  21
ENDBRANCH  19  20
ENDBRANCH  12  19
ENDBRANCH   3   8
ENDBRANCH   1   5
BRANCH   1  23
ATOM     23  C   UNL A   1     -24.855  -1.012  30.143  0.00  0.00    +0.058 C 
BRANCH  23  24
ATOM     24  C   UNL A   1     -24.973  -2.505  29.788  0.00  0.00    -0.020 C 
ATOM     25  C   UNL A   1     -23.906  -3.173  29.146  0.00  0.00    -0.004 C 
ATOM     26  C   UNL A   1     -23.989  -4.549  28.853  0.00  0.00    -0.000 C 
ATOM     27  C   UNL A   1     -25.137  -5.280  29.205  0.00  0.00    -0.000 C 
ATOM     28  C   UNL A   1     -26.232  -4.611  29.784  0.00  0.00    -0.000 C 
ATOM     29  C   UNL A   1     -26.155  -3.232  30.065  0.00  0.00    -0.004 C 
ENDBRANCH  23  24
BRANCH  23  30
ATOM     30  C   UNL A   1     -25.387  -0.679  31.571  0.00  0.00    +0.078 C 
ATOM     31  C   UNL A   1     -25.189   0.773  32.028  0.00  0.00    +0.019 C 
ATOM     32  C   UNL A   1     -25.336   0.684  33.544  0.00  0.00    +0.020 C 
ATOM     33  C   UNL A   1     -24.829  -0.715  33.905  0.00  0.00    +0.089 C 
ATOM     34  N   UNL A   1     -24.758  -1.481  32.646  0.00  0.00    -0.219 NA
ENDBRANCH  23  30
ENDBRANCH   1  23
BRANCH   1  35
ATOM     35  N   UNL A   1     -26.382  -0.172  28.450  0.00  0.00    -0.214 NA
BRANCH  35  36
ATOM     36  C   UNL A   1     -27.676  -0.374  29.196  0.00  0.00    +0.101 C 
BRANCH  36  38
ATOM     37  C   UNL A   1     -29.875   0.504  28.443  0.00  0.00    +0.251 C 
ATOM     38  C   UNL A   1     -28.715   0.624  28.959  0.00  0.00    +0.128 C 
ATOM     39  O   UNL A   1     -29.615   2.597  28.888  0.00  0.00    -0.262 OA
ATOM     40  C   UNL A   1     -28.354   1.998  29.069  0.00  0.00    +0.182 C 
ATOM     41  O   UNL A   1     -30.188  -0.280  27.469  0.00  0.00    -0.273 OA
ATOM     42  N   UNL A   1     -30.556   1.611  29.131  0.00  0.00    -0.166 N 
ATOM     43  C   UNL A   1     -31.613   2.068  30.074  0.00  0.00    +0.148 C 
ENDBRANCH  36  38
ENDBRANCH  35  36
ENDBRANCH   1  35
TORSDOF 12
