MODEL 2096
MODEL 1
REMARK VINA RESULT:    -5.808      0.000      0.000
REMARK INTER + INTRA:         -12.403
REMARK INTER:                  -9.882
REMARK INTRA:                  -2.521
REMARK UNBOUND:                -2.521
REMARK  Name = No_2096-gen_results/8p0m/2024-11-27-11-27-31/
REMARK  12 active torsions:
REMARK  status: ('A' for Active; 'I' for Inactive)
REMARK    1  A    between atoms: P_1  and  O_2
REMARK    2  A    between atoms: O_2  and  C_6
REMARK    3  A    between atoms: C_6  and  C_7
REMARK    4  A    between atoms: C_7  and  C_8
REMARK    5  A    between atoms: C_11  and  C_12
REMARK    6  A    between atoms: C_12  and  C_15
REMARK    7  A    between atoms: C_15  and  C_16
REMARK    8  A    between atoms: C_16  and  C_17
REMARK    9  A    between atoms: C_17  and  C_18
REMARK   10  A    between atoms: C_18  and  C_19
REMARK   11  A    between atoms: C_19  and  C_20
REMARK   12  A    between atoms: C_21  and  C_22
REMARK                            x       y       z     vdW  Elec       q    Type
REMARK                         _______ _______ _______ _____ _____    ______ ____
ROOT
ATOM      1  C   UNL A   1     -24.635   0.271  26.657  0.00  0.00    -0.020 A 
ATOM      2  C   UNL A   1     -24.041   1.447  26.086  0.00  0.00    -0.004 A 
ATOM      3  C   UNL A   1     -24.008  -0.197  27.749  0.00  0.00    -0.009 A 
ATOM      4  C   UNL A   1     -22.814   0.523  28.239  0.00  0.00    -0.022 A 
ATOM      5  C   UNL A   1     -22.917   2.130  26.494  0.00  0.00    -0.001 A 
ATOM      6  C   UNL A   1     -22.308   1.592  27.594  0.00  0.00    -0.004 A 
ENDROOT
BRANCH   1   7
ATOM      7  C   UNL A   1     -25.705  -0.260  25.997  0.00  0.00    +0.059 C 
BRANCH   7   8
ATOM      8  C   UNL A   1     -26.594   0.783  25.284  0.00  0.00    +0.158 C 
BRANCH   8   9
ATOM      9  O   UNL A   1     -27.882   0.696  25.572  0.00  0.00    -0.270 OA
BRANCH   9  10
ATOM     10  P   UNL A   1     -28.765   0.486  24.889  0.00  0.00    +0.533 P 
ATOM     11  O   UNL A   1     -29.450   1.661  24.325  0.00  0.00    -0.222 OA
ATOM     12  O   UNL A   1     -29.873  -0.307  25.767  0.00  0.00    -0.115 OA
ATOM     13  O   UNL A   1     -28.645  -0.615  23.768  0.00  0.00    -0.115 OA
ENDBRANCH   9  10
ENDBRANCH   8   9
ENDBRANCH   7   8
ENDBRANCH   1   7
BRANCH   4  14
ATOM     14  C   UNL A   1     -22.153  -0.086  29.349  0.00  0.00    +0.026 C 
BRANCH  14  15
ATOM     15  C   UNL A   1     -22.913  -0.714  30.435  0.00  0.00    +0.005 C 
BRANCH  15  16
ATOM     16  C   UNL A   1     -23.325  -0.051  31.374  0.00  0.00    +0.000 C 
BRANCH  16  17
ATOM     17  C   UNL A   1     -24.749  -0.079  31.645  0.00  0.00    +0.000 C 
BRANCH  17  18
ATOM     18  C   UNL A   1     -25.719   0.461  30.862  0.00  0.00    +0.005 C 
BRANCH  18  19
ATOM     19  C   UNL A   1     -26.853  -0.502  30.579  0.00  0.00    +0.026 C 
BRANCH  19  20
ATOM     20  C   UNL A   1     -26.503  -1.573  29.750  0.00  0.00    -0.026 C 
ATOM     21  C   UNL A   1     -26.319  -2.656  30.239  0.00  0.00    -0.005 C 
BRANCH  21  22
ATOM     22  C   UNL A   1     -25.840  -3.837  29.525  0.00  0.00    -0.005 C 
ATOM     23  C   UNL A   1     -24.568  -3.840  29.049  0.00  0.00    -0.026 C 
ATOM     24  C   UNL A   1     -23.919  -4.737  28.428  0.00  0.00    +0.031 C 
ENDBRANCH  21  22
ENDBRANCH  19  20
ENDBRANCH  18  19
ENDBRANCH  17  18
ENDBRANCH  16  17
ENDBRANCH  15  16
ENDBRANCH  14  15
ENDBRANCH   4  14
TORSDOF 12
ENDMDL
ENDMDL
