REMARK  Name = outputs/IAG933/test6/raw/output_2097_IAG933_linker_design_.xyz
REMARK  13 active torsions:
REMARK  status: ('A' for Active; 'I' for Inactive)
REMARK    1  A    between atoms: C_1  and  C_2
REMARK    2  A    between atoms: C_1  and  C_8
REMARK    3  A    between atoms: C_1  and  N_37
REMARK    4  A    between atoms: C_13  and  C_33
REMARK    5  A    between atoms: C_14  and  C_15
REMARK    6  A    between atoms: C_21  and  O_22
REMARK    7  A    between atoms: O_22  and  C_23
REMARK    8  A    between atoms: C_23  and  C_24
REMARK    9  A    between atoms: C_29  and  C_32
REMARK   10  A    between atoms: C_29  and  N_42
REMARK   11  A    between atoms: C_30  and  C_43
REMARK   12  A    between atoms: C_32  and  O_41
REMARK   13  A    between atoms: C_36  and  C_40
REMARK                            x       y       z     vdW  Elec       q    Type
REMARK                         _______ _______ _______ _____ _____    ______ ____
ROOT
ATOM      1  C   UNL A   1     -23.659   1.177  27.712  0.00  0.00    +0.090 A 
ATOM      2  C   UNL A   1     -23.586   0.439  28.844  0.00  0.00    +0.208 A 
ATOM      3  C   UNL A   1     -25.129   1.174  27.456  0.00  0.00    +0.013 A 
ATOM      4  N   UNL A   1     -24.899  -0.112  29.195  0.00  0.00    -0.298 N 
ATOM      5  F   UNL A   1     -22.552   0.379  29.653  0.00  0.00    -0.185 F 
ATOM      6  C   UNL A   1     -25.895   0.405  28.544  0.00  0.00    +0.113 A 
ENDROOT
BRANCH   3   7
ATOM      7  C   UNL A   1     -25.688   1.614  26.461  0.00  0.00    +0.094 C 
ATOM      8  C   UNL A   1     -26.250   2.920  26.395  0.00  0.00    +0.059 C 
ATOM      9  C   UNL A   1     -27.438   3.091  25.645  0.00  0.00    +0.102 C 
ATOM     10  N   UNL A   1     -28.075   2.089  25.003  0.00  0.00    -0.212 NA
ATOM     11  C   UNL A   1     -27.543   0.849  25.079  0.00  0.00    +0.234 C 
ATOM     12  C   UNL A   1     -26.354   0.576  25.777  0.00  0.00    +0.244 C 
ATOM     13  F   UNL A   1     -25.860  -0.681  25.795  0.00  0.00    -0.227 F 
BRANCH   8  14
ATOM     14  C   UNL A   1     -25.642   4.093  27.123  0.00  0.00    +0.263 C 
ATOM     15  N   UNL A   1     -25.614   5.252  26.449  0.00  0.00    -0.200 NA
ATOM     16  C   UNL A   1     -25.026   6.479  26.963  0.00  0.00    +0.139 C 
ATOM     17  O   UNL A   1     -25.143   3.966  28.243  0.00  0.00    -0.269 OA
ENDBRANCH   8  14
BRANCH  11  18
ATOM     18  O   UNL A   1     -28.193  -0.208  24.477  0.00  0.00    -0.459 OA
BRANCH  18  19
ATOM     19  C   UNL A   1     -29.460   0.005  23.866  0.00  0.00    +0.242 C 
BRANCH  19  20
ATOM     20  C   UNL A   1     -30.065  -1.377  23.573  0.00  0.00    +0.229 C 
ATOM     21  O   UNL A   1     -30.729  -1.878  24.721  0.00  0.00    -0.216 OA
ENDBRANCH  19  20
ENDBRANCH  18  19
ENDBRANCH  11  18
ENDBRANCH   3   7
BRANCH   6  23
ATOM     22  O   UNL A   1     -28.170  -0.196  28.093  0.00  0.00    -0.268 OA
ATOM     23  C   UNL A   1     -27.389   0.251  28.901  0.00  0.00    +0.265 C 
ATOM     24  N   UNL A   1     -27.912   0.672  30.169  0.00  0.00    -0.271 N 
ATOM     25  C   UNL A   1     -27.709   2.131  30.180  0.00  0.00    +0.115 C 
BRANCH  24  26
ATOM     26  C   UNL A   1     -29.134   0.433  30.821  0.00  0.00    +0.126 C 
BRANCH  26  27
ATOM     27  C   UNL A   1     -28.972  -0.789  31.851  0.00  0.00    +0.164 C 
BRANCH  27  29
ATOM     28  C   UNL A   1     -29.045  -2.454  29.890  0.00  0.00    +0.174 C 
ATOM     29  O   UNL A   1     -28.428  -1.620  30.887  0.00  0.00    -0.349 OA
ENDBRANCH  27  29
ENDBRANCH  26  27
ENDBRANCH  24  26
ENDBRANCH   6  23
BRANCH   1  32
ATOM     30  F   UNL A   1     -21.423   1.941  27.327  0.00  0.00    -0.181 F 
ATOM     31  N   UNL A   1     -22.850   2.555  25.878  0.00  0.00    -0.116 NA
ATOM     32  C   UNL A   1     -22.648   1.901  26.966  0.00  0.00    +0.245 C 
ENDBRANCH   1  32
BRANCH   4  33
ATOM     33  C   UNL A   1     -24.855  -1.012  30.143  0.00  0.00    +0.126 C 
BRANCH  33  34
ATOM     34  C   UNL A   1     -24.973  -2.505  29.788  0.00  0.00    -0.000 C 
ATOM     35  C   UNL A   1     -23.906  -3.173  29.146  0.00  0.00    -0.002 C 
ATOM     36  C   UNL A   1     -23.989  -4.549  28.853  0.00  0.00    -0.000 C 
ATOM     37  C   UNL A   1     -25.137  -5.280  29.205  0.00  0.00    -0.000 C 
ATOM     38  C   UNL A   1     -26.232  -4.611  29.784  0.00  0.00    -0.000 C 
ATOM     39  C   UNL A   1     -26.155  -3.232  30.065  0.00  0.00    -0.002 C 
ENDBRANCH  33  34
BRANCH  33  40
ATOM     40  C   UNL A   1     -25.387  -0.679  31.571  0.00  0.00    +0.098 C 
ATOM     41  C   UNL A   1     -25.189   0.773  32.028  0.00  0.00    +0.021 C 
ATOM     42  C   UNL A   1     -25.336   0.684  33.544  0.00  0.00    +0.020 C 
ATOM     43  C   UNL A   1     -24.829  -0.715  33.905  0.00  0.00    +0.089 C 
ATOM     44  N   UNL A   1     -24.758  -1.481  32.646  0.00  0.00    -0.217 NA
ENDBRANCH  33  40
ENDBRANCH   4  33
TORSDOF 13
