MODEL 2097
MODEL 1
REMARK VINA RESULT:    -6.893      0.000      0.000
REMARK INTER + INTRA:          -7.493
REMARK INTER:                  -7.699
REMARK INTRA:                   0.205
REMARK UNBOUND:                 0.205
REMARK  Name = No_2097-gen_results/8p0m/2024-11-27-11-27-31/
REMARK  2 active torsions:
REMARK  status: ('A' for Active; 'I' for Inactive)
REMARK    1  A    between atoms: C_2  and  C_7
REMARK    2  A    between atoms: N_9  and  C_10
REMARK                            x       y       z     vdW  Elec       q    Type
REMARK                         _______ _______ _______ _____ _____    ______ ____
ROOT
ATOM      1  C   UNL A   1     -23.815  -1.919  28.735  0.00  0.00    +0.269 C 
ATOM      2  O   UNL A   1     -22.697  -1.874  28.892  0.00  0.00    -0.268 OA
ATOM      3  N   UNL A   1     -24.501  -0.977  27.952  0.00  0.00    -0.175 NA
ENDROOT
BRANCH   1   5
ATOM      4  C   UNL A   1     -24.620  -4.128  29.013  0.00  0.00    +0.005 A 
ATOM      5  C   UNL A   1     -24.801  -3.107  29.201  0.00  0.00    +0.055 A 
ATOM      6  C   UNL A   1     -25.663  -5.073  29.442  0.00  0.00    +0.000 A 
ATOM      7  C   UNL A   1     -26.906  -4.597  29.951  0.00  0.00    +0.000 A 
ATOM      8  C   UNL A   1     -26.006  -2.360  29.654  0.00  0.00    +0.005 A 
ATOM      9  C   UNL A   1     -26.993  -3.203  30.069  0.00  0.00    +0.000 A 
ENDBRANCH   1   5
BRANCH   3  10
ATOM     10  C   UNL A   1     -23.798   0.201  27.590  0.00  0.00    +0.074 A 
ATOM     11  C   UNL A   1     -22.937   0.732  27.975  0.00  0.00    +0.017 A 
ATOM     12  C   UNL A   1     -22.246   1.880  27.459  0.00  0.00    +0.001 A 
ATOM     13  C   UNL A   1     -22.768   2.332  26.215  0.00  0.00    +0.000 A 
ATOM     14  C   UNL A   1     -23.854   1.703  25.668  0.00  0.00    +0.001 A 
ATOM     15  C   UNL A   1     -24.422   0.553  26.222  0.00  0.00    +0.017 A 
ENDBRANCH   3  10
TORSDOF 2
ENDMDL
ENDMDL
