REMARK  Name = outputs/IAG933/test6/raw/output_2099_IAG933_linker_design_.xyz
REMARK  8 active torsions:
REMARK  status: ('A' for Active; 'I' for Inactive)
REMARK    1  A    between atoms: C_1  and  C_2
REMARK    2  A    between atoms: C_1  and  C_8
REMARK    3  A    between atoms: C_1  and  N_29
REMARK    4  A    between atoms: C_13  and  N_30
REMARK    5  A    between atoms: C_14  and  C_15
REMARK    6  A    between atoms: C_21  and  O_22
REMARK    7  A    between atoms: O_22  and  C_23
REMARK    8  A    between atoms: C_23  and  C_24
REMARK                            x       y       z     vdW  Elec       q    Type
REMARK                         _______ _______ _______ _____ _____    ______ ____
ROOT
ATOM      1  C   UNL A   1     -25.688   1.614  26.461  0.00  0.00    +0.110 C 
ATOM      2  C   UNL A   1     -26.250   2.920  26.395  0.00  0.00    +0.092 C 
ATOM      3  C   UNL A   1     -27.438   3.091  25.645  0.00  0.00    +0.108 C 
ATOM      4  N   UNL A   1     -28.075   2.089  25.003  0.00  0.00    -0.208 NA
ATOM      5  C   UNL A   1     -27.543   0.849  25.079  0.00  0.00    +0.255 C 
ATOM      6  C   UNL A   1     -26.354   0.576  25.777  0.00  0.00    +0.208 C 
ATOM      7  F   UNL A   1     -25.860  -0.681  25.795  0.00  0.00    -0.198 F 
ENDROOT
BRANCH   2   8
ATOM      8  C   UNL A   1     -25.642   4.093  27.123  0.00  0.00    +0.268 C 
ATOM      9  N   UNL A   1     -25.614   5.252  26.449  0.00  0.00    -0.200 NA
ATOM     10  C   UNL A   1     -25.026   6.479  26.963  0.00  0.00    +0.139 C 
ATOM     11  O   UNL A   1     -25.143   3.966  28.243  0.00  0.00    -0.268 OA
ENDBRANCH   2   8
BRANCH   1  14
ATOM     12  C   UNL A   1     -24.410   0.037  27.931  0.00  0.00    +0.181 C 
ATOM     13  N   UNL A   1     -24.583  -0.002  29.277  0.00  0.00    -0.248 NA
ATOM     14  N   UNL A   1     -24.524   1.256  27.215  0.00  0.00    -0.189 NA
BRANCH  13  15
ATOM     15  C   UNL A   1     -24.855  -1.012  30.143  0.00  0.00    +0.143 C 
BRANCH  15  16
ATOM     16  C   UNL A   1     -24.973  -2.505  29.788  0.00  0.00    +0.001 C 
ATOM     17  C   UNL A   1     -23.906  -3.173  29.146  0.00  0.00    -0.002 C 
ATOM     18  C   UNL A   1     -23.989  -4.549  28.853  0.00  0.00    -0.000 C 
ATOM     19  C   UNL A   1     -25.137  -5.280  29.205  0.00  0.00    -0.000 C 
ATOM     20  C   UNL A   1     -26.232  -4.611  29.784  0.00  0.00    -0.000 C 
ATOM     21  C   UNL A   1     -26.155  -3.232  30.065  0.00  0.00    -0.002 C 
ENDBRANCH  15  16
BRANCH  15  22
ATOM     22  C   UNL A   1     -25.387  -0.679  31.571  0.00  0.00    +0.099 C 
ATOM     23  C   UNL A   1     -25.189   0.773  32.028  0.00  0.00    +0.021 C 
ATOM     24  C   UNL A   1     -25.336   0.684  33.544  0.00  0.00    +0.020 C 
ATOM     25  C   UNL A   1     -24.829  -0.715  33.905  0.00  0.00    +0.089 C 
ATOM     26  N   UNL A   1     -24.758  -1.481  32.646  0.00  0.00    -0.217 NA
ENDBRANCH  15  22
ENDBRANCH  13  15
ENDBRANCH   1  14
BRANCH   5  27
ATOM     27  O   UNL A   1     -28.193  -0.208  24.477  0.00  0.00    -0.456 OA
BRANCH  27  28
ATOM     28  C   UNL A   1     -29.460   0.005  23.866  0.00  0.00    +0.243 C 
BRANCH  28  29
ATOM     29  C   UNL A   1     -30.065  -1.377  23.573  0.00  0.00    +0.229 C 
ATOM     30  O   UNL A   1     -30.729  -1.878  24.721  0.00  0.00    -0.216 OA
ENDBRANCH  28  29
ENDBRANCH  27  28
ENDBRANCH   5  27
TORSDOF 8
