MODEL 2099
MODEL 1
REMARK VINA RESULT:    -7.776      0.000      0.000
REMARK INTER + INTRA:          -8.638
REMARK INTER:                  -8.231
REMARK INTRA:                  -0.407
REMARK UNBOUND:                -0.407
REMARK  Name = No_2099-gen_results/8p0m/2024-11-27-11-27-31/
REMARK  1 active torsions:
REMARK  status: ('A' for Active; 'I' for Inactive)
REMARK    1  A    between atoms: C_10  and  C_11
REMARK                            x       y       z     vdW  Elec       q    Type
REMARK                         _______ _______ _______ _____ _____    ______ ____
ROOT
ATOM      1  C   UNL A   1     -26.097  -4.877  29.648  0.00  0.00    +0.000 A 
ATOM      2  C   UNL A   1     -26.173  -3.670  29.656  0.00  0.00    +0.000 A 
ATOM      3  C   UNL A   1     -25.200  -2.885  29.046  0.00  0.00    +0.000 A 
ATOM      4  C   UNL A   1     -24.048  -3.485  28.424  0.00  0.00    +0.000 A 
ATOM      5  C   UNL A   1     -24.028  -4.884  28.481  0.00  0.00    +0.000 A 
ATOM      6  C   UNL A   1     -24.965  -5.579  29.085  0.00  0.00    +0.000 A 
ATOM      7  C   UNL A   1     -27.297  -3.081  30.383  0.00  0.00    +0.000 A 
ATOM      8  C   UNL A   1     -27.350  -1.721  30.455  0.00  0.00    +0.000 A 
ATOM      9  C   UNL A   1     -26.323  -0.876  29.758  0.00  0.00    +0.000 A 
ATOM     10  C   UNL A   1     -25.261  -1.434  29.117  0.00  0.00    +0.002 A 
ATOM     11  C   UNL A   1     -28.385  -3.840  30.891  0.00  0.00    +0.000 A 
ATOM     12  C   UNL A   1     -29.562  -3.293  31.238  0.00  0.00    +0.000 A 
ATOM     13  C   UNL A   1     -29.574  -1.802  31.390  0.00  0.00    +0.000 A 
ATOM     14  C   UNL A   1     -28.519  -0.991  30.936  0.00  0.00    +0.000 A 
ENDROOT
BRANCH  10  15
ATOM     15  C   UNL A   1     -24.116  -0.721  28.835  0.00  0.00    +0.031 A 
ATOM     16  C   UNL A   1     -23.126  -0.555  29.582  0.00  0.00    +0.159 A 
ATOM     17  C   UNL A   1     -24.154   0.030  27.543  0.00  0.00    +0.023 A 
ATOM     18  C   UNL A   1     -23.213   1.121  27.246  0.00  0.00    +0.099 A 
ATOM     19  F   UNL A   1     -23.124  -1.240  30.739  0.00  0.00    -0.203 F 
ATOM     20  N   UNL A   1     -22.314   1.213  28.134  0.00  0.00    -0.240 NA
ATOM     21  C   UNL A   1     -22.277   0.408  29.328  0.00  0.00    +0.128 A 
ENDBRANCH  10  15
TORSDOF 1
ENDMDL
ENDMDL
