MODEL 209
MODEL 1
REMARK VINA RESULT:    -5.889      0.000      0.000
REMARK INTER + INTRA:          -7.802
REMARK INTER:                  -6.922
REMARK INTRA:                  -0.880
REMARK UNBOUND:                -0.880
REMARK  Name = No_209-gen_results/8p0m/2024-11-27-11-27-31/
REMARK  3 active torsions:
REMARK  status: ('A' for Active; 'I' for Inactive)
REMARK    1  A    between atoms: C_2  and  C_15
REMARK    2  A    between atoms: C_3  and  C_7
REMARK    3  A    between atoms: C_8  and  C_9
REMARK                            x       y       z     vdW  Elec       q    Type
REMARK                         _______ _______ _______ _____ _____    ______ ____
ROOT
ATOM      1  C   UNL A   1     -24.878   0.260  26.306  0.00  0.00    -0.000 A 
ATOM      2  C   UNL A   1     -24.515   0.339  27.456  0.00  0.00    -0.000 A 
ATOM      3  C   UNL A   1     -25.389   0.341  28.543  0.00  0.00    -0.000 A 
ATOM      4  C   UNL A   1     -26.818   0.305  28.299  0.00  0.00    -0.000 A 
ATOM      5  C   UNL A   1     -27.167   0.223  26.932  0.00  0.00    -0.000 A 
ATOM      6  C   UNL A   1     -26.272   0.234  25.977  0.00  0.00    -0.000 A 
ENDROOT
BRANCH   2   7
ATOM      7  C   UNL A   1     -23.044   0.462  27.827  0.00  0.00    -0.005 C 
ATOM      8  C   UNL A   1     -22.404   1.592  27.611  0.00  0.00    -0.026 C 
ATOM      9  C   UNL A   1     -23.213   2.628  26.973  0.00  0.00    +0.031 C 
ENDBRANCH   2   7
BRANCH   3  10
ATOM     10  C   UNL A   1     -25.015   0.423  29.979  0.00  0.00    -0.000 C 
ATOM     11  C   UNL A   1     -24.750  -0.688  30.721  0.00  0.00    -0.000 C 
BRANCH  11  12
ATOM     12  C   UNL A   1     -24.915  -1.977  30.162  0.00  0.00    +0.000 A 
ATOM     13  C   UNL A   1     -26.147  -2.676  30.385  0.00  0.00    +0.000 A 
ATOM     14  C   UNL A   1     -26.366  -3.921  29.738  0.00  0.00    +0.000 A 
ATOM     15  C   UNL A   1     -25.311  -4.523  29.044  0.00  0.00    +0.000 A 
ATOM     16  C   UNL A   1     -24.120  -3.890  28.901  0.00  0.00    +0.000 A 
ATOM     17  C   UNL A   1     -23.919  -2.677  29.472  0.00  0.00    +0.000 A 
ENDBRANCH  11  12
ENDBRANCH   3  10
TORSDOF 3
ENDMDL
ENDMDL
