MODEL 20
MODEL 1
REMARK VINA RESULT:    -7.619      0.000      0.000
REMARK INTER + INTRA:         -10.090
REMARK INTER:                  -9.846
REMARK INTRA:                  -0.244
REMARK UNBOUND:                -0.244
REMARK  Name = No_20-gen_results/8p0m/2024-11-27-11-27-31/
REMARK  5 active torsions:
REMARK  status: ('A' for Active; 'I' for Inactive)
REMARK    1  A    between atoms: C_1  and  C_2
REMARK    2  A    between atoms: C_1  and  N_8
REMARK    3  A    between atoms: C_5  and  C_23
REMARK    4  A    between atoms: C_10  and  C_26
REMARK    5  A    between atoms: C_15  and  C_16
REMARK                            x       y       z     vdW  Elec       q    Type
REMARK                         _______ _______ _______ _____ _____    ______ ____
ROOT
ATOM      1  N   UNL A   1     -25.260  -0.241  29.333  0.00  0.00    -0.262 NA
ATOM      2  C   UNL A   1     -24.390  -0.204  28.255  0.00  0.00    +0.106 C 
ATOM      3  C   UNL A   1     -23.769   0.845  27.966  0.00  0.00    +0.074 C 
ATOM      4  C   UNL A   1     -22.351   0.735  27.937  0.00  0.00    +0.003 C 
ATOM      5  C   UNL A   1     -21.800   0.484  28.734  0.00  0.00    -0.002 C 
ATOM      6  C   UNL A   1     -22.307  -0.043  30.053  0.00  0.00    +0.007 C 
ATOM      7  C   UNL A   1     -23.351  -0.962  29.927  0.00  0.00    +0.190 C 
ATOM      8  C   UNL A   1     -24.422  -1.011  29.285  0.00  0.00    +0.111 C 
ATOM      9  O   UNL A   1     -23.337  -1.820  31.116  0.00  0.00    -0.217 OA
ENDROOT
BRANCH   8  10
ATOM     10  C   UNL A   1     -24.809  -2.453  29.182  0.00  0.00    +0.106 C 
ATOM     11  C   UNL A   1     -23.870  -3.351  28.654  0.00  0.00    -0.010 C 
ATOM     12  C   UNL A   1     -24.044  -4.679  28.520  0.00  0.00    -0.004 C 
ATOM     13  C   UNL A   1     -25.120  -5.303  29.077  0.00  0.00    -0.005 C 
ATOM     14  C   UNL A   1     -26.087  -4.506  29.672  0.00  0.00    -0.025 C 
ATOM     15  C   UNL A   1     -25.965  -3.106  29.731  0.00  0.00    +0.047 C 
ATOM     16 CL   UNL A   1     -25.087  -3.134  28.380  0.00  0.00    -0.110 Cl
ENDBRANCH   8  10
BRANCH   3  17
ATOM     17  C   UNL A   1     -24.441   1.984  27.354  0.00  0.00    +0.385 C 
ATOM     18  O   UNL A   1     -25.281   1.856  26.505  0.00  0.00    -0.241 OA
ATOM     19  O   UNL A   1     -24.188   3.165  27.719  0.00  0.00    -0.241 OA
ENDBRANCH   3  17
BRANCH   1  20
ATOM     20  C   UNL A   1     -25.445   0.759  30.282  0.00  0.00    +0.100 C 
BRANCH  20  21
ATOM     21  C   UNL A   1     -25.903   0.499  31.370  0.00  0.00    -0.006 A 
ATOM     22  C   UNL A   1     -27.062  -0.180  31.563  0.00  0.00    -0.003 A 
ATOM     23  C   UNL A   1     -27.635  -0.508  32.888  0.00  0.00    +0.006 A 
ATOM     24  C   UNL A   1     -26.888  -0.092  34.038  0.00  0.00    +0.080 A 
ATOM     25  C   UNL A   1     -25.651   0.548  33.796  0.00  0.00    +0.006 A 
ATOM     26  C   UNL A   1     -25.183   0.820  32.536  0.00  0.00    -0.003 A 
BRANCH  24  27
ATOM     27  C   UNL A   1     -27.314  -0.408  35.363  0.00  0.00    +0.388 C 
ATOM     28  O   UNL A   1     -28.034  -1.225  35.571  0.00  0.00    -0.241 OA
ATOM     29  O   UNL A   1     -26.694   0.359  36.313  0.00  0.00    -0.241 OA
ENDBRANCH  24  27
ENDBRANCH  20  21
ENDBRANCH   1  20
TORSDOF 5
ENDMDL
ENDMDL
