REMARK  Name = outputs/IAG933/test6/raw/output_21_IAG933_linker_design_.xyz
REMARK  12 active torsions:
REMARK  status: ('A' for Active; 'I' for Inactive)
REMARK    1  A    between atoms: C_1  and  C_2
REMARK    2  A    between atoms: C_1  and  C_8
REMARK    3  A    between atoms: C_1  and  N_29
REMARK    4  A    between atoms: C_13  and  C_39
REMARK    5  A    between atoms: C_14  and  C_15
REMARK    6  A    between atoms: C_15  and  O_18
REMARK    7  A    between atoms: O_18  and  C_34
REMARK    8  A    between atoms: C_21  and  O_22
REMARK    9  A    between atoms: O_22  and  C_23
REMARK   10  A    between atoms: C_23  and  C_24
REMARK   11  A    between atoms: O_31  and  C_35
REMARK   12  A    between atoms: C_33  and  C_42
REMARK                            x       y       z     vdW  Elec       q    Type
REMARK                         _______ _______ _______ _____ _____    ______ ____
ROOT
ATOM      1  N   UNL A   1     -24.018  -0.205  29.324  0.00  0.00    -0.276 N 
ATOM      2  C   UNL A   1     -22.760   0.279  29.748  0.00  0.00    +0.094 C 
ATOM      3  C   UNL A   1     -23.332   1.558  26.813  0.00  0.00    +0.172 C 
ATOM      4  C   UNL A   1     -24.577   0.045  28.045  0.00  0.00    +0.232 C 
ATOM      5  C   UNL A   1     -21.841   0.726  28.730  0.00  0.00    +0.025 C 
ATOM      6  C   UNL A   1     -24.637   1.252  27.189  0.00  0.00    +0.132 C 
ATOM      7  C   UNL A   1     -20.628  -0.132  28.836  0.00  0.00    +0.002 C 
ATOM      8  O   UNL A   1     -24.846  -0.957  27.416  0.00  0.00    -0.274 OA
ATOM      9  C   UNL A   1     -22.111   1.440  27.442  0.00  0.00    +0.066 C 
ENDROOT
BRANCH   6  10
ATOM     10  C   UNL A   1     -25.688   1.614  26.461  0.00  0.00    +0.027 C 
ATOM     11  C   UNL A   1     -26.250   2.920  26.395  0.00  0.00    +0.071 C 
ATOM     12  C   UNL A   1     -27.438   3.091  25.645  0.00  0.00    +0.106 C 
ATOM     13  N   UNL A   1     -28.075   2.089  25.003  0.00  0.00    -0.208 NA
ATOM     14  C   UNL A   1     -27.543   0.849  25.079  0.00  0.00    +0.253 C 
ATOM     15  C   UNL A   1     -26.354   0.576  25.777  0.00  0.00    +0.190 C 
ATOM     16  F   UNL A   1     -25.860  -0.681  25.795  0.00  0.00    -0.200 F 
BRANCH  11  17
ATOM     17  C   UNL A   1     -25.642   4.093  27.123  0.00  0.00    +0.233 C 
ATOM     18  N   UNL A   1     -25.614   5.252  26.449  0.00  0.00    -0.235 NA
ATOM     19  C   UNL A   1     -25.026   6.479  26.963  0.00  0.00    +0.155 C 
BRANCH  17  20
ATOM     20  O   UNL A   1     -25.143   3.966  28.243  0.00  0.00    -0.373 OA
BRANCH  20  23
ATOM     21  O   UNL A   1     -23.846   3.038  29.811  0.00  0.00    -0.200 OA
ATOM     22  O   UNL A   1     -24.710   5.079  30.007  0.00  0.00    -0.200 OA
ATOM     23  C   UNL A   1     -24.473   4.076  29.434  0.00  0.00    +0.558 C 
ENDBRANCH  20  23
ENDBRANCH  17  20
ENDBRANCH  11  17
BRANCH  14  24
ATOM     24  O   UNL A   1     -28.193  -0.208  24.477  0.00  0.00    -0.456 OA
BRANCH  24  25
ATOM     25  C   UNL A   1     -29.460   0.005  23.866  0.00  0.00    +0.243 C 
BRANCH  25  26
ATOM     26  C   UNL A   1     -30.065  -1.377  23.573  0.00  0.00    +0.229 C 
ATOM     27  O   UNL A   1     -30.729  -1.878  24.721  0.00  0.00    -0.216 OA
ENDBRANCH  25  26
ENDBRANCH  24  25
ENDBRANCH  14  24
ENDBRANCH   6  10
BRANCH   3  28
ATOM     28  O   UNL A   1     -23.263   1.873  25.519  0.00  0.00    -0.181 OA
ATOM     29  F   UNL A   1     -23.450   3.110  25.258  0.00  0.00    -0.047 F 
ENDBRANCH   3  28
BRANCH   9  30
ATOM     30  C   UNL A   1     -21.129   2.198  26.967  0.00  0.00    +0.185 C 
ATOM     31  O   UNL A   1     -20.089   2.210  27.840  0.00  0.00    -0.220 OA
ENDBRANCH   9  30
BRANCH   1  32
ATOM     32  C   UNL A   1     -24.855  -1.012  30.143  0.00  0.00    +0.114 C 
BRANCH  32  33
ATOM     33  C   UNL A   1     -24.973  -2.505  29.788  0.00  0.00    -0.003 C 
ATOM     34  C   UNL A   1     -23.906  -3.173  29.146  0.00  0.00    -0.003 C 
ATOM     35  C   UNL A   1     -23.989  -4.549  28.853  0.00  0.00    -0.000 C 
ATOM     36  C   UNL A   1     -25.137  -5.280  29.205  0.00  0.00    -0.000 C 
ATOM     37  C   UNL A   1     -26.232  -4.611  29.784  0.00  0.00    -0.000 C 
ATOM     38  C   UNL A   1     -26.155  -3.232  30.065  0.00  0.00    -0.003 C 
ENDBRANCH  32  33
BRANCH  32  39
ATOM     39  C   UNL A   1     -25.387  -0.679  31.571  0.00  0.00    +0.095 C 
ATOM     40  C   UNL A   1     -25.189   0.773  32.028  0.00  0.00    +0.021 C 
ATOM     41  C   UNL A   1     -25.336   0.684  33.544  0.00  0.00    +0.020 C 
ATOM     42  C   UNL A   1     -24.829  -0.715  33.905  0.00  0.00    +0.089 C 
ATOM     43  N   UNL A   1     -24.758  -1.481  32.646  0.00  0.00    -0.217 NA
ENDBRANCH  32  39
ENDBRANCH   1  32
TORSDOF 12
