REMARK  Name = outputs/IAG933/test6/raw/output_210_IAG933_linker_design_.xyz
REMARK  14 active torsions:
REMARK  status: ('A' for Active; 'I' for Inactive)
REMARK    1  A    between atoms: C_1  and  C_2
REMARK    2  A    between atoms: C_1  and  C_8
REMARK    3  A    between atoms: C_1  and  N_28
REMARK    4  A    between atoms: C_13  and  C_37
REMARK    5  A    between atoms: C_14  and  C_15
REMARK    6  A    between atoms: C_21  and  O_22
REMARK    7  A    between atoms: O_22  and  C_23
REMARK    8  A    between atoms: C_23  and  C_24
REMARK    9  A    between atoms: N_28  and  C_39
REMARK   10  A    between atoms: C_30  and  C_35
REMARK   11  A    between atoms: C_30  and  C_39
REMARK   12  A    between atoms: C_34  and  C_39
REMARK   13  A    between atoms: C_35  and  C_38
REMARK   14  A    between atoms: C_37  and  N_41
REMARK                            x       y       z     vdW  Elec       q    Type
REMARK                         _______ _______ _______ _____ _____    ______ ____
ROOT
ATOM      1  C   UNL A   1     -23.159   1.769  26.965  0.00  0.00    +0.046 C 
ATOM      2  C   UNL A   1     -24.415   1.370  27.160  0.00  0.00    +0.093 C 
ENDROOT
BRANCH   2   3
ATOM      3  C   UNL A   1     -25.688   1.614  26.461  0.00  0.00    +0.056 C 
ATOM      4  C   UNL A   1     -26.250   2.920  26.395  0.00  0.00    +0.078 C 
ATOM      5  C   UNL A   1     -27.438   3.091  25.645  0.00  0.00    +0.107 C 
ATOM      6  N   UNL A   1     -28.075   2.089  25.003  0.00  0.00    -0.208 NA
ATOM      7  C   UNL A   1     -27.543   0.849  25.079  0.00  0.00    +0.253 C 
ATOM      8  C   UNL A   1     -26.354   0.576  25.777  0.00  0.00    +0.195 C 
ATOM      9  F   UNL A   1     -25.860  -0.681  25.795  0.00  0.00    -0.199 F 
BRANCH   4  10
ATOM     10  C   UNL A   1     -25.642   4.093  27.123  0.00  0.00    +0.267 C 
ATOM     11  N   UNL A   1     -25.614   5.252  26.449  0.00  0.00    -0.200 NA
ATOM     12  C   UNL A   1     -25.026   6.479  26.963  0.00  0.00    +0.139 C 
ATOM     13  O   UNL A   1     -25.143   3.966  28.243  0.00  0.00    -0.268 OA
ENDBRANCH   4  10
BRANCH   7  14
ATOM     14  O   UNL A   1     -28.193  -0.208  24.477  0.00  0.00    -0.456 OA
BRANCH  14  15
ATOM     15  C   UNL A   1     -29.460   0.005  23.866  0.00  0.00    +0.243 C 
BRANCH  15  16
ATOM     16  C   UNL A   1     -30.065  -1.377  23.573  0.00  0.00    +0.229 C 
ATOM     17  O   UNL A   1     -30.729  -1.878  24.721  0.00  0.00    -0.216 OA
ENDBRANCH  15  16
ENDBRANCH  14  15
ENDBRANCH   7  14
ENDBRANCH   2   3
BRANCH   2  20
ATOM     18  O   UNL A   1     -26.394  -0.647  28.215  0.00  0.00    -0.210 OA
ATOM     19  C   UNL A   1     -25.476  -0.276  28.168  0.00  0.00    +0.240 C 
ATOM     20  N   UNL A   1     -24.608   0.561  28.130  0.00  0.00    -0.167 NA
ENDBRANCH   2  20
BRANCH   1  21
ATOM     21  C   UNL A   1     -22.268   1.453  27.980  0.00  0.00    +0.232 C 
ATOM     22  F   UNL A   1     -21.021   1.886  27.913  0.00  0.00    -0.228 F 
BRANCH  21  24
ATOM     23  O   UNL A   1     -22.584   1.593  30.214  0.00  0.00    -0.198 OA
ATOM     24  C   UNL A   1     -22.450   0.593  29.199  0.00  0.00    +0.258 C 
BRANCH  24  26
ATOM     25  N   UNL A   1     -20.711  -0.324  28.549  0.00  0.00    -0.147 NA
ATOM     26  C   UNL A   1     -21.185  -0.387  29.143  0.00  0.00    +0.145 C 
ENDBRANCH  24  26
BRANCH  24  27
ATOM     27  N   UNL A   1     -23.594  -0.396  29.718  0.00  0.00    -0.180 NA
BRANCH  27  28
ATOM     28  C   UNL A   1     -24.855  -1.012  30.143  0.00  0.00    +0.114 C 
BRANCH  28  29
ATOM     29  C   UNL A   1     -24.973  -2.505  29.788  0.00  0.00    -0.005 C 
ATOM     30  C   UNL A   1     -23.906  -3.173  29.146  0.00  0.00    -0.003 C 
ATOM     31  C   UNL A   1     -23.989  -4.549  28.853  0.00  0.00    -0.000 C 
ATOM     32  C   UNL A   1     -25.137  -5.280  29.205  0.00  0.00    -0.000 C 
ATOM     33  C   UNL A   1     -26.232  -4.611  29.784  0.00  0.00    -0.000 C 
ATOM     34  C   UNL A   1     -26.155  -3.232  30.065  0.00  0.00    -0.003 C 
ENDBRANCH  28  29
BRANCH  28  35
ATOM     35  C   UNL A   1     -25.387  -0.679  31.571  0.00  0.00    +0.093 C 
ATOM     36  C   UNL A   1     -25.189   0.773  32.028  0.00  0.00    +0.021 C 
ATOM     37  C   UNL A   1     -25.336   0.684  33.544  0.00  0.00    +0.020 C 
ATOM     38  C   UNL A   1     -24.829  -0.715  33.905  0.00  0.00    +0.089 C 
ATOM     39  N   UNL A   1     -24.758  -1.481  32.646  0.00  0.00    -0.218 NA
ENDBRANCH  28  35
ENDBRANCH  27  28
ENDBRANCH  24  27
ENDBRANCH  21  24
ENDBRANCH   1  21
BRANCH   1  41
ATOM     40  F   UNL A   1     -21.755   2.312  25.344  0.00  0.00    -0.229 F 
ATOM     41  C   UNL A   1     -22.948   2.333  25.806  0.00  0.00    +0.220 C 
ENDBRANCH   1  41
TORSDOF 14
