REMARK  Name = No_2100-gen_results/8p0m/2024-11-27-11-27-31/
REMARK  1 active torsions:
REMARK  status: ('A' for Active; 'I' for Inactive)
REMARK    1  A    between atoms: C_5  and  C_7
REMARK                            x       y       z     vdW  Elec       q    Type
REMARK                         _______ _______ _______ _____ _____    ______ ____
ROOT
ATOM      1  C   UNL A   1     -28.016  -0.814  28.878  0.00  0.00    -0.000 A 
ATOM      2  C   UNL A   1     -27.064  -0.119  28.608  0.00  0.00    -0.000 A 
ATOM      3  C   UNL A   1     -26.972   0.714  27.506  0.00  0.00    -0.000 A 
ATOM      4  C   UNL A   1     -28.105   0.774  26.642  0.00  0.00    +0.004 A 
ATOM      5  C   UNL A   1     -29.201   0.104  27.053  0.00  0.00    +0.071 A 
ATOM      6  C   UNL A   1     -29.210  -0.603  28.185  0.00  0.00    +0.004 A 
ENDROOT
BRANCH   5   7
ATOM      7  C   UNL A   1     -30.285   0.292  26.003  0.00  0.00    +0.419 C 
ATOM      8  F   UNL A   1     -30.044   0.411  24.909  0.00  0.00    -0.166 F 
ATOM      9  F   UNL A   1     -31.039  -0.914  26.176  0.00  0.00    -0.166 F 
ATOM     10  F   UNL A   1     -31.126   1.279  26.413  0.00  0.00    -0.166 F 
ENDBRANCH   5   7
TORSDOF 1
