MODEL 2101
MODEL 1
REMARK VINA RESULT:    -8.963      0.000      0.000
REMARK INTER + INTRA:         -11.054
REMARK INTER:                 -10.011
REMARK INTRA:                  -1.043
REMARK UNBOUND:                -1.043
REMARK  Name = No_2101-gen_results/8p0m/2024-11-27-11-27-31/
REMARK  2 active torsions:
REMARK  status: ('A' for Active; 'I' for Inactive)
REMARK    1  A    between atoms: C_15  and  C_26
REMARK    2  A    between atoms: C_16  and  C_18
REMARK                            x       y       z     vdW  Elec       q    Type
REMARK                         _______ _______ _______ _____ _____    ______ ____
ROOT
ATOM      1  C   UNL A   1     -27.773   1.989  30.303  0.00  0.00    -0.004 A 
ATOM      2  C   UNL A   1     -27.277   2.910  30.184  0.00  0.00    -0.000 A 
ATOM      3  C   UNL A   1     -26.918   0.827  30.061  0.00  0.00    -0.021 A 
ATOM      4  C   UNL A   1     -27.356  -0.572  30.266  0.00  0.00    +0.052 C 
ATOM      5  C   UNL A   1     -25.922   3.312  29.831  0.00  0.00    -0.000 A 
ATOM      6  C   UNL A   1     -25.087   2.242  29.582  0.00  0.00    -0.004 A 
ATOM      7  C   UNL A   1     -25.545   0.988  29.741  0.00  0.00    -0.022 A 
ATOM      8  C   UNL A   1     -26.589  -1.558  29.623  0.00  0.00    -0.021 A 
ATOM      9  C   UNL A   1     -26.856  -2.914  29.939  0.00  0.00    -0.004 A 
ATOM     10  C   UNL A   1     -25.815  -3.891  29.584  0.00  0.00    -0.000 A 
ATOM     11  C   UNL A   1     -24.748  -3.485  28.733  0.00  0.00    -0.000 A 
ATOM     12  C   UNL A   1     -24.659  -2.167  28.358  0.00  0.00    -0.004 A 
ATOM     13  C   UNL A   1     -25.486  -1.206  28.850  0.00  0.00    -0.022 A 
ATOM     14  C   UNL A   1     -24.861  -0.110  29.130  0.00  0.00    +0.051 C 
ATOM     15  C   UNL A   1     -23.492  -0.197  29.858  0.00  0.00    +0.111 C 
ATOM     16  C   UNL A   1     -24.334   0.449  27.664  0.00  0.00    +0.030 C 
ATOM     17  C   UNL A   1     -23.074   0.766  27.462  0.00  0.00    +0.005 C 
ATOM     18  C   UNL A   1     -22.060   0.653  28.401  0.00  0.00    +0.001 C 
ATOM     19  C   UNL A   1     -22.276   0.180  29.610  0.00  0.00    +0.012 C 
ENDROOT
BRANCH  16  20
ATOM     20  C   UNL A   1     -25.317   0.521  26.632  0.00  0.00    -0.022 A 
ATOM     21  C   UNL A   1     -25.382  -0.419  25.693  0.00  0.00    -0.004 A 
ATOM     22  C   UNL A   1     -26.275  -0.325  24.615  0.00  0.00    -0.000 A 
ATOM     23  C   UNL A   1     -27.105   0.814  24.571  0.00  0.00    -0.000 A 
ATOM     24  C   UNL A   1     -27.039   1.818  25.498  0.00  0.00    -0.000 A 
ATOM     25  C   UNL A   1     -26.107   1.665  26.571  0.00  0.00    -0.004 A 
ATOM     26  C   UNL A   1     -27.948   2.946  25.379  0.00  0.00    -0.000 A 
ATOM     27  C   UNL A   1     -28.770   3.114  24.469  0.00  0.00    -0.000 A 
ATOM     28  C   UNL A   1     -28.948   1.989  23.511  0.00  0.00    -0.000 A 
ATOM     29  C   UNL A   1     -28.114   0.919  23.535  0.00  0.00    -0.000 A 
ENDBRANCH  16  20
BRANCH  15  30
ATOM     30  C   UNL A   1     -23.743  -0.710  31.345  0.00  0.00    +0.365 C 
ATOM     31  O   UNL A   1     -23.550  -1.937  31.585  0.00  0.00    -0.246 OA
ATOM     32  O   UNL A   1     -24.095   0.094  32.240  0.00  0.00    -0.246 OA
ENDBRANCH  15  30
TORSDOF 2
ENDMDL
ENDMDL
