MODEL 2102
MODEL 1
REMARK VINA RESULT:    -4.326      0.000      0.000
REMARK INTER + INTRA:          -4.326
REMARK INTER:                  -4.326
REMARK INTRA:                   0.000
REMARK UNBOUND:                 0.000
REMARK  Name = No_2102-gen_results/8p0m/2024-11-27-11-27-31/
REMARK  0 active torsions:
REMARK  status: ('A' for Active; 'I' for Inactive)
REMARK                            x       y       z     vdW  Elec       q    Type
REMARK                         _______ _______ _______ _____ _____    ______ ____
ROOT
ATOM      1  C   UNL A   1     -24.994  -2.645  29.200  0.00  0.00    +0.000 A 
ATOM      2  C   UNL A   1     -24.190  -3.199  28.802  0.00  0.00    +0.000 A 
ATOM      3  C   UNL A   1     -26.060  -3.484  29.762  0.00  0.00    +0.000 A 
ATOM      4  C   UNL A   1     -26.084  -4.809  29.610  0.00  0.00    +0.000 A 
ATOM      5  C   UNL A   1     -24.002  -4.600  28.516  0.00  0.00    +0.000 A 
ATOM      6  C   UNL A   1     -25.015  -5.360  29.024  0.00  0.00    +0.000 A 
ENDROOT
TORSDOF 0
ENDMDL
ENDMDL
