MODEL 2103
MODEL 1
REMARK VINA RESULT:    -5.948      0.000      0.000
REMARK INTER + INTRA:          -5.948
REMARK INTER:                  -5.948
REMARK INTRA:                   0.000
REMARK UNBOUND:                 0.000
REMARK  Name = No_2103-gen_results/8p0m/2024-11-27-11-27-31/
REMARK  0 active torsions:
REMARK  status: ('A' for Active; 'I' for Inactive)
REMARK                            x       y       z     vdW  Elec       q    Type
REMARK                         _______ _______ _______ _____ _____    ______ ____
ROOT
ATOM      1  C   UNL A   1     -26.176  -2.209  30.162  0.00  0.00    -0.004 A 
ATOM      2  C   UNL A   1     -25.223  -1.503  29.924  0.00  0.00    -0.026 A 
ATOM      3  C   UNL A   1     -24.022  -1.938  29.390  0.00  0.00    -0.021 A 
ATOM      4  C   UNL A   1     -23.919  -3.324  29.071  0.00  0.00    +0.007 A 
ATOM      5  C   UNL A   1     -25.046  -4.051  29.208  0.00  0.00    +0.057 A 
ATOM      6  C   UNL A   1     -26.183  -3.509  29.653  0.00  0.00    +0.011 A 
ATOM      7 CL   UNL A   1     -24.935  -5.687  28.754  0.00  0.00    -0.082 Cl
ATOM      8  C   UNL A   1     -25.184   0.013  30.389  0.00  0.00    +0.026 C 
ATOM      9  C   UNL A   1     -24.730   0.976  29.476  0.00  0.00    +0.009 C 
ATOM     10  C   UNL A   1     -23.249   1.055  29.521  0.00  0.00    +0.023 C 
ATOM     11  C   UNL A   1     -22.522   0.142  28.663  0.00  0.00    -0.040 C 
ATOM     12  C   UNL A   1     -21.201   0.495  28.303  0.00  0.00    -0.009 C 
ATOM     13  C   UNL A   1     -22.687  -1.275  29.118  0.00  0.00    +0.048 C 
ENDROOT
TORSDOF 0
ENDMDL
ENDMDL
