REMARK  Name = outputs/IAG933/test6/raw/output_2103_IAG933_linker_design_.xyz
REMARK  13 active torsions:
REMARK  status: ('A' for Active; 'I' for Inactive)
REMARK    1  A    between atoms: C_1  and  C_2
REMARK    2  A    between atoms: C_1  and  C_8
REMARK    3  A    between atoms: C_1  and  N_34
REMARK    4  A    between atoms: C_13  and  C_33
REMARK    5  A    between atoms: C_14  and  C_15
REMARK    6  A    between atoms: C_21  and  O_22
REMARK    7  A    between atoms: O_22  and  C_23
REMARK    8  A    between atoms: C_23  and  C_24
REMARK    9  A    between atoms: C_28  and  N_36
REMARK   10  A    between atoms: C_28  and  C_43
REMARK   11  A    between atoms: C_32  and  O_41
REMARK   12  A    between atoms: N_35  and  O_41
REMARK   13  A    between atoms: N_36  and  C_44
REMARK                            x       y       z     vdW  Elec       q    Type
REMARK                         _______ _______ _______ _____ _____    ______ ____
ROOT
ATOM      1  C   UNL A   1     -24.506   1.605  27.143  0.00  0.00    +0.376 C 
ATOM      2  N   UNL A   1     -23.493   1.789  26.342  0.00  0.00    +0.162 NA
ATOM      3  N   UNL A   1     -24.378   1.538  28.505  0.00  0.00    -0.145 N 
ENDROOT
BRANCH   1   4
ATOM      4  C   UNL A   1     -25.688   1.614  26.461  0.00  0.00    +0.124 C 
ATOM      5  C   UNL A   1     -26.250   2.920  26.395  0.00  0.00    +0.084 C 
ATOM      6  C   UNL A   1     -27.438   3.091  25.645  0.00  0.00    +0.107 C 
ATOM      7  N   UNL A   1     -28.075   2.089  25.003  0.00  0.00    -0.208 NA
ATOM      8  C   UNL A   1     -27.543   0.849  25.079  0.00  0.00    +0.254 C 
ATOM      9  C   UNL A   1     -26.354   0.576  25.777  0.00  0.00    +0.200 C 
ATOM     10  F   UNL A   1     -25.860  -0.681  25.795  0.00  0.00    -0.199 F 
BRANCH   5  11
ATOM     11  C   UNL A   1     -25.642   4.093  27.123  0.00  0.00    +0.267 C 
ATOM     12  N   UNL A   1     -25.614   5.252  26.449  0.00  0.00    -0.200 NA
ATOM     13  C   UNL A   1     -25.026   6.479  26.963  0.00  0.00    +0.139 C 
ATOM     14  O   UNL A   1     -25.143   3.966  28.243  0.00  0.00    -0.268 OA
ENDBRANCH   5  11
BRANCH   8  15
ATOM     15  O   UNL A   1     -28.193  -0.208  24.477  0.00  0.00    -0.456 OA
BRANCH  15  16
ATOM     16  C   UNL A   1     -29.460   0.005  23.866  0.00  0.00    +0.243 C 
BRANCH  16  17
ATOM     17  C   UNL A   1     -30.065  -1.377  23.573  0.00  0.00    +0.229 C 
ATOM     18  O   UNL A   1     -30.729  -1.878  24.721  0.00  0.00    -0.216 OA
ENDBRANCH  16  17
ENDBRANCH  15  16
ENDBRANCH   8  15
ENDBRANCH   1   4
BRANCH   3  21
ATOM     19  O   UNL A   1     -22.877   0.098  29.880  0.00  0.00    -0.218 OA
ATOM     20  N   UNL A   1     -23.823  -0.218  29.575  0.00  0.00    -0.090 NA
ATOM     21  C   UNL A   1     -23.485   0.556  29.052  0.00  0.00    +0.396 C 
BRANCH  20  22
ATOM     22  C   UNL A   1     -24.855  -1.012  30.143  0.00  0.00    +0.129 C 
BRANCH  22  23
ATOM     23  C   UNL A   1     -24.973  -2.505  29.788  0.00  0.00    -0.004 C 
ATOM     24  C   UNL A   1     -23.906  -3.173  29.146  0.00  0.00    -0.003 C 
ATOM     25  C   UNL A   1     -23.989  -4.549  28.853  0.00  0.00    -0.000 C 
ATOM     26  C   UNL A   1     -25.137  -5.280  29.205  0.00  0.00    -0.000 C 
ATOM     27  C   UNL A   1     -26.232  -4.611  29.784  0.00  0.00    -0.000 C 
ATOM     28  C   UNL A   1     -26.155  -3.232  30.065  0.00  0.00    -0.003 C 
ENDBRANCH  22  23
BRANCH  22  29
ATOM     29  C   UNL A   1     -25.387  -0.679  31.571  0.00  0.00    +0.094 C 
ATOM     30  C   UNL A   1     -25.189   0.773  32.028  0.00  0.00    +0.021 C 
ATOM     31  C   UNL A   1     -25.336   0.684  33.544  0.00  0.00    +0.020 C 
ATOM     32  C   UNL A   1     -24.829  -0.715  33.905  0.00  0.00    +0.089 C 
ATOM     33  N   UNL A   1     -24.758  -1.481  32.646  0.00  0.00    -0.218 NA
ENDBRANCH  22  29
ENDBRANCH  20  22
ENDBRANCH   3  21
BRANCH   3  34
ATOM     34  C   UNL A   1     -25.005   2.350  29.764  0.00  0.00    +0.233 C 
BRANCH  34  41
ATOM     35  C   UNL A   1     -27.328   3.092  30.611  0.00  0.00    -0.000 C 
ATOM     36  C   UNL A   1     -26.138   7.194  30.848  0.00  0.00    +0.031 C 
ATOM     37  C   UNL A   1     -25.693   4.841  30.198  0.00  0.00    -0.004 C 
ATOM     38  C   UNL A   1     -28.170   4.017  31.225  0.00  0.00    -0.001 C 
ATOM     39  C   UNL A   1     -26.563   5.737  30.809  0.00  0.00    -0.022 C 
ATOM     40  C   UNL A   1     -27.788   5.339  31.313  0.00  0.00    -0.004 C 
ATOM     41  C   UNL A   1     -26.052   3.468  30.148  0.00  0.00    +0.024 C 
ENDBRANCH  34  41
ENDBRANCH   3  34
BRANCH   2  42
ATOM     42  O   UNL A   1     -22.334   1.860  26.509  0.00  0.00    -0.228 OA
BRANCH  42  43
ATOM     43  C   UNL A   1     -22.056   1.212  27.627  0.00  0.00    +0.364 C 
ATOM     44  N   UNL A   1     -20.975   0.691  27.890  0.00  0.00    -0.098 NA
ENDBRANCH  42  43
ENDBRANCH   2  42
TORSDOF 13
