REMARK  Name = outputs/IAG933/test6/raw/output_2104_IAG933_linker_design_.xyz
REMARK  13 active torsions:
REMARK  status: ('A' for Active; 'I' for Inactive)
REMARK    1  A    between atoms: C_1  and  C_2
REMARK    2  A    between atoms: C_1  and  C_8
REMARK    3  A    between atoms: C_1  and  C_32
REMARK    4  A    between atoms: C_13  and  C_28
REMARK    5  A    between atoms: C_14  and  C_15
REMARK    6  A    between atoms: C_21  and  O_22
REMARK    7  A    between atoms: O_22  and  C_23
REMARK    8  A    between atoms: C_23  and  C_24
REMARK    9  A    between atoms: C_31  and  C_38
REMARK   10  A    between atoms: C_31  and  C_44
REMARK   11  A    between atoms: C_32  and  C_37
REMARK   12  A    between atoms: C_32  and  C_45
REMARK   13  A    between atoms: C_34  and  C_44
REMARK                            x       y       z     vdW  Elec       q    Type
REMARK                         _______ _______ _______ _____ _____    ______ ____
ROOT
ATOM      1  C   UNL A   1     -25.766  -0.214  29.051  0.00  0.00    +0.008 C 
ENDROOT
BRANCH   1   8
ATOM      2  C   UNL A   1     -24.396   1.274  27.198  0.00  0.00    +0.024 C 
ATOM      3  C   UNL A   1     -23.160   1.443  26.145  0.00  0.00    +0.023 C 
ATOM      4  N   UNL A   1     -21.664   1.387  27.905  0.00  0.00    -0.218 NA
ATOM      5  C   UNL A   1     -22.603   0.591  28.605  0.00  0.00    +0.089 C 
ATOM      6  C   UNL A   1     -21.811   1.707  26.635  0.00  0.00    +0.089 C 
ATOM      7  C   UNL A   1     -23.555   0.400  28.281  0.00  0.00    +0.022 C 
ATOM      8  C   UNL A   1     -24.892   1.034  28.669  0.00  0.00    +0.006 C 
BRANCH   2   9
ATOM      9  C   UNL A   1     -25.688   1.614  26.461  0.00  0.00    +0.015 C 
ATOM     10  C   UNL A   1     -26.250   2.920  26.395  0.00  0.00    +0.073 C 
ATOM     11  C   UNL A   1     -27.438   3.091  25.645  0.00  0.00    +0.106 C 
ATOM     12  N   UNL A   1     -28.075   2.089  25.003  0.00  0.00    -0.208 NA
ATOM     13  C   UNL A   1     -27.543   0.849  25.079  0.00  0.00    +0.253 C 
ATOM     14  C   UNL A   1     -26.354   0.576  25.777  0.00  0.00    +0.189 C 
ATOM     15  F   UNL A   1     -25.860  -0.681  25.795  0.00  0.00    -0.200 F 
BRANCH  10  16
ATOM     16  C   UNL A   1     -25.642   4.093  27.123  0.00  0.00    +0.266 C 
ATOM     17  N   UNL A   1     -25.614   5.252  26.449  0.00  0.00    -0.200 NA
ATOM     18  C   UNL A   1     -25.026   6.479  26.963  0.00  0.00    +0.139 C 
ATOM     19  O   UNL A   1     -25.143   3.966  28.243  0.00  0.00    -0.268 OA
ENDBRANCH  10  16
BRANCH  13  20
ATOM     20  O   UNL A   1     -28.193  -0.208  24.477  0.00  0.00    -0.456 OA
BRANCH  20  21
ATOM     21  C   UNL A   1     -29.460   0.005  23.866  0.00  0.00    +0.243 C 
BRANCH  21  22
ATOM     22  C   UNL A   1     -30.065  -1.377  23.573  0.00  0.00    +0.229 C 
ATOM     23  O   UNL A   1     -30.729  -1.878  24.721  0.00  0.00    -0.216 OA
ENDBRANCH  21  22
ENDBRANCH  20  21
ENDBRANCH  13  20
ENDBRANCH   2   9
ENDBRANCH   1   8
BRANCH   1  25
ATOM     24  C   UNL A   1     -29.495   1.028  28.678  0.00  0.00    +0.143 C 
ATOM     25  C   UNL A   1     -27.376   0.383  29.157  0.00  0.00    +0.033 C 
ATOM     26  C   UNL A   1     -28.791  -0.165  29.441  0.00  0.00    +0.039 C 
ATOM     27  C   UNL A   1     -27.454   1.956  29.700  0.00  0.00    +0.142 C 
ATOM     28  O   UNL A   1     -28.616   2.192  28.838  0.00  0.00    -0.354 OA
BRANCH  26  29
ATOM     29  C   UNL A   1     -29.372  -1.414  28.698  0.00  0.00    +0.067 C 
BRANCH  29  31
ATOM     30  O   UNL A   1     -30.767  -2.029  30.594  0.00  0.00    -0.296 OA
ATOM     31  C   UNL A   1     -29.840  -2.323  29.843  0.00  0.00    +0.151 C 
BRANCH  31  33
ATOM     32  C   UNL A   1     -30.202  -4.713  30.585  0.00  0.00    +0.008 C 
ATOM     33  C   UNL A   1     -29.295  -3.605  29.958  0.00  0.00    +0.065 C 
ENDBRANCH  31  33
ENDBRANCH  29  31
ENDBRANCH  26  29
ENDBRANCH   1  25
BRANCH   1  34
ATOM     34  C   UNL A   1     -24.855  -1.012  30.143  0.00  0.00    +0.038 C 
BRANCH  34  35
ATOM     35  C   UNL A   1     -24.973  -2.505  29.788  0.00  0.00    -0.021 C 
ATOM     36  C   UNL A   1     -23.906  -3.173  29.146  0.00  0.00    -0.004 C 
ATOM     37  C   UNL A   1     -23.989  -4.549  28.853  0.00  0.00    -0.000 C 
ATOM     38  C   UNL A   1     -25.137  -5.280  29.205  0.00  0.00    -0.000 C 
ATOM     39  C   UNL A   1     -26.232  -4.611  29.784  0.00  0.00    -0.000 C 
ATOM     40  C   UNL A   1     -26.155  -3.232  30.065  0.00  0.00    -0.004 C 
ENDBRANCH  34  35
BRANCH  34  41
ATOM     41  C   UNL A   1     -25.387  -0.679  31.571  0.00  0.00    +0.077 C 
ATOM     42  C   UNL A   1     -25.189   0.773  32.028  0.00  0.00    +0.019 C 
ATOM     43  C   UNL A   1     -25.336   0.684  33.544  0.00  0.00    +0.020 C 
ATOM     44  C   UNL A   1     -24.829  -0.715  33.905  0.00  0.00    +0.089 C 
ATOM     45  N   UNL A   1     -24.758  -1.481  32.646  0.00  0.00    -0.219 NA
ENDBRANCH  34  41
ENDBRANCH   1  34
TORSDOF 13
