MODEL 2104
MODEL 1
REMARK VINA RESULT:    -4.874      0.000      0.000
REMARK INTER + INTRA:          -5.317
REMARK INTER:                  -5.159
REMARK INTRA:                  -0.159
REMARK UNBOUND:                -0.159
REMARK  Name = No_2104-gen_results/8p0m/2024-11-27-11-27-31/
REMARK  1 active torsions:
REMARK  status: ('A' for Active; 'I' for Inactive)
REMARK    1  A    between atoms: C_2  and  C_7
REMARK                            x       y       z     vdW  Elec       q    Type
REMARK                         _______ _______ _______ _____ _____    ______ ____
ROOT
ATOM      1  C   UNL A   1     -25.857  -3.009  29.647  0.00  0.00    -0.000 A 
ATOM      2  C   UNL A   1     -24.796  -2.640  29.200  0.00  0.00    -0.000 A 
ATOM      3  C   UNL A   1     -23.890  -3.545  28.658  0.00  0.00    -0.000 A 
ATOM      4  C   UNL A   1     -24.168  -4.958  28.655  0.00  0.00    -0.000 A 
ATOM      5  C   UNL A   1     -25.407  -5.301  29.213  0.00  0.00    -0.000 A 
ATOM      6  C   UNL A   1     -26.220  -4.407  29.727  0.00  0.00    -0.000 A 
ENDROOT
BRANCH   2   7
ATOM      7  C   UNL A   1     -24.189  -1.254  28.987  0.00  0.00    -0.005 C 
ATOM      8  C   UNL A   1     -23.438  -0.645  29.742  0.00  0.00    -0.026 C 
ATOM      9  C   UNL A   1     -23.373  -1.032  31.183  0.00  0.00    +0.031 C 
ENDBRANCH   2   7
TORSDOF 1
ENDMDL
ENDMDL
