MODEL 2105
MODEL 1
REMARK VINA RESULT:    -4.587      0.000      0.000
REMARK INTER + INTRA:          -4.587
REMARK INTER:                  -4.587
REMARK INTRA:                   0.000
REMARK UNBOUND:                 0.000
REMARK  Name = No_2105-gen_results/8p0m/2024-11-27-11-27-31/
REMARK  0 active torsions:
REMARK  status: ('A' for Active; 'I' for Inactive)
REMARK                            x       y       z     vdW  Elec       q    Type
REMARK                         _______ _______ _______ _____ _____    ______ ____
ROOT
ATOM      1  C   UNL A   1     -24.085  -4.517  28.767  0.00  0.00    +0.042 A 
ATOM      2  C   UNL A   1     -25.007  -5.252  29.032  0.00  0.00    +0.003 A 
ATOM      3  C   UNL A   1     -26.183  -4.758  29.588  0.00  0.00    +0.000 A 
ATOM      4  C   UNL A   1     -26.321  -3.361  29.908  0.00  0.00    +0.003 A 
ATOM      5  C   UNL A   1     -25.197  -2.586  29.591  0.00  0.00    +0.042 A 
ATOM      6  C   UNL A   1     -24.103  -3.105  29.082  0.00  0.00    +0.196 A 
ATOM      7  O   UNL A   1     -23.041  -2.288  28.839  0.00  0.00    -0.287 OA
ENDROOT
TORSDOF 0
ENDMDL
ENDMDL
