MODEL 2106
MODEL 1
REMARK VINA RESULT:    -6.278      0.000      0.000
REMARK INTER + INTRA:          -6.979
REMARK INTER:                  -6.646
REMARK INTRA:                  -0.334
REMARK UNBOUND:                -0.334
REMARK  Name = No_2106-gen_results/8p0m/2024-11-27-11-27-31/
REMARK  1 active torsions:
REMARK  status: ('A' for Active; 'I' for Inactive)
REMARK    1  A    between atoms: C_3  and  C_5
REMARK                            x       y       z     vdW  Elec       q    Type
REMARK                         _______ _______ _______ _____ _____    ______ ____
ROOT
ATOM      1  O   UNL A   1     -25.678  -0.297  27.172  0.00  0.00    -0.273 OA
ATOM      2  C   UNL A   1     -24.648  -0.595  27.787  0.00  0.00    +0.245 C 
ATOM      3  C   UNL A   1     -24.320  -1.207  28.560  0.00  0.00    +0.100 C 
ATOM      4  N   UNL A   1     -23.581   0.570  27.627  0.00  0.00    -0.205 NA
ATOM      5  C   UNL A   1     -22.427   0.621  28.320  0.00  0.00    +0.115 C 
ATOM      6  C   UNL A   1     -22.960  -1.308  29.328  0.00  0.00    +0.015 C 
ATOM      7  C   UNL A   1     -22.073  -0.357  29.132  0.00  0.00    +0.024 C 
ENDROOT
BRANCH   3   8
ATOM      8  C   UNL A   1     -25.026  -2.454  28.910  0.00  0.00    -0.014 A 
ATOM      9  C   UNL A   1     -25.853  -2.767  29.410  0.00  0.00    -0.004 A 
ATOM     10  C   UNL A   1     -24.022  -3.618  28.397  0.00  0.00    -0.004 A 
ATOM     11  C   UNL A   1     -24.264  -4.929  28.681  0.00  0.00    -0.000 A 
ATOM     12  C   UNL A   1     -26.338  -4.143  29.775  0.00  0.00    -0.000 A 
ATOM     13  C   UNL A   1     -25.477  -5.229  29.380  0.00  0.00    -0.000 A 
ENDBRANCH   3   8
TORSDOF 1
ENDMDL
ENDMDL
