MODEL 2107
MODEL 1
REMARK VINA RESULT:    -6.146      0.000      0.000
REMARK INTER + INTRA:          -9.571
REMARK INTER:                  -8.302
REMARK INTRA:                  -1.269
REMARK UNBOUND:                -1.269
REMARK  Name = No_2107-gen_results/8p0m/2024-11-27-11-27-31/
REMARK  6 active torsions:
REMARK  status: ('A' for Active; 'I' for Inactive)
REMARK    1  A    between atoms: C_2  and  C_3
REMARK    2  A    between atoms: C_3  and  C_5
REMARK    3  A    between atoms: N_4  and  C_15
REMARK    4  A    between atoms: C_6  and  C_23
REMARK    5  A    between atoms: C_9  and  C_10
REMARK    6  A    between atoms: C_15  and  C_16
REMARK                            x       y       z     vdW  Elec       q    Type
REMARK                         _______ _______ _______ _____ _____    ______ ____
ROOT
ATOM      1  O   UNL A   1     -22.465   1.641  28.119  0.00  0.00    -0.274 OA
ATOM      2  C   UNL A   1     -22.906   0.596  28.288  0.00  0.00    +0.236 C 
ATOM      3  N   UNL A   1     -23.983   0.141  27.558  0.00  0.00    -0.218 N 
ATOM      4  C   UNL A   1     -24.316   0.840  26.423  0.00  0.00    +0.327 C 
ATOM      5  O   UNL A   1     -24.238   1.960  26.282  0.00  0.00    -0.265 OA
ENDROOT
BRANCH   4   6
ATOM      6  C   UNL A   1     -25.275   0.091  25.443  0.00  0.00    +0.470 C 
ATOM      7  F   UNL A   1     -25.400  -1.077  25.489  0.00  0.00    -0.162 F 
ATOM      8  F   UNL A   1     -26.094   0.880  25.454  0.00  0.00    -0.162 F 
ATOM      9  F   UNL A   1     -24.629   0.396  24.208  0.00  0.00    -0.162 F 
ENDBRANCH   4   6
BRANCH   2  10
ATOM     10  C   UNL A   1     -22.621  -0.015  29.510  0.00  0.00    +0.112 C 
BRANCH  10  11
ATOM     11  C   UNL A   1     -23.227   0.126  30.581  0.00  0.00    -0.013 A 
ATOM     12  C   UNL A   1     -23.854   1.001  30.987  0.00  0.00    -0.004 A 
ATOM     13  C   UNL A   1     -24.748   1.106  32.121  0.00  0.00    +0.006 A 
ATOM     14  C   UNL A   1     -24.711   0.020  33.002  0.00  0.00    +0.080 A 
ATOM     15  C   UNL A   1     -23.833  -1.115  32.702  0.00  0.00    +0.006 A 
ATOM     16  C   UNL A   1     -23.105  -1.020  31.545  0.00  0.00    -0.004 A 
BRANCH  14  17
ATOM     17  C   UNL A   1     -25.470  -0.052  34.195  0.00  0.00    +0.388 C 
ATOM     18  O   UNL A   1     -25.045  -0.781  35.106  0.00  0.00    -0.241 OA
ATOM     19  O   UNL A   1     -26.656   0.415  34.238  0.00  0.00    -0.241 OA
ENDBRANCH  14  17
ENDBRANCH  10  11
ENDBRANCH   2  10
BRANCH   3  20
ATOM     20  C   UNL A   1     -24.595  -1.128  27.714  0.00  0.00    +0.128 C 
BRANCH  20  21
ATOM     21  C   UNL A   1     -25.591  -1.204  28.621  0.00  0.00    -0.002 A 
ATOM     22  C   UNL A   1     -25.662  -2.191  29.314  0.00  0.00    -0.003 A 
ATOM     23  C   UNL A   1     -26.669  -2.325  30.469  0.00  0.00    -0.000 A 
ATOM     24  C   UNL A   1     -27.538  -1.225  30.610  0.00  0.00    -0.000 A 
ATOM     25  C   UNL A   1     -27.436  -0.104  29.795  0.00  0.00    -0.000 A 
ATOM     26  C   UNL A   1     -26.411  -0.053  28.849  0.00  0.00    -0.003 A 
ENDBRANCH  20  21
ENDBRANCH   3  20
TORSDOF 6
ENDMDL
ENDMDL
