REMARK  Name = No_2107-gen_results/8p0m/2024-11-27-11-27-31/
REMARK  6 active torsions:
REMARK  status: ('A' for Active; 'I' for Inactive)
REMARK    1  A    between atoms: C_2  and  C_3
REMARK    2  A    between atoms: C_3  and  C_5
REMARK    3  A    between atoms: N_4  and  C_15
REMARK    4  A    between atoms: C_6  and  C_23
REMARK    5  A    between atoms: C_9  and  C_10
REMARK    6  A    between atoms: C_15  and  C_16
REMARK                            x       y       z     vdW  Elec       q    Type
REMARK                         _______ _______ _______ _____ _____    ______ ____
ROOT
ATOM      1  O   UNL A   1     -28.123  -1.335  28.487  0.00  0.00    -0.274 OA
ATOM      2  C   UNL A   1     -28.521  -0.436  29.078  0.00  0.00    +0.236 C 
ATOM      3  N   UNL A   1     -29.566   0.330  28.610  0.00  0.00    -0.218 N 
ATOM      4  C   UNL A   1     -30.315  -0.187  27.580  0.00  0.00    +0.327 C 
ATOM      5  O   UNL A   1     -29.928  -0.822  26.727  0.00  0.00    -0.265 OA
ENDROOT
BRANCH   4   6
ATOM      6  C   UNL A   1     -31.687   0.520  27.340  0.00  0.00    +0.470 C 
ATOM      7  F   UNL A   1     -32.141   1.253  28.140  0.00  0.00    -0.162 F 
ATOM      8  F   UNL A   1     -31.528   0.712  26.230  0.00  0.00    -0.162 F 
ATOM      9  F   UNL A   1     -32.534  -0.627  27.293  0.00  0.00    -0.162 F 
ENDBRANCH   4   6
BRANCH   2  10
ATOM     10  C   UNL A   1     -27.666   0.113  30.035  0.00  0.00    +0.112 C 
BRANCH  10  11
ATOM     11  C   UNL A   1     -26.428   0.064  30.054  0.00  0.00    -0.013 A 
ATOM     12  C   UNL A   1     -25.707  -0.828  30.137  0.00  0.00    -0.004 A 
ATOM     13  C   UNL A   1     -24.277  -0.938  29.939  0.00  0.00    +0.006 A 
ATOM     14  C   UNL A   1     -23.606   0.283  29.808  0.00  0.00    +0.080 A 
ATOM     15  C   UNL A   1     -24.376   1.530  29.841  0.00  0.00    +0.006 A 
ATOM     16  C   UNL A   1     -25.731   1.394  29.995  0.00  0.00    -0.004 A 
BRANCH  14  17
ATOM     17  C   UNL A   1     -22.203   0.397  29.656  0.00  0.00    +0.388 C 
ATOM     18  O   UNL A   1     -21.761   1.442  29.151  0.00  0.00    -0.241 OA
ATOM     19  O   UNL A   1     -21.450  -0.622  29.802  0.00  0.00    -0.241 OA
ENDBRANCH  14  17
ENDBRANCH  10  11
ENDBRANCH   2  10
BRANCH   3  20
ATOM     20  C   UNL A   1     -30.107   1.461  29.270  0.00  0.00    +0.128 C 
BRANCH  20  21
ATOM     21  C   UNL A   1     -29.819   2.663  28.729  0.00  0.00    -0.002 A 
ATOM     22  C   UNL A   1     -29.647   3.600  29.472  0.00  0.00    -0.003 A 
ATOM     23  C   UNL A   1     -29.181   4.980  28.976  0.00  0.00    -0.000 A 
ATOM     24  C   UNL A   1     -29.031   5.072  27.578  0.00  0.00    -0.000 A 
ATOM     25  C   UNL A   1     -29.240   3.978  26.747  0.00  0.00    -0.000 A 
ATOM     26  C   UNL A   1     -29.557   2.748  27.324  0.00  0.00    -0.003 A 
ENDBRANCH  20  21
ENDBRANCH   3  20
TORSDOF 6
