MODEL 2108
MODEL 1
REMARK VINA RESULT:    -6.256      0.000      0.000
REMARK INTER + INTRA:          -6.694
REMARK INTER:                  -6.622
REMARK INTRA:                  -0.072
REMARK UNBOUND:                -0.072
REMARK  Name = No_2108-gen_results/8p0m/2024-11-27-11-27-31/
REMARK  1 active torsions:
REMARK  status: ('A' for Active; 'I' for Inactive)
REMARK    1  A    between atoms: C_9  and  C_11
REMARK                            x       y       z     vdW  Elec       q    Type
REMARK                         _______ _______ _______ _____ _____    ______ ____
ROOT
ATOM      1  C   UNL A   1     -31.023  -9.758  29.201  0.00  0.00    +0.000 A 
ATOM      2  C   UNL A   1     -31.056 -10.292  28.293  0.00  0.00    +0.000 A 
ATOM      3  C   UNL A   1     -30.025 -10.199  30.188  0.00  0.00    +0.000 A 
ATOM      4  C   UNL A   1     -29.877  -9.732  31.558  0.00  0.00    +0.000 A 
ATOM      5  C   UNL A   1     -30.138 -11.300  27.711  0.00  0.00    +0.000 A 
ATOM      6  C   UNL A   1     -29.159 -11.765  28.582  0.00  0.00    +0.000 A 
ATOM      7  C   UNL A   1     -29.035 -11.226  29.845  0.00  0.00    +0.000 A 
ATOM      8  C   UNL A   1     -29.348 -10.584  32.565  0.00  0.00    +0.008 A 
ATOM      9  C   UNL A   1     -28.376 -11.539  32.158  0.00  0.00    +0.098 A 
ATOM     10  C   UNL A   1     -28.274 -11.905  30.856  0.00  0.00    +0.008 A 
ENDROOT
BRANCH   9  11
ATOM     11  C   UNL A   1     -27.613 -12.246  33.222  0.00  0.00    +0.477 C 
ATOM     12  N   UNL A   1     -27.677 -12.298  34.358  0.00  0.00    +0.205 NA
ATOM     13  N   UNL A   1     -26.445 -12.862  32.628  0.00  0.00    +0.205 NA
ENDBRANCH   9  11
TORSDOF 1
ENDMDL
ENDMDL
