MODEL 2109
MODEL 1
REMARK VINA RESULT:    -6.659      0.000      0.000
REMARK INTER + INTRA:          -8.938
REMARK INTER:                  -8.216
REMARK INTRA:                  -0.722
REMARK UNBOUND:                -0.722
REMARK  Name = No_2109-gen_results/8p0m/2024-11-27-11-27-31/
REMARK  4 active torsions:
REMARK  status: ('A' for Active; 'I' for Inactive)
REMARK    1  A    between atoms: C_2  and  C_7
REMARK    2  A    between atoms: C_6  and  C_13
REMARK    3  A    between atoms: C_13  and  N_14
REMARK    4  A    between atoms: N_14  and  C_15
REMARK                            x       y       z     vdW  Elec       q    Type
REMARK                         _______ _______ _______ _____ _____    ______ ____
ROOT
ATOM      1  C   UNL A   1     -24.294  -0.444  28.264  0.00  0.00    -0.003 A 
ATOM      2  C   UNL A   1     -23.791  -1.304  28.949  0.00  0.00    -0.000 A 
ATOM      3  C   UNL A   1     -22.454  -1.233  29.323  0.00  0.00    -0.000 A 
ATOM      4  C   UNL A   1     -21.613  -0.156  28.868  0.00  0.00    -0.000 A 
ATOM      5  C   UNL A   1     -22.270   0.782  28.061  0.00  0.00    -0.003 A 
ATOM      6  C   UNL A   1     -23.533   0.660  27.722  0.00  0.00    -0.001 A 
ENDROOT
BRANCH   2   7
ATOM      7  C   UNL A   1     -24.637  -2.440  29.314  0.00  0.00    -0.000 A 
ATOM      8  C   UNL A   1     -25.641  -2.550  29.577  0.00  0.00    -0.000 A 
ATOM      9  C   UNL A   1     -23.920  -3.661  28.701  0.00  0.00    -0.000 A 
ATOM     10  C   UNL A   1     -24.493  -4.922  28.895  0.00  0.00    -0.000 A 
ATOM     11  C   UNL A   1     -26.395  -3.801  29.889  0.00  0.00    -0.000 A 
ATOM     12  C   UNL A   1     -25.783  -4.992  29.448  0.00  0.00    +0.000 A 
ENDBRANCH   2   7
BRANCH   6  13
ATOM     13  C   UNL A   1     -24.041   1.692  26.771  0.00  0.00    +0.139 C 
BRANCH  13  14
ATOM     14  N   UNL A   1     -24.363   1.400  25.785  0.00  0.00    -0.232 NA
BRANCH  14  15
ATOM     15  C   UNL A   1     -25.402   1.088  25.310  0.00  0.00    +0.081 C 
ATOM     16  C   UNL A   1     -25.658  -0.302  24.817  0.00  0.00    +0.019 C 
ENDBRANCH  14  15
ENDBRANCH  13  14
ENDBRANCH   6  13
TORSDOF 4
ENDMDL
ENDMDL
