REMARK  Name = outputs/IAG933/test6/raw/output_2109_IAG933_linker_design_.xyz
REMARK  15 active torsions:
REMARK  status: ('A' for Active; 'I' for Inactive)
REMARK    1  A    between atoms: C_1  and  C_2
REMARK    2  A    between atoms: C_1  and  C_8
REMARK    3  A    between atoms: C_1  and  C_44
REMARK    4  A    between atoms: C_13  and  C_34
REMARK    5  A    between atoms: C_14  and  C_15
REMARK    6  A    between atoms: C_21  and  O_22
REMARK    7  A    between atoms: O_22  and  C_23
REMARK    8  A    between atoms: C_23  and  C_24
REMARK    9  A    between atoms: C_28  and  C_31
REMARK   10  A    between atoms: C_28  and  C_45
REMARK   11  A    between atoms: C_31  and  C_35
REMARK   12  A    between atoms: C_32  and  C_34
REMARK   13  A    between atoms: C_32  and  C_42
REMARK   14  A    between atoms: C_34  and  C_38
REMARK   15  A    between atoms: C_36  and  N_40
REMARK                            x       y       z     vdW  Elec       q    Type
REMARK                         _______ _______ _______ _____ _____    ______ ____
ROOT
ATOM      1  C   UNL A   1     -26.009   1.376  29.527  0.00  0.00    +0.058 C 
ATOM      2  C   UNL A   1     -24.844   1.220  28.699  0.00  0.00    +0.012 C 
ATOM      3  C   UNL A   1     -25.368  -0.064  29.217  0.00  0.00    +0.013 C 
ENDROOT
BRANCH   1   4
ATOM      4  C   UNL A   1     -27.375   1.297  29.132  0.00  0.00    +0.152 C 
ATOM      5  O   UNL A   1     -27.873   0.181  28.910  0.00  0.00    -0.296 OA
BRANCH   4   6
ATOM      6  C   UNL A   1     -28.247   2.428  29.201  0.00  0.00    +0.081 C 
BRANCH   6  12
ATOM      7  C   UNL A   1     -30.045   2.342  32.644  0.00  0.00    +0.017 C 
ATOM      8  C   UNL A   1     -29.698   1.685  31.301  0.00  0.00    +0.018 C 
ATOM      9  C   UNL A   1     -30.489   4.894  32.791  0.00  0.00    +0.017 C 
ATOM     10  N   UNL A   1     -28.606   3.726  31.381  0.00  0.00    -0.247 NA
ATOM     11  C   UNL A   1     -29.439   3.752  32.594  0.00  0.00    +0.060 C 
ATOM     12  C   UNL A   1     -28.858   2.619  30.509  0.00  0.00    +0.067 C 
BRANCH  10  13
ATOM     13  C   UNL A   1     -27.351   4.274  31.222  0.00  0.00    +0.259 C 
ATOM     14  O   UNL A   1     -26.313   4.558  31.055  0.00  0.00    -0.201 OA
ENDBRANCH  10  13
ENDBRANCH   6  12
ENDBRANCH   4   6
ENDBRANCH   1   4
BRANCH   3  15
ATOM     15  C   UNL A   1     -24.855  -1.012  30.143  0.00  0.00    +0.039 C 
BRANCH  15  16
ATOM     16  C   UNL A   1     -24.973  -2.505  29.788  0.00  0.00    -0.021 C 
ATOM     17  C   UNL A   1     -23.906  -3.173  29.146  0.00  0.00    -0.004 C 
ATOM     18  C   UNL A   1     -23.989  -4.549  28.853  0.00  0.00    -0.000 C 
ATOM     19  C   UNL A   1     -25.137  -5.280  29.205  0.00  0.00    -0.000 C 
ATOM     20  C   UNL A   1     -26.232  -4.611  29.784  0.00  0.00    -0.000 C 
ATOM     21  C   UNL A   1     -26.155  -3.232  30.065  0.00  0.00    -0.004 C 
ENDBRANCH  15  16
BRANCH  15  22
ATOM     22  C   UNL A   1     -25.387  -0.679  31.571  0.00  0.00    +0.077 C 
ATOM     23  C   UNL A   1     -25.189   0.773  32.028  0.00  0.00    +0.019 C 
ATOM     24  C   UNL A   1     -25.336   0.684  33.544  0.00  0.00    +0.020 C 
ATOM     25  C   UNL A   1     -24.829  -0.715  33.905  0.00  0.00    +0.089 C 
ATOM     26  N   UNL A   1     -24.758  -1.481  32.646  0.00  0.00    -0.219 NA
ENDBRANCH  15  22
ENDBRANCH   3  15
BRANCH   2  27
ATOM     27  C   UNL A   1     -24.509   1.211  27.158  0.00  0.00    +0.028 C 
BRANCH  27  28
ATOM     28  C   UNL A   1     -25.688   1.614  26.461  0.00  0.00    +0.016 C 
ATOM     29  C   UNL A   1     -26.250   2.920  26.395  0.00  0.00    +0.073 C 
ATOM     30  C   UNL A   1     -27.438   3.091  25.645  0.00  0.00    +0.106 C 
ATOM     31  N   UNL A   1     -28.075   2.089  25.003  0.00  0.00    -0.208 NA
ATOM     32  C   UNL A   1     -27.543   0.849  25.079  0.00  0.00    +0.253 C 
ATOM     33  C   UNL A   1     -26.354   0.576  25.777  0.00  0.00    +0.189 C 
ATOM     34  F   UNL A   1     -25.860  -0.681  25.795  0.00  0.00    -0.200 F 
BRANCH  29  35
ATOM     35  C   UNL A   1     -25.642   4.093  27.123  0.00  0.00    +0.266 C 
ATOM     36  N   UNL A   1     -25.614   5.252  26.449  0.00  0.00    -0.200 NA
ATOM     37  C   UNL A   1     -25.026   6.479  26.963  0.00  0.00    +0.139 C 
ATOM     38  O   UNL A   1     -25.143   3.966  28.243  0.00  0.00    -0.268 OA
ENDBRANCH  29  35
BRANCH  32  39
ATOM     39  O   UNL A   1     -28.193  -0.208  24.477  0.00  0.00    -0.456 OA
BRANCH  39  40
ATOM     40  C   UNL A   1     -29.460   0.005  23.866  0.00  0.00    +0.243 C 
BRANCH  40  41
ATOM     41  C   UNL A   1     -30.065  -1.377  23.573  0.00  0.00    +0.229 C 
ATOM     42  O   UNL A   1     -30.729  -1.878  24.721  0.00  0.00    -0.216 OA
ENDBRANCH  40  41
ENDBRANCH  39  40
ENDBRANCH  32  39
ENDBRANCH  27  28
BRANCH  27  43
ATOM     43  C   UNL A   1     -23.224   1.685  26.799  0.00  0.00    +0.037 C 
ATOM     44  C   UNL A   1     -23.069   1.972  25.403  0.00  0.00    +0.003 C 
BRANCH  43  45
ATOM     45  C   UNL A   1     -21.865   1.268  27.435  0.00  0.00    +0.182 C 
ATOM     46  O   UNL A   1     -22.038   0.350  28.453  0.00  0.00    -0.220 OA
ENDBRANCH  43  45
ENDBRANCH  27  43
ENDBRANCH   2  27
TORSDOF 15
