MODEL 210
MODEL 1
REMARK VINA RESULT:    -6.671      0.000      0.000
REMARK INTER + INTRA:          -9.644
REMARK INTER:                  -9.011
REMARK INTRA:                  -0.633
REMARK UNBOUND:                -0.633
REMARK  Name = No_210-gen_results/8p0m/2024-11-27-11-27-31/
REMARK  6 active torsions:
REMARK  status: ('A' for Active; 'I' for Inactive)
REMARK    1  A    between atoms: C_6  and  C_8
REMARK    2  A    between atoms: N_9  and  C_11
REMARK    3  A    between atoms: C_15  and  C_17
REMARK    4  A    between atoms: N_18  and  C_20
REMARK    5  A    between atoms: C_21  and  C_22
REMARK    6  A    between atoms: C_22  and  C_23
REMARK                            x       y       z     vdW  Elec       q    Type
REMARK                         _______ _______ _______ _____ _____    ______ ____
ROOT
ATOM      1  C   UNL A   1     -23.488   0.843  28.212  0.00  0.00    +0.074 A 
ATOM      2  C   UNL A   1     -22.418   1.371  28.017  0.00  0.00    +0.017 A 
ATOM      3  C   UNL A   1     -22.042   1.956  26.668  0.00  0.00    +0.002 A 
ATOM      4  C   UNL A   1     -23.063   1.773  25.685  0.00  0.00    +0.005 A 
ATOM      5  C   UNL A   1     -24.235   1.132  26.039  0.00  0.00    +0.057 A 
ATOM      6  C   UNL A   1     -24.467   0.653  27.321  0.00  0.00    +0.021 A 
ENDROOT
BRANCH   1   8
ATOM      7  C   UNL A   1     -24.281   0.898  30.460  0.00  0.00    +0.269 C 
ATOM      8  N   UNL A   1     -23.647   0.320  29.587  0.00  0.00    -0.175 NA
ATOM      9  O   UNL A   1     -24.836   2.011  30.304  0.00  0.00    -0.268 OA
BRANCH   7  15
ATOM     10  C   UNL A   1     -23.610  -1.323  33.419  0.00  0.00    +0.030 A 
ATOM     11  C   UNL A   1     -24.461  -0.959  34.197  0.00  0.00    +0.140 A 
ATOM     12  C   UNL A   1     -25.341   0.043  33.944  0.00  0.00    +0.030 A 
ATOM     13  C   UNL A   1     -25.263   0.703  32.702  0.00  0.00    +0.007 A 
ATOM     14  C   UNL A   1     -23.535  -0.759  32.095  0.00  0.00    +0.007 A 
ATOM     15  C   UNL A   1     -24.378   0.271  31.802  0.00  0.00    +0.056 A 
ATOM     16  F   UNL A   1     -24.595  -1.546  35.414  0.00  0.00    -0.204 F 
ENDBRANCH   7  15
ENDBRANCH   1   8
BRANCH   5  17
ATOM     17  C   UNL A   1     -25.416   0.958  25.200  0.00  0.00    +0.269 C 
ATOM     18  N   UNL A   1     -26.453   1.668  25.489  0.00  0.00    -0.174 NA
ATOM     19  O   UNL A   1     -25.569  -0.001  24.432  0.00  0.00    -0.268 OA
BRANCH  18  20
ATOM     20  C   UNL A   1     -27.683   1.595  24.736  0.00  0.00    +0.085 C 
ATOM     21  C   UNL A   1     -28.081   2.285  23.969  0.00  0.00    -0.004 C 
BRANCH  21  22
ATOM     22  C   UNL A   1     -29.392   2.130  23.275  0.00  0.00    +0.053 C 
BRANCH  22  23
ATOM     23  C   UNL A   1     -30.302   1.083  23.452  0.00  0.00    -0.026 C 
ATOM     24  C   UNL A   1     -31.482   1.133  22.676  0.00  0.00    -0.030 C 
ATOM     25  C   UNL A   1     -31.728   2.175  21.797  0.00  0.00    +0.030 C 
ENDBRANCH  22  23
ENDBRANCH  21  22
ENDBRANCH  18  20
ENDBRANCH   5  17
TORSDOF 6
ENDMDL
ENDMDL
