REMARK  Name = No_211-gen_results/8p0m/2024-11-27-11-27-31/
REMARK  1 active torsions:
REMARK  status: ('A' for Active; 'I' for Inactive)
REMARK    1  A    between atoms: C_7  and  C_12
REMARK                            x       y       z     vdW  Elec       q    Type
REMARK                         _______ _______ _______ _____ _____    ______ ____
ROOT
ATOM      1  C   UNL A   1     -28.016  -0.814  28.878  0.00  0.00    -0.026 A 
ATOM      2  C   UNL A   1     -28.469  -0.785  29.829  0.00  0.00    -0.004 A 
ATOM      3  C   UNL A   1     -28.196   0.348  28.055  0.00  0.00    -0.016 A 
ATOM      4  C   UNL A   1     -27.442   0.510  26.795  0.00  0.00    +0.027 C 
ATOM      5  C   UNL A   1     -26.169  -0.079  26.679  0.00  0.00    +0.005 C 
ATOM      6  C   UNL A   1     -25.731  -0.961  27.688  0.00  0.00    +0.005 C 
ATOM      7  C   UNL A   1     -26.504  -1.222  28.758  0.00  0.00    +0.022 C 
ATOM      8  C   UNL A   1     -29.580  -0.243  30.217  0.00  0.00    +0.001 A 
ATOM      9  C   UNL A   1     -30.057   0.724  29.310  0.00  0.00    +0.011 A 
ATOM     10  C   UNL A   1     -29.360   1.053  28.122  0.00  0.00    +0.053 A 
ATOM     11 CL   UNL A   1     -29.882   2.163  27.030  0.00  0.00    -0.083 Cl
ENDROOT
BRANCH   7  12
ATOM     12  C   UNL A   1     -25.946  -2.277  29.702  0.00  0.00    +0.004 C 
ATOM     13  C   UNL A   1     -24.992  -3.064  29.239  0.00  0.00    +0.000 C 
ATOM     14  C   UNL A   1     -25.529  -1.576  30.975  0.00  0.00    +0.000 C 
ATOM     15  C   UNL A   1     -27.115  -3.262  30.050  0.00  0.00    +0.000 C 
ATOM     16  C   UNL A   1     -26.997  -4.636  29.731  0.00  0.00    +0.000 C 
ATOM     17  C   UNL A   1     -24.819  -4.427  28.971  0.00  0.00    +0.000 C 
ATOM     18  C   UNL A   1     -25.909  -5.178  29.360  0.00  0.00    +0.000 C 
ENDBRANCH   7  12
TORSDOF 1
