MODEL 2110
MODEL 1
REMARK VINA RESULT:    -5.304      0.000      0.000
REMARK INTER + INTRA:          -6.055
REMARK INTER:                  -5.924
REMARK INTRA:                  -0.131
REMARK UNBOUND:                -0.131
REMARK  Name = No_2110-gen_results/8p0m/2024-11-27-11-27-31/
REMARK  2 active torsions:
REMARK  status: ('A' for Active; 'I' for Inactive)
REMARK    1  A    between atoms: C_1  and  C_7
REMARK    2  A    between atoms: C_5  and  C_6
REMARK                            x       y       z     vdW  Elec       q    Type
REMARK                         _______ _______ _______ _____ _____    ______ ____
ROOT
ATOM      1  C   UNL A   1     -28.018 -11.619  32.381  0.00  0.00    +0.042 A 
ATOM      2  C   UNL A   1     -28.849 -10.859  32.825  0.00  0.00    +0.003 A 
ATOM      3  C   UNL A   1     -29.772 -10.194  32.042  0.00  0.00    +0.000 A 
ATOM      4  C   UNL A   1     -29.767 -10.449  30.642  0.00  0.00    -0.000 A 
ATOM      5  C   UNL A   1     -28.936 -11.430  30.219  0.00  0.00    -0.000 A 
ATOM      6  C   UNL A   1     -28.043 -11.985  31.076  0.00  0.00    +0.003 A 
ENDROOT
BRANCH   5   7
ATOM      7  C   UNL A   1     -29.007 -11.741  28.851  0.00  0.00    -0.005 C 
ATOM      8  C   UNL A   1     -29.762 -12.797  28.375  0.00  0.00    -0.026 C 
ATOM      9  C   UNL A   1     -30.183 -13.830  29.326  0.00  0.00    +0.031 C 
ENDBRANCH   5   7
BRANCH   1  10
ATOM     10  C   UNL A   1     -27.116 -12.319  33.260  0.00  0.00    +0.234 C 
ATOM     11  O   UNL A   1     -27.392 -12.331  34.514  0.00  0.00    -0.283 OA
ENDBRANCH   1  10
TORSDOF 2
ENDMDL
ENDMDL
