REMARK  Name = outputs/IAG933/test6/raw/output_2110_IAG933_linker_design_.xyz
REMARK  9 active torsions:
REMARK  status: ('A' for Active; 'I' for Inactive)
REMARK    1  A    between atoms: C_1  and  C_2
REMARK    2  A    between atoms: C_1  and  C_8
REMARK    3  A    between atoms: C_1  and  N_45
REMARK    4  A    between atoms: C_13  and  C_35
REMARK    5  A    between atoms: C_14  and  C_15
REMARK    6  A    between atoms: C_21  and  O_22
REMARK    7  A    between atoms: O_22  and  C_23
REMARK    8  A    between atoms: C_23  and  C_24
REMARK    9  A    between atoms: C_38  and  N_44
REMARK                            x       y       z     vdW  Elec       q    Type
REMARK                         _______ _______ _______ _____ _____    ______ ____
ROOT
ATOM      1  O   UNL A   1     -21.744   1.690  27.041  0.00  0.00    -0.354 OA
ATOM      2  C   UNL A   1     -23.424   1.543  25.517  0.00  0.00    +0.042 C 
ATOM      3  C   UNL A   1     -22.104   1.889  25.704  0.00  0.00    +0.143 C 
ATOM      4  C   UNL A   1     -24.149   1.309  27.079  0.00  0.00    +0.085 C 
ATOM      5  C   UNL A   1     -22.676   0.599  29.064  0.00  0.00    +0.104 C 
ATOM      6  C   UNL A   1     -24.902   0.919  28.497  0.00  0.00    +0.174 C 
ATOM      7  C   UNL A   1     -22.790   1.324  27.823  0.00  0.00    +0.138 C 
ATOM      8  N   UNL A   1     -23.999  -0.116  29.212  0.00  0.00    -0.248 NA
ENDROOT
BRANCH   6  18
ATOM      9  C   UNL A   1     -26.955   1.979  29.931  0.00  0.00    +0.314 C 
ATOM     10  S   UNL A   1     -29.719   2.159  32.419  0.00  0.00    -0.090 S 
ATOM     11  N   UNL A   1     -27.715   3.784  31.272  0.00  0.00    +0.007 NA
ATOM     12  C   UNL A   1     -28.901   2.924  31.073  0.00  0.00    +0.249 C 
ATOM     13  O   UNL A   1     -26.616   3.219  30.500  0.00  0.00    -0.347 OA
ATOM     14  C   UNL A   1     -28.939   0.545  30.437  0.00  0.00    +0.245 C 
ATOM     15  C   UNL A   1     -30.035   0.603  31.540  0.00  0.00    +0.146 C 
ATOM     16  N   UNL A   1     -28.158   1.731  30.465  0.00  0.00    -0.186 N 
ATOM     17  O   UNL A   1     -28.945  -0.229  29.496  0.00  0.00    -0.273 OA
ATOM     18  N   UNL A   1     -26.129   1.215  29.117  0.00  0.00    -0.207 NA
ENDBRANCH   6  18
BRANCH   4  19
ATOM     19  C   UNL A   1     -25.688   1.614  26.461  0.00  0.00    +0.021 C 
ATOM     20  C   UNL A   1     -26.250   2.920  26.395  0.00  0.00    +0.073 C 
ATOM     21  C   UNL A   1     -27.438   3.091  25.645  0.00  0.00    +0.106 C 
ATOM     22  N   UNL A   1     -28.075   2.089  25.003  0.00  0.00    -0.208 NA
ATOM     23  C   UNL A   1     -27.543   0.849  25.079  0.00  0.00    +0.253 C 
ATOM     24  C   UNL A   1     -26.354   0.576  25.777  0.00  0.00    +0.189 C 
ATOM     25  F   UNL A   1     -25.860  -0.681  25.795  0.00  0.00    -0.200 F 
BRANCH  20  26
ATOM     26  C   UNL A   1     -25.642   4.093  27.123  0.00  0.00    +0.266 C 
ATOM     27  N   UNL A   1     -25.614   5.252  26.449  0.00  0.00    -0.200 NA
ATOM     28  C   UNL A   1     -25.026   6.479  26.963  0.00  0.00    +0.139 C 
ATOM     29  O   UNL A   1     -25.143   3.966  28.243  0.00  0.00    -0.268 OA
ENDBRANCH  20  26
BRANCH  23  30
ATOM     30  O   UNL A   1     -28.193  -0.208  24.477  0.00  0.00    -0.456 OA
BRANCH  30  31
ATOM     31  C   UNL A   1     -29.460   0.005  23.866  0.00  0.00    +0.243 C 
BRANCH  31  32
ATOM     32  C   UNL A   1     -30.065  -1.377  23.573  0.00  0.00    +0.229 C 
ATOM     33  O   UNL A   1     -30.729  -1.878  24.721  0.00  0.00    -0.216 OA
ENDBRANCH  31  32
ENDBRANCH  30  31
ENDBRANCH  23  30
ENDBRANCH   4  19
BRANCH   8  34
ATOM     34  C   UNL A   1     -24.855  -1.012  30.143  0.00  0.00    +0.098 C 
BRANCH  34  35
ATOM     35  C   UNL A   1     -24.973  -2.505  29.788  0.00  0.00    -0.006 C 
ATOM     36  C   UNL A   1     -23.906  -3.173  29.146  0.00  0.00    -0.003 C 
ATOM     37  C   UNL A   1     -23.989  -4.549  28.853  0.00  0.00    -0.000 C 
ATOM     38  C   UNL A   1     -25.137  -5.280  29.205  0.00  0.00    -0.000 C 
ATOM     39  C   UNL A   1     -26.232  -4.611  29.784  0.00  0.00    -0.000 C 
ATOM     40  C   UNL A   1     -26.155  -3.232  30.065  0.00  0.00    -0.003 C 
ENDBRANCH  34  35
BRANCH  34  41
ATOM     41  C   UNL A   1     -25.387  -0.679  31.571  0.00  0.00    +0.092 C 
ATOM     42  C   UNL A   1     -25.189   0.773  32.028  0.00  0.00    +0.021 C 
ATOM     43  C   UNL A   1     -25.336   0.684  33.544  0.00  0.00    +0.020 C 
ATOM     44  C   UNL A   1     -24.829  -0.715  33.905  0.00  0.00    +0.089 C 
ATOM     45  N   UNL A   1     -24.758  -1.481  32.646  0.00  0.00    -0.218 NA
ENDBRANCH  34  41
ENDBRANCH   8  34
TORSDOF 9
