MODEL 2111
MODEL 1
REMARK VINA RESULT:    -4.987      0.000      0.000
REMARK INTER + INTRA:          -5.606
REMARK INTER:                  -5.570
REMARK INTRA:                  -0.036
REMARK UNBOUND:                -0.036
REMARK  Name = No_2111-gen_results/8p0m/2024-11-27-11-27-31/
REMARK  2 active torsions:
REMARK  status: ('A' for Active; 'I' for Inactive)
REMARK    1  A    between atoms: C_1  and  C_2
REMARK    2  A    between atoms: C_1  and  N_8
REMARK                            x       y       z     vdW  Elec       q    Type
REMARK                         _______ _______ _______ _____ _____    ______ ____
ROOT
ATOM      1  C   UNL A   1     -24.675  -2.508  29.169  0.00  0.00    +0.002 A 
ATOM      2  C   UNL A   1     -25.865  -3.046  29.646  0.00  0.00    -0.002 A 
ATOM      3  C   UNL A   1     -26.207  -4.496  29.723  0.00  0.00    -0.000 A 
ATOM      4  C   UNL A   1     -25.282  -5.388  29.105  0.00  0.00    -0.000 A 
ATOM      5  C   UNL A   1     -24.110  -4.815  28.574  0.00  0.00    -0.000 A 
ATOM      6  C   UNL A   1     -23.834  -3.503  28.582  0.00  0.00    -0.002 A 
ENDROOT
BRANCH   1   7
ATOM      7  C   UNL A   1     -24.492  -1.312  29.157  0.00  0.00    +0.153 C 
BRANCH   7   8
ATOM      8  N   UNL A   1     -23.179  -0.892  28.838  0.00  0.00    -0.246 NA
ATOM      9  C   UNL A   1     -22.373  -0.410  29.340  0.00  0.00    +0.200 C 
ATOM     10  N   UNL A   1     -21.109  -0.152  28.739  0.00  0.00    -0.104 NA
ENDBRANCH   7   8
ENDBRANCH   1   7
TORSDOF 2
ENDMDL
ENDMDL
