REMARK  Name = outputs/IAG933/test6/raw/output_2111_IAG933_linker_design_.xyz
REMARK  17 active torsions:
REMARK  status: ('A' for Active; 'I' for Inactive)
REMARK    1  A    between atoms: C_1  and  C_2
REMARK    2  A    between atoms: C_1  and  C_8
REMARK    3  A    between atoms: C_1  and  C_41
REMARK    4  A    between atoms: C_13  and  C_31
REMARK    5  A    between atoms: C_14  and  C_15
REMARK    6  A    between atoms: C_21  and  O_22
REMARK    7  A    between atoms: O_22  and  C_23
REMARK    8  A    between atoms: C_23  and  C_24
REMARK    9  A    between atoms: C_30  and  C_35
REMARK   10  A    between atoms: C_31  and  C_36
REMARK   11  A    between atoms: N_34  and  CA_37
REMARK   12  A    between atoms: N_34  and  C_41
REMARK   13  A    between atoms: C_35  and  C_36
REMARK   14  A    between atoms: C_36  and  C_41
REMARK   15  A    between atoms: CA_37  and  C_38
REMARK   16  A    between atoms: CA_37  and  C_42
REMARK   17  A    between atoms: C_40  and  C_42
REMARK                            x       y       z     vdW  Elec       q    Type
REMARK                         _______ _______ _______ _____ _____    ______ ____
ROOT
ATOM      1  C   UNL A   1     -25.218   0.096  29.120  0.00  0.00    +0.079 C 
ENDROOT
BRANCH   1   2
ATOM      2  C   UNL A   1     -24.855  -1.012  30.143  0.00  0.00    +0.054 C 
BRANCH   2   3
ATOM      3  C   UNL A   1     -24.973  -2.505  29.788  0.00  0.00    -0.020 C 
ATOM      4  C   UNL A   1     -23.906  -3.173  29.146  0.00  0.00    -0.004 C 
ATOM      5  C   UNL A   1     -23.989  -4.549  28.853  0.00  0.00    -0.000 C 
ATOM      6  C   UNL A   1     -25.137  -5.280  29.205  0.00  0.00    -0.000 C 
ATOM      7  C   UNL A   1     -26.232  -4.611  29.784  0.00  0.00    -0.000 C 
ATOM      8  C   UNL A   1     -26.155  -3.232  30.065  0.00  0.00    -0.004 C 
ENDBRANCH   2   3
BRANCH   2   9
ATOM      9  C   UNL A   1     -25.387  -0.679  31.571  0.00  0.00    +0.078 C 
ATOM     10  C   UNL A   1     -25.189   0.773  32.028  0.00  0.00    +0.019 C 
ATOM     11  C   UNL A   1     -25.336   0.684  33.544  0.00  0.00    +0.020 C 
ATOM     12  C   UNL A   1     -24.829  -0.715  33.905  0.00  0.00    +0.089 C 
ATOM     13  N   UNL A   1     -24.758  -1.481  32.646  0.00  0.00    -0.219 NA
ENDBRANCH   2   9
ENDBRANCH   1   2
BRANCH   1  14
ATOM     14  N   UNL A   1     -26.103   1.239  29.442  0.00  0.00    -0.218 NA
BRANCH  14  15
ATOM     15  CA  UNL A   1     -27.567   1.123  29.286  0.00  0.00    +0.108 C 
BRANCH  15  17
ATOM     16  O   UNL A   1     -28.747  -0.397  28.341  0.00  0.00    -0.219 OA
ATOM     17  C   UNL A   1     -28.028  -0.377  29.368  0.00  0.00    +0.199 C 
ENDBRANCH  15  17
BRANCH  15  18
ATOM     18  C   UNL A   1     -28.766   2.228  29.226  0.00  0.00    +0.053 C 
BRANCH  18  22
ATOM     19  C   UNL A   1     -29.756   1.468  31.310  0.00  0.00    +0.035 C 
ATOM     20  F   UNL A   1     -28.471   3.395  31.013  0.00  0.00    -0.240 F 
ATOM     21  C   UNL A   1     -30.516   3.448  30.079  0.00  0.00    +0.035 C 
ATOM     22  C   UNL A   1     -29.338   2.609  30.397  0.00  0.00    +0.135 C 
ENDBRANCH  18  22
ENDBRANCH  15  18
ENDBRANCH  14  15
ENDBRANCH   1  14
BRANCH   1  23
ATOM     23  C   UNL A   1     -24.148   0.568  28.134  0.00  0.00    +0.030 C 
BRANCH  23  24
ATOM     24  C   UNL A   1     -24.241   1.378  26.804  0.00  0.00    +0.010 C 
BRANCH  24  25
ATOM     25  C   UNL A   1     -25.688   1.614  26.461  0.00  0.00    +0.070 C 
ATOM     26  C   UNL A   1     -26.250   2.920  26.395  0.00  0.00    +0.055 C 
ATOM     27  C   UNL A   1     -27.438   3.091  25.645  0.00  0.00    +0.102 C 
ATOM     28  N   UNL A   1     -28.075   2.089  25.003  0.00  0.00    -0.212 NA
ATOM     29  C   UNL A   1     -27.543   0.849  25.079  0.00  0.00    +0.234 C 
ATOM     30  C   UNL A   1     -26.354   0.576  25.777  0.00  0.00    +0.240 C 
ATOM     31  F   UNL A   1     -25.860  -0.681  25.795  0.00  0.00    -0.227 F 
BRANCH  26  32
ATOM     32  C   UNL A   1     -25.642   4.093  27.123  0.00  0.00    +0.262 C 
ATOM     33  N   UNL A   1     -25.614   5.252  26.449  0.00  0.00    -0.200 NA
ATOM     34  C   UNL A   1     -25.026   6.479  26.963  0.00  0.00    +0.139 C 
ATOM     35  O   UNL A   1     -25.143   3.966  28.243  0.00  0.00    -0.269 OA
ENDBRANCH  26  32
BRANCH  29  36
ATOM     36  O   UNL A   1     -28.193  -0.208  24.477  0.00  0.00    -0.459 OA
BRANCH  36  37
ATOM     37  C   UNL A   1     -29.460   0.005  23.866  0.00  0.00    +0.242 C 
BRANCH  37  38
ATOM     38  C   UNL A   1     -30.065  -1.377  23.573  0.00  0.00    +0.229 C 
ATOM     39  O   UNL A   1     -30.729  -1.878  24.721  0.00  0.00    -0.216 OA
ENDBRANCH  37  38
ENDBRANCH  36  37
ENDBRANCH  29  36
ENDBRANCH  24  25
ENDBRANCH  23  24
BRANCH  23  40
ATOM     40  C   UNL A   1     -22.657   0.226  28.504  0.00  0.00    +0.078 C 
BRANCH  40  42
ATOM     41  C   UNL A   1     -21.197   1.826  27.123  0.00  0.00    -0.014 C 
ATOM     42  C   UNL A   1     -21.870   1.081  27.828  0.00  0.00    -0.078 C 
ENDBRANCH  40  42
ENDBRANCH  23  40
ENDBRANCH   1  23
TORSDOF 17
