REMARK  Name = outputs/IAG933/test6/raw/output_2112_IAG933_linker_design_.xyz
REMARK  14 active torsions:
REMARK  status: ('A' for Active; 'I' for Inactive)
REMARK    1  A    between atoms: C_1  and  C_2
REMARK    2  A    between atoms: C_1  and  C_8
REMARK    3  A    between atoms: C_1  and  C_31
REMARK    4  A    between atoms: C_13  and  C_42
REMARK    5  A    between atoms: C_14  and  C_15
REMARK    6  A    between atoms: C_21  and  O_22
REMARK    7  A    between atoms: O_22  and  C_23
REMARK    8  A    between atoms: C_23  and  C_24
REMARK    9  A    between atoms: C_29  and  C_31
REMARK   10  A    between atoms: C_29  and  C_43
REMARK   11  A    between atoms: O_30  and  C_43
REMARK   12  A    between atoms: C_31  and  N_40
REMARK   13  A    between atoms: C_33  and  N_40
REMARK   14  A    between atoms: C_37  and  C_45
REMARK                            x       y       z     vdW  Elec       q    Type
REMARK                         _______ _______ _______ _____ _____    ______ ____
ROOT
ATOM      1  C   UNL A   1     -23.212   1.578  27.201  0.00  0.00    +0.062 C 
ATOM      2  C   UNL A   1     -23.468   0.823  28.376  0.00  0.00    +0.068 C 
ATOM      3  N   UNL A   1     -22.622   2.660  24.787  0.00  0.00    -0.083 NA
ATOM      4  C   UNL A   1     -22.203   0.225  28.954  0.00  0.00    +0.056 C 
ATOM      5  C   UNL A   1     -23.719   2.009  25.120  0.00  0.00    +0.101 C 
ATOM      6  O   UNL A   1     -21.596   2.666  25.732  0.00  0.00    -0.333 OA
ATOM      7  C   UNL A   1     -21.935   2.037  26.853  0.00  0.00    +0.387 C 
ATOM      8  O   UNL A   1     -20.893   1.802  27.715  0.00  0.00    -0.436 OA
ATOM      9  C   UNL A   1     -24.244   1.700  26.359  0.00  0.00    +0.078 C 
ATOM     10  C   UNL A   1     -21.031   0.751  28.573  0.00  0.00    +0.178 C 
ENDROOT
BRANCH   9  11
ATOM     11  C   UNL A   1     -25.688   1.614  26.461  0.00  0.00    +0.080 C 
ATOM     12  C   UNL A   1     -26.250   2.920  26.395  0.00  0.00    +0.056 C 
ATOM     13  C   UNL A   1     -27.438   3.091  25.645  0.00  0.00    +0.102 C 
ATOM     14  N   UNL A   1     -28.075   2.089  25.003  0.00  0.00    -0.212 NA
ATOM     15  C   UNL A   1     -27.543   0.849  25.079  0.00  0.00    +0.234 C 
ATOM     16  C   UNL A   1     -26.354   0.576  25.777  0.00  0.00    +0.241 C 
ATOM     17  F   UNL A   1     -25.860  -0.681  25.795  0.00  0.00    -0.227 F 
BRANCH  12  18
ATOM     18  C   UNL A   1     -25.642   4.093  27.123  0.00  0.00    +0.263 C 
ATOM     19  N   UNL A   1     -25.614   5.252  26.449  0.00  0.00    -0.200 NA
ATOM     20  C   UNL A   1     -25.026   6.479  26.963  0.00  0.00    +0.139 C 
ATOM     21  O   UNL A   1     -25.143   3.966  28.243  0.00  0.00    -0.269 OA
ENDBRANCH  12  18
BRANCH  15  22
ATOM     22  O   UNL A   1     -28.193  -0.208  24.477  0.00  0.00    -0.459 OA
BRANCH  22  23
ATOM     23  C   UNL A   1     -29.460   0.005  23.866  0.00  0.00    +0.242 C 
BRANCH  23  24
ATOM     24  C   UNL A   1     -30.065  -1.377  23.573  0.00  0.00    +0.229 C 
ATOM     25  O   UNL A   1     -30.729  -1.878  24.721  0.00  0.00    -0.216 OA
ENDBRANCH  23  24
ENDBRANCH  22  23
ENDBRANCH  15  22
ENDBRANCH   9  11
BRANCH   5  27
ATOM     26  C   UNL A   1     -24.960   1.085  23.063  0.00  0.00    +0.001 C 
ATOM     27  C   UNL A   1     -24.589   1.391  24.193  0.00  0.00    +0.018 C 
ENDBRANCH   5  27
BRANCH   2  28
ATOM     28  N   UNL A   1     -24.676   0.916  28.708  0.00  0.00    -0.239 NA
BRANCH  28  29
ATOM     29  C   UNL A   1     -25.625  -0.169  29.066  0.00  0.00    +0.100 C 
BRANCH  29  30
ATOM     30  C   UNL A   1     -24.855  -1.012  30.143  0.00  0.00    +0.058 C 
BRANCH  30  31
ATOM     31  C   UNL A   1     -24.973  -2.505  29.788  0.00  0.00    -0.019 C 
ATOM     32  C   UNL A   1     -23.906  -3.173  29.146  0.00  0.00    -0.004 C 
ATOM     33  C   UNL A   1     -23.989  -4.549  28.853  0.00  0.00    -0.000 C 
ATOM     34  C   UNL A   1     -25.137  -5.280  29.205  0.00  0.00    -0.000 C 
ATOM     35  C   UNL A   1     -26.232  -4.611  29.784  0.00  0.00    -0.000 C 
ATOM     36  C   UNL A   1     -26.155  -3.232  30.065  0.00  0.00    -0.004 C 
ENDBRANCH  30  31
BRANCH  30  37
ATOM     37  C   UNL A   1     -25.387  -0.679  31.571  0.00  0.00    +0.079 C 
ATOM     38  C   UNL A   1     -25.189   0.773  32.028  0.00  0.00    +0.019 C 
ATOM     39  C   UNL A   1     -25.336   0.684  33.544  0.00  0.00    +0.020 C 
ATOM     40  C   UNL A   1     -24.829  -0.715  33.905  0.00  0.00    +0.089 C 
ATOM     41  N   UNL A   1     -24.758  -1.481  32.646  0.00  0.00    -0.219 NA
ENDBRANCH  30  37
ENDBRANCH  29  30
BRANCH  29  42
ATOM     42  C   UNL A   1     -26.974   0.254  28.477  0.00  0.00    +0.054 C 
BRANCH  42  43
ATOM     43  C   UNL A   1     -27.507   1.539  29.041  0.00  0.00    +0.144 C 
BRANCH  43  44
ATOM     44  O   UNL A   1     -26.697   2.364  29.872  0.00  0.00    -0.351 OA
ATOM     45  C   UNL A   1     -27.454   3.311  30.602  0.00  0.00    +0.174 C 
ENDBRANCH  43  44
ENDBRANCH  42  43
ENDBRANCH  29  42
ENDBRANCH  28  29
ENDBRANCH   2  28
TORSDOF 14
