MODEL 2115
MODEL 1
REMARK VINA RESULT:    -5.486      0.000      0.000
REMARK INTER + INTRA:          -7.509
REMARK INTER:                  -6.769
REMARK INTRA:                  -0.740
REMARK UNBOUND:                -0.740
REMARK  Name = No_2115-gen_results/8p0m/2024-11-27-11-27-31/
REMARK  4 active torsions:
REMARK  status: ('A' for Active; 'I' for Inactive)
REMARK    1  A    between atoms: C_3  and  C_7
REMARK    2  A    between atoms: C_7  and  N_8
REMARK    3  A    between atoms: N_8  and  C_9
REMARK    4  A    between atoms: C_10  and  C_11
REMARK                            x       y       z     vdW  Elec       q    Type
REMARK                         _______ _______ _______ _____ _____    ______ ____
ROOT
ATOM      1  C   UNL A   1     -25.769  -1.210  29.299  0.00  0.00    +0.139 C 
ENDROOT
BRANCH   1   4
ATOM      2  C   UNL A   1     -26.391  -3.627  29.781  0.00  0.00    -0.003 A 
ATOM      3  C   UNL A   1     -26.142  -4.640  29.629  0.00  0.00    -0.000 A 
ATOM      4  C   UNL A   1     -25.415  -2.692  29.208  0.00  0.00    -0.001 A 
ATOM      5  C   UNL A   1     -24.245  -3.095  28.710  0.00  0.00    -0.003 A 
ATOM      6  C   UNL A   1     -24.955  -5.303  29.149  0.00  0.00    -0.000 A 
ATOM      7  C   UNL A   1     -24.050  -4.417  28.643  0.00  0.00    -0.000 A 
ENDBRANCH   1   4
BRANCH   1   8
ATOM      8  N   UNL A   1     -24.853  -0.294  28.962  0.00  0.00    -0.232 NA
BRANCH   8   9
ATOM      9  C   UNL A   1     -24.411   0.684  29.799  0.00  0.00    +0.080 C 
ATOM     10  C   UNL A   1     -23.504   0.640  30.736  0.00  0.00    +0.017 C 
BRANCH  10  11
ATOM     11  C   UNL A   1     -22.807  -0.539  31.098  0.00  0.00    -0.003 C 
ATOM     12  C   UNL A   1     -23.285  -1.332  32.134  0.00  0.00    -0.026 C 
ATOM     13  C   UNL A   1     -24.231  -0.851  32.976  0.00  0.00    +0.031 C 
ENDBRANCH  10  11
ENDBRANCH   8   9
ENDBRANCH   1   8
TORSDOF 4
ENDMDL
ENDMDL
