REMARK  Name = outputs/IAG933/test6/raw/output_2117_IAG933_linker_design_.xyz
REMARK  13 active torsions:
REMARK  status: ('A' for Active; 'I' for Inactive)
REMARK    1  A    between atoms: C_1  and  C_2
REMARK    2  A    between atoms: C_1  and  C_8
REMARK    3  A    between atoms: C_1  and  C_39
REMARK    4  A    between atoms: C_13  and  C_44
REMARK    5  A    between atoms: C_14  and  C_15
REMARK    6  A    between atoms: C_21  and  O_22
REMARK    7  A    between atoms: O_22  and  C_23
REMARK    8  A    between atoms: C_23  and  C_24
REMARK    9  A    between atoms: C_31  and  C_39
REMARK   10  A    between atoms: O_35  and  N_36
REMARK   11  A    between atoms: N_36  and  C_44
REMARK   12  A    between atoms: C_39  and  N_41
REMARK   13  A    between atoms: C_40  and  C_42
REMARK                            x       y       z     vdW  Elec       q    Type
REMARK                         _______ _______ _______ _____ _____    ______ ____
ROOT
ATOM      1  C   UNL A   1     -25.015   0.088  29.062  0.00  0.00    +0.178 C 
ENDROOT
BRANCH   1   2
ATOM      2  C   UNL A   1     -23.668   0.799  28.749  0.00  0.00    +0.268 C 
ATOM      3  O   UNL A   1     -22.659   0.544  29.425  0.00  0.00    -0.271 OA
ATOM      4  N   UNL A   1     -23.658   1.495  27.672  0.00  0.00    -0.162 N 
BRANCH   4   5
ATOM      5  O   UNL A   1     -22.675   2.279  27.238  0.00  0.00    -0.260 OA
ATOM      6  C   UNL A   1     -21.521   1.630  26.647  0.00  0.00    +0.206 C 
ENDBRANCH   4   5
BRANCH   4   7
ATOM      7  C   UNL A   1     -24.582   1.267  26.865  0.00  0.00    +0.153 C 
BRANCH   7   8
ATOM      8  C   UNL A   1     -25.688   1.614  26.461  0.00  0.00    +0.038 C 
ATOM      9  C   UNL A   1     -26.250   2.920  26.395  0.00  0.00    +0.074 C 
ATOM     10  C   UNL A   1     -27.438   3.091  25.645  0.00  0.00    +0.106 C 
ATOM     11  N   UNL A   1     -28.075   2.089  25.003  0.00  0.00    -0.208 NA
ATOM     12  C   UNL A   1     -27.543   0.849  25.079  0.00  0.00    +0.253 C 
ATOM     13  C   UNL A   1     -26.354   0.576  25.777  0.00  0.00    +0.191 C 
ATOM     14  F   UNL A   1     -25.860  -0.681  25.795  0.00  0.00    -0.200 F 
BRANCH   9  15
ATOM     15  C   UNL A   1     -25.642   4.093  27.123  0.00  0.00    +0.266 C 
ATOM     16  N   UNL A   1     -25.614   5.252  26.449  0.00  0.00    -0.200 NA
ATOM     17  C   UNL A   1     -25.026   6.479  26.963  0.00  0.00    +0.139 C 
ATOM     18  O   UNL A   1     -25.143   3.966  28.243  0.00  0.00    -0.268 OA
ENDBRANCH   9  15
BRANCH  12  19
ATOM     19  O   UNL A   1     -28.193  -0.208  24.477  0.00  0.00    -0.456 OA
BRANCH  19  20
ATOM     20  C   UNL A   1     -29.460   0.005  23.866  0.00  0.00    +0.243 C 
BRANCH  20  21
ATOM     21  C   UNL A   1     -30.065  -1.377  23.573  0.00  0.00    +0.229 C 
ATOM     22  O   UNL A   1     -30.729  -1.878  24.721  0.00  0.00    -0.216 OA
ENDBRANCH  20  21
ENDBRANCH  19  20
ENDBRANCH  12  19
ENDBRANCH   7   8
ENDBRANCH   4   7
ENDBRANCH   1   2
BRANCH   1  25
ATOM     23  O   UNL A   1     -27.985  -0.448  29.253  0.00  0.00    -0.273 OA
ATOM     24  C   UNL A   1     -27.441   0.627  29.408  0.00  0.00    +0.244 C 
ATOM     25  N   UNL A   1     -26.200   0.966  29.170  0.00  0.00    -0.197 NA
BRANCH  24  31
ATOM     26  C   UNL A   1     -28.864   2.458  28.592  0.00  0.00    +0.012 C 
ATOM     27  C   UNL A   1     -27.603   2.665  30.891  0.00  0.00    +0.151 C 
ATOM     28  C   UNL A   1     -29.341   3.903  28.958  0.00  0.00    +0.003 C 
ATOM     29  C   UNL A   1     -28.443   5.134  29.299  0.00  0.00    +0.032 C 
ATOM     30  O   UNL A   1     -27.887   3.984  31.400  0.00  0.00    -0.353 OA
ATOM     31  C   UNL A   1     -28.376   1.770  29.868  0.00  0.00    +0.108 C 
ATOM     32  C   UNL A   1     -27.456   4.993  30.487  0.00  0.00    +0.142 C 
ENDBRANCH  24  31
ENDBRANCH   1  25
BRANCH   1  33
ATOM     33  C   UNL A   1     -24.855  -1.012  30.143  0.00  0.00    +0.067 C 
BRANCH  33  34
ATOM     34  C   UNL A   1     -24.973  -2.505  29.788  0.00  0.00    -0.019 C 
ATOM     35  C   UNL A   1     -23.906  -3.173  29.146  0.00  0.00    -0.004 C 
ATOM     36  C   UNL A   1     -23.989  -4.549  28.853  0.00  0.00    -0.000 C 
ATOM     37  C   UNL A   1     -25.137  -5.280  29.205  0.00  0.00    -0.000 C 
ATOM     38  C   UNL A   1     -26.232  -4.611  29.784  0.00  0.00    -0.000 C 
ATOM     39  C   UNL A   1     -26.155  -3.232  30.065  0.00  0.00    -0.004 C 
ENDBRANCH  33  34
BRANCH  33  40
ATOM     40  C   UNL A   1     -25.387  -0.679  31.571  0.00  0.00    +0.079 C 
ATOM     41  C   UNL A   1     -25.189   0.773  32.028  0.00  0.00    +0.019 C 
ATOM     42  C   UNL A   1     -25.336   0.684  33.544  0.00  0.00    +0.020 C 
ATOM     43  C   UNL A   1     -24.829  -0.715  33.905  0.00  0.00    +0.089 C 
ATOM     44  N   UNL A   1     -24.758  -1.481  32.646  0.00  0.00    -0.219 NA
ENDBRANCH  33  40
ENDBRANCH   1  33
TORSDOF 13
