MODEL 2117
MODEL 1
REMARK VINA RESULT:    -7.257      0.000      0.000
REMARK INTER + INTRA:          -9.450
REMARK INTER:                  -8.530
REMARK INTRA:                  -0.920
REMARK UNBOUND:                -0.920
REMARK  Name = No_2117-gen_results/8p0m/2024-11-27-11-27-31/
REMARK  3 active torsions:
REMARK  status: ('A' for Active; 'I' for Inactive)
REMARK    1  A    between atoms: C_3  and  C_4
REMARK    2  A    between atoms: C_4  and  C_5
REMARK    3  A    between atoms: C_5  and  C_6
REMARK                            x       y       z     vdW  Elec       q    Type
REMARK                         _______ _______ _______ _____ _____    ______ ____
ROOT
ATOM      1  C   UNL A   1     -10.611  -0.804  36.939  0.00  0.00    +0.001 A 
ATOM      2  C   UNL A   1     -10.728  -1.193  37.911  0.00  0.00    +0.018 A 
ATOM      3  C   UNL A   1      -9.496   0.143  36.818  0.00  0.00    +0.029 A 
ATOM      4  C   UNL A   1     -11.812  -2.318  38.184  0.00  0.00    +0.002 A 
ATOM      5  C   UNL A   1     -12.322  -2.638  39.400  0.00  0.00    +0.000 A 
ATOM      6  C   UNL A   1      -8.963   0.511  38.036  0.00  0.00    +0.097 A 
ATOM      7  N   UNL A   1      -9.272   0.025  39.192  0.00  0.00    -0.244 NA
ATOM      8  C   UNL A   1     -10.187  -0.931  39.225  0.00  0.00    +0.081 A 
ATOM      9  C   UNL A   1     -11.691  -2.243  40.536  0.00  0.00    +0.002 A 
ATOM     10  C   UNL A   1     -10.670  -1.418  40.489  0.00  0.00    +0.019 A 
ENDROOT
BRANCH   3  11
ATOM     11  C   UNL A   1      -9.058   0.634  35.497  0.00  0.00    +0.189 C 
ATOM     12  F   UNL A   1     -10.330   0.750  34.884  0.00  0.00    -0.232 F 
BRANCH  11  13
ATOM     13  C   UNL A   1      -8.077   0.727  35.073  0.00  0.00    +0.059 C 
ATOM     14  C   UNL A   1      -7.899   2.346  34.770  0.00  0.00    +0.008 C 
BRANCH  13  15
ATOM     15  C   UNL A   1      -7.205   0.226  34.668  0.00  0.00    -0.019 A 
ATOM     16  C   UNL A   1      -5.739   0.410  34.773  0.00  0.00    -0.004 A 
ATOM     17  C   UNL A   1      -4.774  -0.317  35.381  0.00  0.00    -0.000 A 
ATOM     18  C   UNL A   1      -4.863  -1.725  34.916  0.00  0.00    -0.000 A 
ATOM     19  C   UNL A   1      -6.118  -2.220  34.472  0.00  0.00    -0.000 A 
ATOM     20  C   UNL A   1      -7.223  -1.273  34.405  0.00  0.00    -0.004 A 
ENDBRANCH  13  15
ENDBRANCH  11  13
ENDBRANCH   3  11
TORSDOF 3
ENDMDL
ENDMDL
