MODEL 2118
MODEL 1
REMARK VINA RESULT:    -3.590      0.000      0.000
REMARK INTER + INTRA:          -4.566
REMARK INTER:                  -4.219
REMARK INTRA:                  -0.346
REMARK UNBOUND:                -0.346
REMARK  Name = No_2118-gen_results/8p0m/2024-11-27-11-27-31/
REMARK  3 active torsions:
REMARK  status: ('A' for Active; 'I' for Inactive)
REMARK    1  A    between atoms: C_1  and  C_6
REMARK    2  A    between atoms: C_2  and  C_3
REMARK    3  A    between atoms: C_3  and  C_4
REMARK                            x       y       z     vdW  Elec       q    Type
REMARK                         _______ _______ _______ _____ _____    ______ ____
ROOT
ATOM      1  C   UNL A   1     -29.836 -15.497  12.106  0.00  0.00    -0.031 C 
ATOM      2  C   UNL A   1     -29.827 -14.579  12.893  0.00  0.00    -0.031 C 
ENDROOT
BRANCH   1   3
ATOM      3  C   UNL A   1     -30.745 -15.418  10.946  0.00  0.00    +0.026 C 
ATOM      4  C   UNL A   1     -30.232 -15.706   9.668  0.00  0.00    +0.005 C 
ENDBRANCH   1   3
BRANCH   2   5
ATOM      5  C   UNL A   1     -30.499 -13.465  12.830  0.00  0.00    +0.026 C 
BRANCH   5   6
ATOM      6  C   UNL A   1     -29.944 -12.120  12.542  0.00  0.00    +0.005 C 
ATOM      7  C   UNL A   1     -29.346 -11.725  11.339  0.00  0.00    +0.000 C 
ENDBRANCH   5   6
ENDBRANCH   2   5
TORSDOF 3
ENDMDL
ENDMDL
