MODEL 2119
MODEL 1
REMARK VINA RESULT:    -6.515      0.000      0.000
REMARK INTER + INTRA:          -9.279
REMARK INTER:                  -8.420
REMARK INTRA:                  -0.859
REMARK UNBOUND:                -0.859
REMARK  Name = No_2119-gen_results/8p0m/2024-11-27-11-27-31/
REMARK  5 active torsions:
REMARK  status: ('A' for Active; 'I' for Inactive)
REMARK    1  A    between atoms: C_3  and  C_7
REMARK    2  A    between atoms: C_5  and  C_19
REMARK    3  A    between atoms: C_7  and  N_8
REMARK    4  A    between atoms: N_8  and  C_9
REMARK    5  A    between atoms: C_13  and  C_16
REMARK                            x       y       z     vdW  Elec       q    Type
REMARK                         _______ _______ _______ _____ _____    ______ ____
ROOT
ATOM      1  N   UNL A   1     -23.566  -0.691  29.284  0.00  0.00    -0.302 N 
ATOM      2  C   UNL A   1     -24.336   0.223  28.471  0.00  0.00    +0.113 C 
ENDROOT
BRANCH   1   3
ATOM      3  C   UNL A   1     -22.931  -0.249  30.407  0.00  0.00    +0.048 A 
ATOM      4  C   UNL A   1     -22.667  -0.811  31.555  0.00  0.00    +0.015 A 
ATOM      5  C   UNL A   1     -23.674   1.069  30.934  0.00  0.00    +0.015 A 
ATOM      6  C   UNL A   1     -24.691   1.081  31.611  0.00  0.00    +0.008 A 
ATOM      7  C   UNL A   1     -24.999   0.196  32.151  0.00  0.00    +0.080 A 
ATOM      8  C   UNL A   1     -23.922  -0.984  32.358  0.00  0.00    +0.008 A 
BRANCH   7   9
ATOM      9  C   UNL A   1     -26.072  -0.027  33.244  0.00  0.00    +0.388 C 
ATOM     10  O   UNL A   1     -25.702  -0.090  34.445  0.00  0.00    -0.241 OA
ATOM     11  O   UNL A   1     -27.095  -0.763  32.908  0.00  0.00    -0.241 OA
ENDBRANCH   7   9
ENDBRANCH   1   3
BRANCH   1  12
ATOM     12  C   UNL A   1     -23.401  -1.910  28.853  0.00  0.00    +0.118 C 
BRANCH  12  15
ATOM     13  C   UNL A   1     -24.201  -4.320  28.847  0.00  0.00    -0.003 A 
ATOM     14  C   UNL A   1     -24.928  -5.026  29.136  0.00  0.00    -0.000 A 
ATOM     15  C   UNL A   1     -24.490  -2.949  29.159  0.00  0.00    -0.002 A 
ATOM     16  C   UNL A   1     -25.672  -2.543  29.633  0.00  0.00    +0.004 A 
ATOM     17  C   UNL A   1     -26.585  -3.522  29.908  0.00  0.00    +0.080 A 
ATOM     18  C   UNL A   1     -26.242  -4.847  29.641  0.00  0.00    +0.007 A 
BRANCH  17  19
ATOM     19  C   UNL A   1     -27.925  -3.187  30.473  0.00  0.00    +0.388 C 
ATOM     20  O   UNL A   1     -28.399  -3.621  31.363  0.00  0.00    -0.241 OA
ATOM     21  O   UNL A   1     -28.317  -2.004  30.004  0.00  0.00    -0.241 OA
ENDBRANCH  17  19
ENDBRANCH  12  15
ENDBRANCH   1  12
TORSDOF 5
ENDMDL
ENDMDL
