MODEL 211
MODEL 1
REMARK VINA RESULT:    -8.333      0.000      0.000
REMARK INTER + INTRA:          -8.710
REMARK INTER:                  -8.820
REMARK INTRA:                   0.110
REMARK UNBOUND:                 0.110
REMARK  Name = No_211-gen_results/8p0m/2024-11-27-11-27-31/
REMARK  1 active torsions:
REMARK  status: ('A' for Active; 'I' for Inactive)
REMARK    1  A    between atoms: C_7  and  C_12
REMARK                            x       y       z     vdW  Elec       q    Type
REMARK                         _______ _______ _______ _____ _____    ______ ____
ROOT
ATOM      1  C   UNL A   1     -23.550   0.120  28.289  0.00  0.00    -0.026 A 
ATOM      2  C   UNL A   1     -22.534  -0.080  28.481  0.00  0.00    -0.004 A 
ATOM      3  C   UNL A   1     -23.834   0.874  27.101  0.00  0.00    -0.016 A 
ATOM      4  C   UNL A   1     -25.221   1.036  26.618  0.00  0.00    +0.027 C 
ATOM      5  C   UNL A   1     -26.163   0.027  26.891  0.00  0.00    +0.005 C 
ATOM      6  C   UNL A   1     -25.811  -1.014  27.775  0.00  0.00    +0.005 C 
ATOM      7  C   UNL A   1     -24.588  -1.059  28.333  0.00  0.00    +0.022 C 
ATOM      8  C   UNL A   1     -21.477   0.634  28.252  0.00  0.00    +0.001 A 
ATOM      9  C   UNL A   1     -21.706   1.654  27.308  0.00  0.00    +0.011 A 
ATOM     10  C   UNL A   1     -22.965   1.837  26.685  0.00  0.00    +0.053 A 
ATOM     11 CL   UNL A   1     -23.283   3.019  25.590  0.00  0.00    -0.083 Cl
ENDROOT
BRANCH   7  12
ATOM     12  C   UNL A   1     -24.395  -2.175  29.349  0.00  0.00    +0.004 C 
ATOM     13  C   UNL A   1     -23.819  -3.287  28.929  0.00  0.00    +0.000 C 
ATOM     14  C   UNL A   1     -23.678  -1.587  30.543  0.00  0.00    +0.000 C 
ATOM     15  C   UNL A   1     -25.818  -2.638  29.816  0.00  0.00    +0.000 C 
ATOM     16  C   UNL A   1     -26.224  -3.979  29.615  0.00  0.00    +0.000 C 
ATOM     17  C   UNL A   1     -24.167  -4.634  28.776  0.00  0.00    +0.000 C 
ATOM     18  C   UNL A   1     -25.430  -4.905  29.261  0.00  0.00    +0.000 C 
ENDBRANCH   7  12
TORSDOF 1
ENDMDL
ENDMDL
