REMARK  Name = outputs/IAG933/test6/raw/output_212_IAG933_linker_design_.xyz
REMARK  13 active torsions:
REMARK  status: ('A' for Active; 'I' for Inactive)
REMARK    1  A    between atoms: C_1  and  C_2
REMARK    2  A    between atoms: C_1  and  C_8
REMARK    3  A    between atoms: C_1  and  N_31
REMARK    4  A    between atoms: C_13  and  C_32
REMARK    5  A    between atoms: C_14  and  C_15
REMARK    6  A    between atoms: C_21  and  O_22
REMARK    7  A    between atoms: O_22  and  C_23
REMARK    8  A    between atoms: C_23  and  C_24
REMARK    9  A    between atoms: C_28  and  N_38
REMARK   10  A    between atoms: C_28  and  C_39
REMARK   11  A    between atoms: C_29  and  C_40
REMARK   12  A    between atoms: N_31  and  C_40
REMARK   13  A    between atoms: C_32  and  C_40
REMARK                            x       y       z     vdW  Elec       q    Type
REMARK                         _______ _______ _______ _____ _____    ______ ____
ROOT
ATOM      1  N   UNL A   1     -25.524  -0.083  29.002  0.00  0.00    -0.251 N 
ATOM      2  O   UNL A   1     -27.919  -0.704  29.073  0.00  0.00    -0.251 OA
ATOM      3  C   UNL A   1     -27.061   0.189  28.980  0.00  0.00    +0.324 C 
ATOM      4  N   UNL A   1     -27.570   1.532  29.022  0.00  0.00    -0.188 NA
ENDROOT
BRANCH   1   5
ATOM      5  C   UNL A   1     -24.855  -1.012  30.143  0.00  0.00    +0.116 C 
BRANCH   5   6
ATOM      6  C   UNL A   1     -24.973  -2.505  29.788  0.00  0.00    -0.003 C 
ATOM      7  C   UNL A   1     -23.906  -3.173  29.146  0.00  0.00    -0.003 C 
ATOM      8  C   UNL A   1     -23.989  -4.549  28.853  0.00  0.00    -0.000 C 
ATOM      9  C   UNL A   1     -25.137  -5.280  29.205  0.00  0.00    -0.000 C 
ATOM     10  C   UNL A   1     -26.232  -4.611  29.784  0.00  0.00    -0.000 C 
ATOM     11  C   UNL A   1     -26.155  -3.232  30.065  0.00  0.00    -0.003 C 
ENDBRANCH   5   6
BRANCH   5  12
ATOM     12  C   UNL A   1     -25.387  -0.679  31.571  0.00  0.00    +0.095 C 
ATOM     13  C   UNL A   1     -25.189   0.773  32.028  0.00  0.00    +0.021 C 
ATOM     14  C   UNL A   1     -25.336   0.684  33.544  0.00  0.00    +0.020 C 
ATOM     15  C   UNL A   1     -24.829  -0.715  33.905  0.00  0.00    +0.089 C 
ATOM     16  N   UNL A   1     -24.758  -1.481  32.646  0.00  0.00    -0.217 NA
ENDBRANCH   5  12
ENDBRANCH   1   5
BRANCH   4  17
ATOM     17  C   UNL A   1     -28.938   1.742  29.626  0.00  0.00    +0.117 C 
BRANCH  17  20
ATOM     18  C   UNL A   1     -28.328   5.324  28.756  0.00  0.00    +0.000 C 
ATOM     19  C   UNL A   1     -28.245   6.130  30.029  0.00  0.00    +0.000 C 
ATOM     20  C   UNL A   1     -29.204   3.239  30.037  0.00  0.00    +0.022 C 
ATOM     21  C   UNL A   1     -29.338   4.165  28.806  0.00  0.00    +0.002 C 
ATOM     22  C   UNL A   1     -28.086   3.777  30.953  0.00  0.00    +0.002 C 
ATOM     23  C   UNL A   1     -28.326   5.284  31.301  0.00  0.00    +0.000 C 
ENDBRANCH  17  20
ENDBRANCH   4  17
BRANCH   1  24
ATOM     24  C   UNL A   1     -24.333   0.387  28.038  0.00  0.00    +0.181 C 
BRANCH  24  25
ATOM     25  C   UNL A   1     -23.093   0.926  28.776  0.00  0.00    +0.383 C 
ATOM     26  O   UNL A   1     -23.116   1.776  29.686  0.00  0.00    -0.244 OA
ATOM     27  O   UNL A   1     -22.117   0.362  28.311  0.00  0.00    -0.244 OA
ENDBRANCH  24  25
BRANCH  24  28
ATOM     28  C   UNL A   1     -24.290   1.302  26.817  0.00  0.00    +0.039 C 
BRANCH  28  29
ATOM     29  C   UNL A   1     -25.688   1.614  26.461  0.00  0.00    +0.072 C 
ATOM     30  C   UNL A   1     -26.250   2.920  26.395  0.00  0.00    +0.055 C 
ATOM     31  C   UNL A   1     -27.438   3.091  25.645  0.00  0.00    +0.102 C 
ATOM     32  N   UNL A   1     -28.075   2.089  25.003  0.00  0.00    -0.212 NA
ATOM     33  C   UNL A   1     -27.543   0.849  25.079  0.00  0.00    +0.234 C 
ATOM     34  C   UNL A   1     -26.354   0.576  25.777  0.00  0.00    +0.240 C 
ATOM     35  F   UNL A   1     -25.860  -0.681  25.795  0.00  0.00    -0.227 F 
BRANCH  30  36
ATOM     36  C   UNL A   1     -25.642   4.093  27.123  0.00  0.00    +0.262 C 
ATOM     37  N   UNL A   1     -25.614   5.252  26.449  0.00  0.00    -0.200 NA
ATOM     38  C   UNL A   1     -25.026   6.479  26.963  0.00  0.00    +0.139 C 
ATOM     39  O   UNL A   1     -25.143   3.966  28.243  0.00  0.00    -0.269 OA
ENDBRANCH  30  36
BRANCH  33  40
ATOM     40  O   UNL A   1     -28.193  -0.208  24.477  0.00  0.00    -0.459 OA
BRANCH  40  41
ATOM     41  C   UNL A   1     -29.460   0.005  23.866  0.00  0.00    +0.242 C 
BRANCH  41  42
ATOM     42  C   UNL A   1     -30.065  -1.377  23.573  0.00  0.00    +0.229 C 
ATOM     43  O   UNL A   1     -30.729  -1.878  24.721  0.00  0.00    -0.216 OA
ENDBRANCH  41  42
ENDBRANCH  40  41
ENDBRANCH  33  40
ENDBRANCH  28  29
ENDBRANCH  24  28
ENDBRANCH   1  24
TORSDOF 13
