MODEL 2120
MODEL 1
REMARK VINA RESULT:    -5.063      0.000      0.000
REMARK INTER + INTRA:          -5.704
REMARK INTER:                  -5.655
REMARK INTRA:                  -0.049
REMARK UNBOUND:                -0.049
REMARK  Name = No_2120-gen_results/8p0m/2024-11-27-11-27-31/
REMARK  2 active torsions:
REMARK  status: ('A' for Active; 'I' for Inactive)
REMARK    1  A    between atoms: C_2  and  C_3
REMARK    2  A    between atoms: C_3  and  C_4
REMARK                            x       y       z     vdW  Elec       q    Type
REMARK                         _______ _______ _______ _____ _____    ______ ____
ROOT
ATOM      1  C   UNL A   1     -24.405  -2.876  28.880  0.00  0.00    -0.007 A 
ATOM      2  C   UNL A   1     -25.582  -2.493  29.575  0.00  0.00    -0.003 A 
ATOM      3  C   UNL A   1     -26.503  -3.564  29.855  0.00  0.00    -0.000 A 
ATOM      4  C   UNL A   1     -26.078  -4.892  29.606  0.00  0.00    -0.000 A 
ATOM      5  C   UNL A   1     -24.880  -5.196  29.001  0.00  0.00    -0.000 A 
ATOM      6  C   UNL A   1     -24.046  -4.160  28.768  0.00  0.00    -0.003 A 
ENDROOT
BRANCH   1   7
ATOM      7  C   UNL A   1     -23.398  -1.921  29.080  0.00  0.00    +0.132 C 
BRANCH   7   9
ATOM      8  N   UNL A   1     -21.575  -0.875  28.979  0.00  0.00    -0.196 NA
ATOM      9  C   UNL A   1     -22.572  -1.228  29.087  0.00  0.00    +0.078 C 
ENDBRANCH   7   9
ENDBRANCH   1   7
TORSDOF 2
ENDMDL
ENDMDL
