MODEL 2121
MODEL 1
REMARK VINA RESULT:    -7.260      0.000      0.000
REMARK INTER + INTRA:          -7.260
REMARK INTER:                  -7.260
REMARK INTRA:                   0.000
REMARK UNBOUND:                 0.000
REMARK  Name = No_2121-gen_results/8p0m/2024-11-27-11-27-31/
REMARK  0 active torsions:
REMARK  status: ('A' for Active; 'I' for Inactive)
REMARK                            x       y       z     vdW  Elec       q    Type
REMARK                         _______ _______ _______ _____ _____    ______ ____
ROOT
ATOM      1  C   UNL A   1     -21.978  -0.087  28.693  0.00  0.00    +0.019 A 
ATOM      2  C   UNL A   1     -22.970  -0.762  28.842  0.00  0.00    +0.081 A 
ATOM      3  C   UNL A   1     -24.202  -0.408  28.397  0.00  0.00    +0.014 A 
ATOM      4  C   UNL A   1     -25.425  -1.224  28.570  0.00  0.00    -0.019 A 
ATOM      5  C   UNL A   1     -25.275  -2.484  29.237  0.00  0.00    +0.014 A 
ATOM      6  C   UNL A   1     -26.367  -3.347  29.420  0.00  0.00    +0.001 A 
ATOM      7  C   UNL A   1     -22.068   1.181  27.945  0.00  0.00    +0.002 A 
ATOM      8  C   UNL A   1     -23.241   1.614  27.499  0.00  0.00    +0.000 A 
ATOM      9  C   UNL A   1     -24.366   0.824  27.692  0.00  0.00    +0.001 A 
ATOM     10  C   UNL A   1     -26.596  -0.499  29.269  0.00  0.00    +0.031 C 
ATOM     11  C   UNL A   1     -26.114  -4.706  29.724  0.00  0.00    +0.000 A 
ATOM     12  C   UNL A   1     -24.963  -5.245  29.163  0.00  0.00    +0.002 A 
ATOM     13  C   UNL A   1     -23.927  -4.433  28.651  0.00  0.00    +0.019 A 
ATOM     14  C   UNL A   1     -24.101  -3.054  28.644  0.00  0.00    +0.081 A 
ATOM     15  N   UNL A   1     -22.868  -2.207  29.086  0.00  0.00    -0.245 NA
ENDROOT
TORSDOF 0
ENDMDL
ENDMDL
