MODEL 2122
MODEL 1
REMARK VINA RESULT:    -7.645      0.000      0.000
REMARK INTER + INTRA:         -13.860
REMARK INTER:                 -11.220
REMARK INTRA:                  -2.640
REMARK UNBOUND:                -2.640
REMARK  Name = No_2122-gen_results/8p0m/2024-11-27-11-27-31/
REMARK  8 active torsions:
REMARK  status: ('A' for Active; 'I' for Inactive)
REMARK    1  A    between atoms: C_2  and  C_11
REMARK    2  A    between atoms: C_3  and  C_7
REMARK    3  A    between atoms: C_6  and  C_14
REMARK    4  A    between atoms: C_14  and  C_15
REMARK    5  A    between atoms: C_14  and  C_23
REMARK    6  A    between atoms: C_16  and  C_17
REMARK    7  A    between atoms: N_24  and  C_26
REMARK    8  A    between atoms: C_30  and  C_32
REMARK                            x       y       z     vdW  Elec       q    Type
REMARK                         _______ _______ _______ _____ _____    ______ ____
ROOT
ATOM      1  C   UNL A   1     -24.099  -0.430  28.244  0.00  0.00    +0.123 C 
ENDROOT
BRANCH   1   7
ATOM      2  C   UNL A   1     -26.475  -3.641  29.766  0.00  0.00    +0.010 A 
ATOM      3  C   UNL A   1     -26.720  -2.619  29.846  0.00  0.00    +0.079 A 
ATOM      4  C   UNL A   1     -25.220  -3.888  29.056  0.00  0.00    +0.071 A 
ATOM      5  C   UNL A   1     -24.444  -2.867  28.567  0.00  0.00    +0.000 A 
ATOM      6  C   UNL A   1     -26.106  -1.355  29.440  0.00  0.00    +0.003 A 
ATOM      7  C   UNL A   1     -24.891  -1.583  28.752  0.00  0.00    -0.010 A 
BRANCH   4   8
ATOM      8  C   UNL A   1     -24.682  -5.273  28.886  0.00  0.00    +0.419 C 
ATOM      9  F   UNL A   1     -25.525  -5.889  28.216  0.00  0.00    -0.166 F 
ATOM     10  F   UNL A   1     -24.618  -5.866  30.091  0.00  0.00    -0.166 F 
ATOM     11  F   UNL A   1     -23.490  -5.273  28.278  0.00  0.00    -0.166 F 
ENDBRANCH   4   8
BRANCH   3  12
ATOM     12  C   UNL A   1     -28.053  -2.227  30.704  0.00  0.00    +0.388 C 
ATOM     13  O   UNL A   1     -29.030  -2.503  30.189  0.00  0.00    -0.241 OA
ATOM     14  O   UNL A   1     -27.953  -1.694  31.883  0.00  0.00    -0.241 OA
ENDBRANCH   3  12
ENDBRANCH   1   7
BRANCH   1  15
ATOM     15  C   UNL A   1     -25.006   0.351  27.331  0.00  0.00    +0.253 C 
ATOM     16  N   UNL A   1     -25.392  -0.244  26.396  0.00  0.00    -0.179 NA
ATOM     17  O   UNL A   1     -25.207   1.589  27.473  0.00  0.00    -0.272 OA
BRANCH  16  18
ATOM     18  C   UNL A   1     -26.398   0.249  25.456  0.00  0.00    +0.073 A 
ATOM     19  C   UNL A   1     -26.446   0.525  24.492  0.00  0.00    +0.017 A 
ATOM     20  C   UNL A   1     -27.605   0.932  23.642  0.00  0.00    +0.001 A 
ATOM     21  C   UNL A   1     -28.816   0.890  24.293  0.00  0.00    +0.001 A 
ATOM     22  C   UNL A   1     -28.839   0.476  25.598  0.00  0.00    +0.045 A 
ATOM     23  C   UNL A   1     -27.694   0.125  26.265  0.00  0.00    +0.018 A 
BRANCH  22  24
ATOM     24  C   UNL A   1     -30.119   0.413  26.347  0.00  0.00    +0.341 C 
ATOM     25  F   UNL A   1     -30.170   0.948  27.396  0.00  0.00    -0.193 F 
ATOM     26  F   UNL A   1     -30.910  -0.284  25.950  0.00  0.00    -0.193 F 
ENDBRANCH  22  24
ENDBRANCH  16  18
ENDBRANCH   1  15
BRANCH   1  27
ATOM     27  C   UNL A   1     -23.038  -0.144  28.664  0.00  0.00    -0.013 C 
ATOM     28  C   UNL A   1     -22.681   0.310  29.797  0.00  0.00    -0.004 C 
BRANCH  28  29
ATOM     29  C   UNL A   1     -23.470   0.112  30.932  0.00  0.00    -0.000 A 
ATOM     30  C   UNL A   1     -23.177  -0.934  31.904  0.00  0.00    -0.000 A 
ATOM     31  C   UNL A   1     -24.327   1.122  31.461  0.00  0.00    -0.000 A 
ATOM     32  C   UNL A   1     -23.841  -1.202  33.064  0.00  0.00    -0.000 A 
ATOM     33  C   UNL A   1     -25.040   0.859  32.719  0.00  0.00    -0.000 A 
ATOM     34  C   UNL A   1     -24.799  -0.279  33.431  0.00  0.00    -0.000 A 
ENDBRANCH  28  29
ENDBRANCH   1  27
TORSDOF 8
ENDMDL
ENDMDL
