REMARK  Name = No_2123-gen_results/8p0m/2024-11-27-11-27-31/
REMARK  3 active torsions:
REMARK  status: ('A' for Active; 'I' for Inactive)
REMARK    1  A    between atoms: C_2  and  C_7
REMARK    2  A    between atoms: C_11  and  C_15
REMARK    3  A    between atoms: C_15  and  C_16
REMARK                            x       y       z     vdW  Elec       q    Type
REMARK                         _______ _______ _______ _____ _____    ______ ____
ROOT
ATOM      1  C   UNL A   1     -26.897   1.102  27.705  0.00  0.00    +0.253 C 
ATOM      2  N   UNL A   1     -25.952   1.526  27.201  0.00  0.00    -0.254 N 
ATOM      3  C   UNL A   1     -25.775   2.619  26.569  0.00  0.00    +0.063 C 
ATOM      4  C   UNL A   1     -24.462   2.994  26.059  0.00  0.00    -0.008 C 
ATOM      5  C   UNL A   1     -23.499   2.021  26.335  0.00  0.00    +0.055 C 
ATOM      6  C   UNL A   1     -24.578   0.864  27.192  0.00  0.00    +0.103 C 
ATOM      7  O   UNL A   1     -28.076   1.328  27.155  0.00  0.00    -0.270 OA
ENDROOT
BRANCH   1   9
ATOM      8  C   UNL A   1     -28.016  -0.814  28.878  0.00  0.00    +0.016 A 
ATOM      9  C   UNL A   1     -27.064  -0.119  28.608  0.00  0.00    +0.055 A 
ATOM     10  C   UNL A   1     -25.792  -0.430  29.076  0.00  0.00    +0.005 A 
ATOM     11  C   UNL A   1     -25.576  -1.565  29.936  0.00  0.00    +0.001 A 
ATOM     12  C   UNL A   1     -26.735  -2.300  30.217  0.00  0.00    +0.011 A 
ATOM     13  C   UNL A   1     -27.918  -1.954  29.763  0.00  0.00    +0.058 A 
ATOM     14 CL   UNL A   1     -29.283  -2.832  30.271  0.00  0.00    -0.082 Cl
ENDBRANCH   1   9
BRANCH   5  15
ATOM     15  C   UNL A   1     -22.301   2.304  27.166  0.00  0.00    +0.120 C 
BRANCH  15  16
ATOM     16  C   UNL A   1     -22.530   2.291  28.571  0.00  0.00    +0.365 C 
ATOM     17  O   UNL A   1     -23.518   2.584  29.092  0.00  0.00    -0.246 OA
ATOM     18  O   UNL A   1     -21.514   1.740  29.293  0.00  0.00    -0.246 OA
ENDBRANCH  15  16
ENDBRANCH   5  15
TORSDOF 3
