MODEL 2124
MODEL 1
REMARK VINA RESULT:    -7.245      0.000      0.000
REMARK INTER + INTRA:         -11.991
REMARK INTER:                 -10.210
REMARK INTRA:                  -1.781
REMARK UNBOUND:                -1.781
REMARK  Name = No_2124-gen_results/8p0m/2024-11-27-11-27-31/
REMARK  7 active torsions:
REMARK  status: ('A' for Active; 'I' for Inactive)
REMARK    1  A    between atoms: C_4  and  C_8
REMARK    2  A    between atoms: C_7  and  C_20
REMARK    3  A    between atoms: C_8  and  C_9
REMARK    4  A    between atoms: C_10  and  C_16
REMARK    5  A    between atoms: N_18  and  C_19
REMARK    6  A    between atoms: C_23  and  C_24
REMARK    7  A    between atoms: C_25  and  C_26
REMARK                            x       y       z     vdW  Elec       q    Type
REMARK                         _______ _______ _______ _____ _____    ______ ____
ROOT
ATOM      1  C   UNL A   1     -23.289   0.238  29.340  0.00  0.00    -0.014 A 
ATOM      2  C   UNL A   1     -23.557   1.012  28.626  0.00  0.00    +0.052 A 
ATOM      3  C   UNL A   1     -22.845   1.767  27.548  0.00  0.00    +0.004 A 
ATOM      4  C   UNL A   1     -21.523   1.424  27.411  0.00  0.00    +0.000 A 
ATOM      5  C   UNL A   1     -21.019   0.468  28.222  0.00  0.00    -0.000 A 
ATOM      6  C   UNL A   1     -21.779  -0.158  29.182  0.00  0.00    -0.004 A 
ENDROOT
BRANCH   2   7
ATOM      7  C   UNL A   1     -25.090   1.628  28.654  0.00  0.00    +0.269 C 
ATOM      8  O   UNL A   1     -25.329   2.537  29.283  0.00  0.00    -0.268 OA
ATOM      9  N   UNL A   1     -26.057   0.932  27.944  0.00  0.00    -0.174 NA
BRANCH   9  10
ATOM     10  C   UNL A   1     -27.412   1.457  27.909  0.00  0.00    +0.089 C 
ATOM     11  C   UNL A   1     -27.888   1.614  26.758  0.00  0.00    +0.018 C 
BRANCH  11  12
ATOM     12  C   UNL A   1     -28.410   0.762  26.073  0.00  0.00    +0.001 C 
ATOM     13  C   UNL A   1     -27.769   0.091  24.901  0.00  0.00    +0.000 C 
BRANCH  13  14
ATOM     14  C   UNL A   1     -26.502   0.633  24.467  0.00  0.00    +0.000 C 
ATOM     15  C   UNL A   1     -25.344  -0.103  24.594  0.00  0.00    +0.000 C 
ENDBRANCH  13  14
ENDBRANCH  11  12
ENDBRANCH   9  10
ENDBRANCH   2   7
BRANCH   1  16
ATOM     16  C   UNL A   1     -23.732  -0.359  30.401  0.00  0.00    +0.046 C 
ATOM     17  C   UNL A   1     -23.432   0.014  31.758  0.00  0.00    +0.009 C 
BRANCH  16  21
ATOM     18 CL   UNL A   1     -26.517  -0.331  31.141  0.00  0.00    -0.083 Cl
ATOM     19  C   UNL A   1     -26.135  -1.373  30.630  0.00  0.00    +0.054 A 
ATOM     20  C   UNL A   1     -26.843  -2.385  30.369  0.00  0.00    +0.011 A 
ATOM     21  C   UNL A   1     -24.635  -1.434  30.223  0.00  0.00    -0.008 A 
ATOM     22  C   UNL A   1     -24.109  -2.668  29.587  0.00  0.00    +0.004 A 
ATOM     23  C   UNL A   1     -26.259  -3.645  29.717  0.00  0.00    +0.007 A 
ATOM     24  C   UNL A   1     -24.931  -3.692  29.357  0.00  0.00    +0.080 A 
BRANCH  24  25
ATOM     25  C   UNL A   1     -24.368  -4.935  28.777  0.00  0.00    +0.388 C 
ATOM     26  O   UNL A   1     -23.565  -4.964  27.983  0.00  0.00    -0.241 OA
ATOM     27  O   UNL A   1     -24.948  -6.065  29.264  0.00  0.00    -0.241 OA
ENDBRANCH  24  25
ENDBRANCH  16  21
ENDBRANCH   1  16
TORSDOF 7
ENDMDL
ENDMDL
