REMARK  Name = No_2124-gen_results/8p0m/2024-11-27-11-27-31/
REMARK  7 active torsions:
REMARK  status: ('A' for Active; 'I' for Inactive)
REMARK    1  A    between atoms: C_4  and  C_8
REMARK    2  A    between atoms: C_7  and  C_20
REMARK    3  A    between atoms: C_8  and  C_9
REMARK    4  A    between atoms: C_10  and  C_16
REMARK    5  A    between atoms: N_18  and  C_19
REMARK    6  A    between atoms: C_23  and  C_24
REMARK    7  A    between atoms: C_25  and  C_26
REMARK                            x       y       z     vdW  Elec       q    Type
REMARK                         _______ _______ _______ _____ _____    ______ ____
ROOT
ATOM      1  C   UNL A   1     -25.802   1.285  28.801  0.00  0.00    -0.014 A 
ATOM      2  C   UNL A   1     -25.568   2.186  28.241  0.00  0.00    +0.052 A 
ATOM      3  C   UNL A   1     -25.030   2.490  26.878  0.00  0.00    +0.004 A 
ATOM      4  C   UNL A   1     -24.744   1.374  26.132  0.00  0.00    +0.000 A 
ATOM      5  C   UNL A   1     -24.980   0.159  26.676  0.00  0.00    -0.000 A 
ATOM      6  C   UNL A   1     -25.480   0.008  27.948  0.00  0.00    -0.004 A 
ENDROOT
BRANCH   2   7
ATOM      7  C   UNL A   1     -25.772   3.654  28.970  0.00  0.00    +0.269 C 
ATOM      8  O   UNL A   1     -25.488   3.797  30.056  0.00  0.00    -0.268 OA
ATOM      9  N   UNL A   1     -26.373   4.650  28.215  0.00  0.00    -0.174 NA
BRANCH   9  10
ATOM     10  C   UNL A   1     -26.539   5.970  28.802  0.00  0.00    +0.089 C 
ATOM     11  C   UNL A   1     -27.116   6.807  28.066  0.00  0.00    +0.018 C 
BRANCH  11  12
ATOM     12  C   UNL A   1     -28.312   6.936  27.923  0.00  0.00    +0.001 C 
ATOM     13  C   UNL A   1     -28.965   7.857  26.943  0.00  0.00    +0.000 C 
BRANCH  13  14
ATOM     14  C   UNL A   1     -28.092   8.774  26.247  0.00  0.00    +0.000 C 
ATOM     15  C   UNL A   1     -26.724   8.690  26.396  0.00  0.00    +0.000 C 
ENDBRANCH  13  14
ENDBRANCH  11  12
ENDBRANCH   9  10
ENDBRANCH   2   7
BRANCH   1  16
ATOM     16  C   UNL A   1     -26.095   0.882  29.997  0.00  0.00    +0.046 C 
ATOM     17  C   UNL A   1     -25.146   0.473  30.998  0.00  0.00    +0.009 C 
BRANCH  16  21
ATOM     18 CL   UNL A   1     -28.149  -0.820  28.908  0.00  0.00    -0.083 Cl
ATOM     19  C   UNL A   1     -28.532  -0.047  29.773  0.00  0.00    +0.054 A 
ATOM     20  C   UNL A   1     -29.701   0.035  30.242  0.00  0.00    +0.011 A 
ATOM     21  C   UNL A   1     -27.457   0.897  30.382  0.00  0.00    -0.008 A 
ATOM     22  C   UNL A   1     -27.854   1.853  31.446  0.00  0.00    +0.004 A 
ATOM     23  C   UNL A   1     -30.073   1.043  31.337  0.00  0.00    +0.007 A 
ATOM     24  C   UNL A   1     -29.116   1.874  31.874  0.00  0.00    +0.080 A 
BRANCH  24  25
ATOM     25  C   UNL A   1     -29.501   2.880  32.894  0.00  0.00    +0.388 C 
ATOM     26  O   UNL A   1     -30.387   2.781  33.587  0.00  0.00    -0.241 OA
ATOM     27  O   UNL A   1     -28.700   3.979  32.892  0.00  0.00    -0.241 OA
ENDBRANCH  24  25
ENDBRANCH  16  21
ENDBRANCH   1  16
TORSDOF 7
