MODEL 2125
MODEL 1
REMARK VINA RESULT:    -8.181      0.000      0.000
REMARK INTER + INTRA:         -10.515
REMARK INTER:                  -9.615
REMARK INTRA:                  -0.899
REMARK UNBOUND:                -0.899
REMARK  Name = No_2125-gen_results/8p0m/2024-11-27-11-27-31/
REMARK  3 active torsions:
REMARK  status: ('A' for Active; 'I' for Inactive)
REMARK    1  A    between atoms: C_2  and  C_3
REMARK    2  A    between atoms: C_5  and  C_13
REMARK    3  A    between atoms: N_15  and  C_16
REMARK                            x       y       z     vdW  Elec       q    Type
REMARK                         _______ _______ _______ _____ _____    ______ ____
ROOT
ATOM      1  C   UNL A   1     -23.859  -0.613  28.169  0.00  0.00    +0.004 A 
ATOM      2  C   UNL A   1     -24.348  -1.197  29.107  0.00  0.00    +0.000 A 
ATOM      3  C   UNL A   1     -23.377   0.743  28.405  0.00  0.00    +0.054 A 
ATOM      4  C   UNL A   1     -23.910   1.503  29.422  0.00  0.00    +0.004 A 
ATOM      5  C   UNL A   1     -24.942  -0.546  30.265  0.00  0.00    +0.000 A 
ATOM      6  C   UNL A   1     -24.660   0.853  30.419  0.00  0.00    +0.000 A 
ENDROOT
BRANCH   2   7
ATOM      7  C   UNL A   1     -24.620  -2.551  29.107  0.00  0.00    +0.000 A 
ATOM      8  C   UNL A   1     -23.836  -3.366  28.628  0.00  0.00    +0.000 A 
ATOM      9  C   UNL A   1     -24.110  -4.838  28.610  0.00  0.00    +0.000 A 
ATOM     10  C   UNL A   1     -25.322  -5.289  29.135  0.00  0.00    +0.000 A 
ATOM     11  C   UNL A   1     -25.852  -3.118  29.679  0.00  0.00    +0.000 A 
ATOM     12  C   UNL A   1     -26.163  -4.437  29.683  0.00  0.00    +0.000 A 
ENDBRANCH   2   7
BRANCH   3  13
ATOM     13  C   UNL A   1     -22.634   1.486  27.322  0.00  0.00    +0.253 C 
ATOM     14  O   UNL A   1     -21.515   1.875  27.407  0.00  0.00    -0.270 OA
ATOM     15  N   UNL A   1     -23.375   1.794  26.237  0.00  0.00    -0.253 N 
ATOM     16  C   UNL A   1     -22.732   2.546  25.186  0.00  0.00    +0.120 C 
BRANCH  15  17
ATOM     17  C   UNL A   1     -24.697   1.374  25.960  0.00  0.00    +0.054 A 
ATOM     18  C   UNL A   1     -24.817   0.400  25.074  0.00  0.00    +0.015 A 
ATOM     19  C   UNL A   1     -26.163  -0.183  24.835  0.00  0.00    +0.001 A 
ATOM     20  C   UNL A   1     -27.253   0.427  25.491  0.00  0.00    +0.000 A 
ATOM     21  C   UNL A   1     -25.742   2.128  26.407  0.00  0.00    +0.015 A 
ATOM     22  C   UNL A   1     -27.066   1.573  26.252  0.00  0.00    +0.001 A 
ENDBRANCH  15  17
ENDBRANCH   3  13
TORSDOF 3
ENDMDL
ENDMDL
