MODEL 2126
MODEL 1
REMARK VINA RESULT:    -6.381      0.000      0.000
REMARK INTER + INTRA:          -8.093
REMARK INTER:                  -7.500
REMARK INTRA:                  -0.593
REMARK UNBOUND:                -0.593
REMARK  Name = No_2126-gen_results/8p0m/2024-11-27-11-27-31/
REMARK  3 active torsions:
REMARK  status: ('A' for Active; 'I' for Inactive)
REMARK    1  A    between atoms: C_3  and  C_4
REMARK    2  A    between atoms: C_4  and  C_9
REMARK    3  A    between atoms: C_10  and  C_11
REMARK                            x       y       z     vdW  Elec       q    Type
REMARK                         _______ _______ _______ _____ _____    ______ ____
ROOT
ATOM      1  C   UNL A   1     -23.233  -0.480  29.020  0.00  0.00    +0.044 C 
ATOM      2  C   UNL A   1     -22.273  -0.481  29.967  0.00  0.00    +0.009 C 
ENDROOT
BRANCH   1   5
ATOM      3  C   UNL A   1     -22.188   1.437  27.733  0.00  0.00    -0.004 A 
ATOM      4  C   UNL A   1     -22.179   1.972  26.825  0.00  0.00    -0.000 A 
ATOM      5  C   UNL A   1     -23.237   0.471  27.889  0.00  0.00    -0.018 A 
ATOM      6  C   UNL A   1     -23.220   2.113  25.817  0.00  0.00    -0.000 A 
ATOM      7  C   UNL A   1     -24.249   1.254  25.963  0.00  0.00    -0.000 A 
ATOM      8  C   UNL A   1     -24.281   0.351  27.021  0.00  0.00    -0.004 A 
ENDBRANCH   1   5
BRANCH   1   9
ATOM      9  C   UNL A   1     -24.360  -1.345  29.279  0.00  0.00    -0.022 C 
ATOM     10  C   UNL A   1     -24.167  -2.742  29.582  0.00  0.00    -0.005 C 
BRANCH  10  11
ATOM     11  C   UNL A   1     -23.923  -3.821  28.839  0.00  0.00    -0.005 C 
ATOM     12  C   UNL A   1     -24.713  -4.935  28.773  0.00  0.00    -0.026 C 
ATOM     13  C   UNL A   1     -25.888  -4.933  29.550  0.00  0.00    +0.031 C 
ENDBRANCH  10  11
ENDBRANCH   1   9
TORSDOF 3
ENDMDL
ENDMDL
