MODEL 2127
MODEL 1
REMARK VINA RESULT:    -6.986      0.000      0.000
REMARK INTER + INTRA:         -10.368
REMARK INTER:                  -9.028
REMARK INTRA:                  -1.339
REMARK UNBOUND:                -1.339
REMARK  Name = No_2127-gen_results/8p0m/2024-11-27-11-27-31/
REMARK  5 active torsions:
REMARK  status: ('A' for Active; 'I' for Inactive)
REMARK    1  A    between atoms: C_1  and  C_2
REMARK    2  A    between atoms: C_1  and  C_8
REMARK    3  A    between atoms: C_5  and  C_10
REMARK    4  A    between atoms: C_8  and  C_9
REMARK    5  A    between atoms: C_8  and  C_18
REMARK                            x       y       z     vdW  Elec       q    Type
REMARK                         _______ _______ _______ _____ _____    ______ ____
ROOT
ATOM      1  C   UNL A   1     -22.802  -0.354  30.462  0.00  0.00    +0.035 C 
ENDROOT
BRANCH   1   2
ATOM      2  C   UNL A   1     -23.462  -0.404  31.473  0.00  0.00    -0.021 A 
ATOM      3  C   UNL A   1     -24.529   0.434  31.733  0.00  0.00    -0.004 A 
ATOM      4  C   UNL A   1     -25.301   0.466  32.960  0.00  0.00    +0.004 A 
ATOM      5  C   UNL A   1     -24.967  -0.433  33.997  0.00  0.00    +0.057 A 
ATOM      6  C   UNL A   1     -23.847  -1.304  33.745  0.00  0.00    +0.004 A 
ATOM      7  C   UNL A   1     -23.106  -1.291  32.587  0.00  0.00    -0.004 A 
BRANCH   5   8
ATOM      8  C   UNL A   1     -25.674  -0.464  35.241  0.00  0.00    +0.284 C 
ATOM      9  N   UNL A   1     -25.746  -1.188  36.003  0.00  0.00    -0.084 NA
ATOM     10  O   UNL A   1     -26.513   0.601  35.368  0.00  0.00    -0.267 OA
ENDBRANCH   5   8
ENDBRANCH   1   2
BRANCH   1  11
ATOM     11  C   UNL A   1     -23.501  -0.783  29.211  0.00  0.00    +0.048 C 
BRANCH  11  12
ATOM     12  C   UNL A   1     -23.474   0.075  28.054  0.00  0.00    -0.018 A 
ATOM     13  C   UNL A   1     -24.288   0.257  27.284  0.00  0.00    -0.004 A 
ATOM     14  C   UNL A   1     -24.216   1.249  26.181  0.00  0.00    -0.000 A 
ATOM     15  C   UNL A   1     -23.056   2.031  26.129  0.00  0.00    -0.000 A 
ATOM     16  C   UNL A   1     -22.046   1.899  27.061  0.00  0.00    -0.000 A 
ATOM     17  C   UNL A   1     -22.190   0.932  28.106  0.00  0.00    -0.004 A 
ENDBRANCH  11  12
BRANCH  11  18
ATOM     18  C   UNL A   1     -24.343  -1.964  29.125  0.00  0.00    -0.026 C 
ATOM     19  C   UNL A   1     -23.791  -3.137  28.983  0.00  0.00    -0.030 C 
ATOM     20  C   UNL A   1     -24.607  -4.288  28.832  0.00  0.00    +0.030 C 
ENDBRANCH  11  18
ENDBRANCH   1  11
TORSDOF 5
ENDMDL
ENDMDL
