MODEL 2128
MODEL 1
REMARK VINA RESULT:    -6.704      0.000      0.000
REMARK INTER + INTRA:          -8.611
REMARK INTER:                  -7.879
REMARK INTRA:                  -0.732
REMARK UNBOUND:                -0.732
REMARK  Name = No_2128-gen_results/8p0m/2024-11-27-11-27-31/
REMARK  3 active torsions:
REMARK  status: ('A' for Active; 'I' for Inactive)
REMARK    1  A    between atoms: C_5  and  C_8
REMARK    2  A    between atoms: C_7  and  C_11
REMARK    3  A    between atoms: C_11  and  C_12
REMARK                            x       y       z     vdW  Elec       q    Type
REMARK                         _______ _______ _______ _____ _____    ______ ____
ROOT
ATOM      1 CL   UNL A   1     -22.388   0.601  28.774  0.00  0.00    -0.083 Cl
ATOM      2  C   UNL A   1     -23.448   0.358  27.828  0.00  0.00    +0.054 A 
ATOM      3  C   UNL A   1     -23.595   1.149  26.698  0.00  0.00    +0.011 A 
ATOM      4  C   UNL A   1     -24.746   1.140  25.878  0.00  0.00    +0.005 A 
ATOM      5  C   UNL A   1     -25.799   0.293  26.151  0.00  0.00    +0.056 A 
ATOM      6  C   UNL A   1     -25.704  -0.480  27.280  0.00  0.00    +0.002 A 
ATOM      7  C   UNL A   1     -24.642  -0.410  28.087  0.00  0.00    -0.007 A 
ENDROOT
BRANCH   5   8
ATOM      8  C   UNL A   1     -26.931   0.299  25.237  0.00  0.00    +0.284 C 
ATOM      9  N   UNL A   1     -28.199   0.339  25.610  0.00  0.00    -0.084 NA
ATOM     10  O   UNL A   1     -26.694   0.431  24.142  0.00  0.00    -0.267 OA
ENDBRANCH   5   8
BRANCH   7  11
ATOM     11  C   UNL A   1     -24.637  -1.261  29.364  0.00  0.00    +0.053 C 
BRANCH  11  12
ATOM     12  C   UNL A   1     -24.826  -2.595  29.330  0.00  0.00    -0.018 A 
ATOM     13  C   UNL A   1     -25.907  -3.125  29.810  0.00  0.00    -0.004 A 
ATOM     14  C   UNL A   1     -26.176  -4.527  29.692  0.00  0.00    -0.000 A 
ATOM     15  C   UNL A   1     -25.168  -5.280  29.052  0.00  0.00    -0.000 A 
ATOM     16  C   UNL A   1     -24.056  -4.739  28.532  0.00  0.00    -0.000 A 
ATOM     17  C   UNL A   1     -23.817  -3.367  28.651  0.00  0.00    -0.004 A 
ENDBRANCH  11  12
ENDBRANCH   7  11
TORSDOF 3
ENDMDL
ENDMDL
