MODEL 2129
MODEL 1
REMARK VINA RESULT:    -6.845      0.000      0.000
REMARK INTER + INTRA:         -12.423
REMARK INTER:                 -10.446
REMARK INTRA:                  -1.977
REMARK UNBOUND:                -1.977
REMARK  Name = No_2129-gen_results/8p0m/2024-11-27-11-27-31/
REMARK  9 active torsions:
REMARK  status: ('A' for Active; 'I' for Inactive)
REMARK    1  A    between atoms: C_11  and  C_12
REMARK    2  A    between atoms: C_14  and  C_19
REMARK    3  A    between atoms: C_19  and  O_20
REMARK    4  A    between atoms: C_19  and  C_21
REMARK    5  A    between atoms: O_20  and  C_27
REMARK    6  A    between atoms: C_21  and  C_22
REMARK    7  A    between atoms: C_26  and  C_28
REMARK    8  A    between atoms: C_27  and  C_29
REMARK    9  A    between atoms: C_29  and  C_30
REMARK                            x       y       z     vdW  Elec       q    Type
REMARK                         _______ _______ _______ _____ _____    ______ ____
ROOT
ATOM      1  C   UNL A   1     -30.432 -11.342   9.270  0.00  0.00    +0.235 C 
ATOM      2  O   UNL A   1     -30.427 -12.010  10.254  0.00  0.00    -0.469 OA
ATOM      3  C   UNL A   1     -30.150 -13.319  10.011  0.00  0.00    +0.178 C 
ATOM      4  C   UNL A   1     -30.221 -13.642   8.876  0.00  0.00    +0.198 C 
ATOM      5  C   UNL A   1     -30.291 -12.352   8.091  0.00  0.00    +0.269 C 
ATOM      6  O   UNL A   1     -29.182 -14.467   8.238  0.00  0.00    -0.452 OA
ATOM      7  O   UNL A   1     -29.031 -12.105   7.423  0.00  0.00    -0.461 OA
ATOM      8  C   UNL A   1     -28.585 -13.168   6.609  0.00  0.00    +0.206 C 
ATOM      9  C   UNL A   1     -28.503 -14.307   7.182  0.00  0.00    +0.159 C 
ENDROOT
BRANCH   1  20
ATOM     10  C   UNL A   1     -30.227  -6.396  10.267  0.00  0.00    +0.001 A 
ATOM     11  C   UNL A   1     -31.251  -6.488  10.496  0.00  0.00    +0.000 A 
ATOM     12  C   UNL A   1     -29.552  -7.543   9.795  0.00  0.00    +0.010 A 
ATOM     13  C   UNL A   1     -28.142  -7.557   9.325  0.00  0.00    +0.058 A 
ATOM     14  C   UNL A   1     -32.162  -7.645  10.431  0.00  0.00    -0.000 A 
ATOM     15  C   UNL A   1     -31.561  -8.818   9.975  0.00  0.00    -0.000 A 
ATOM     16  C   UNL A   1     -30.256  -8.791   9.600  0.00  0.00    +0.000 A 
ATOM     17 CL   UNL A   1     -27.308  -6.933   9.012  0.00  0.00    -0.082 Cl
ATOM     18  C   UNL A   1     -27.644  -9.106   9.358  0.00  0.00    +0.011 A 
ATOM     19  C   UNL A   1     -28.271 -10.018   9.198  0.00  0.00    +0.000 A 
ATOM     20  C   UNL A   1     -29.625 -10.049   9.360  0.00  0.00    +0.021 A 
ENDBRANCH   1  20
BRANCH   9  21
ATOM     21  C   UNL A   1     -27.093 -14.870   7.352  0.00  0.00    +0.068 C 
ATOM     22  C   UNL A   1     -26.942 -15.964   8.066  0.00  0.00    +0.009 C 
ENDBRANCH   9  21
BRANCH   3  23
ATOM     23  C   UNL A   1     -31.021 -14.222  10.972  0.00  0.00    +0.185 C 
BRANCH  23  24
ATOM     24  O   UNL A   1     -32.019 -14.595  10.576  0.00  0.00    -0.345 OA
BRANCH  24  25
ATOM     25  C   UNL A   1     -33.271 -14.080  10.834  0.00  0.00    +0.184 C 
BRANCH  25  26
ATOM     26  C   UNL A   1     -33.882 -13.682   9.598  0.00  0.00    +0.275 C 
ATOM     27  O   UNL A   1     -35.108 -14.581   9.574  0.00  0.00    -0.211 OA
BRANCH  26  28
ATOM     28  C   UNL A   1     -34.158 -12.439   9.617  0.00  0.00    +0.428 C 
ATOM     29  F   UNL A   1     -33.434 -11.968  10.578  0.00  0.00    -0.167 F 
ATOM     30  F   UNL A   1     -33.599 -11.783   8.504  0.00  0.00    -0.167 F 
ATOM     31  F   UNL A   1     -35.327 -12.016   9.844  0.00  0.00    -0.167 F 
ENDBRANCH  26  28
ENDBRANCH  25  26
ENDBRANCH  24  25
ENDBRANCH  23  24
BRANCH  23  32
ATOM     32  C   UNL A   1     -30.192 -15.314  11.555  0.00  0.00    +0.151 C 
BRANCH  32  33
ATOM     33  C   UNL A   1     -29.667 -15.209  12.795  0.00  0.00    +0.368 C 
ATOM     34  O   UNL A   1     -28.723 -15.796  13.103  0.00  0.00    -0.245 OA
ATOM     35  O   UNL A   1     -30.017 -14.056  13.434  0.00  0.00    -0.245 OA
ENDBRANCH  32  33
ENDBRANCH  23  32
ENDBRANCH   3  23
TORSDOF 9
ENDMDL
ENDMDL
