REMARK  Name = No_2129-gen_results/8p0m/2024-11-27-11-27-31/
REMARK  9 active torsions:
REMARK  status: ('A' for Active; 'I' for Inactive)
REMARK    1  A    between atoms: C_11  and  C_12
REMARK    2  A    between atoms: C_14  and  C_19
REMARK    3  A    between atoms: C_19  and  O_20
REMARK    4  A    between atoms: C_19  and  C_21
REMARK    5  A    between atoms: O_20  and  C_27
REMARK    6  A    between atoms: C_21  and  C_22
REMARK    7  A    between atoms: C_26  and  C_28
REMARK    8  A    between atoms: C_27  and  C_29
REMARK    9  A    between atoms: C_29  and  C_30
REMARK                            x       y       z     vdW  Elec       q    Type
REMARK                         _______ _______ _______ _____ _____    ______ ____
ROOT
ATOM      1  C   UNL A   1     -25.982   3.624  30.171  0.00  0.00    +0.235 C 
ATOM      2  O   UNL A   1     -26.968   3.934  30.759  0.00  0.00    -0.469 OA
ATOM      3  C   UNL A   1     -27.175   5.278  30.785  0.00  0.00    +0.178 C 
ATOM      4  C   UNL A   1     -26.242   5.933  30.470  0.00  0.00    +0.198 C 
ATOM      5  C   UNL A   1     -25.261   4.967  29.846  0.00  0.00    +0.269 C 
ATOM      6  O   UNL A   1     -26.369   7.065  29.537  0.00  0.00    -0.452 OA
ATOM      7  O   UNL A   1     -25.236   5.139  28.409  0.00  0.00    -0.461 OA
ATOM      8  C   UNL A   1     -24.982   6.460  27.985  0.00  0.00    +0.206 C 
ATOM      9  C   UNL A   1     -25.756   7.355  28.469  0.00  0.00    +0.159 C 
ENDROOT
BRANCH   1  20
ATOM     10  C   UNL A   1     -28.016  -0.814  28.878  0.00  0.00    +0.001 A 
ATOM     11  C   UNL A   1     -28.469  -0.785  29.829  0.00  0.00    +0.000 A 
ATOM     12  C   UNL A   1     -27.136   0.236  28.535  0.00  0.00    +0.010 A 
ATOM     13  C   UNL A   1     -26.335   0.290  27.284  0.00  0.00    +0.058 A 
ATOM     14  C   UNL A   1     -28.369   0.196  30.924  0.00  0.00    -0.000 A 
ATOM     15  C   UNL A   1     -27.516   1.266  30.654  0.00  0.00    -0.000 A 
ATOM     16  C   UNL A   1     -26.841   1.294  29.476  0.00  0.00    +0.000 A 
ATOM     17 CL   UNL A   1     -25.976  -0.293  26.439  0.00  0.00    -0.082 Cl
ATOM     18  C   UNL A   1     -25.881   1.838  27.075  0.00  0.00    +0.011 A 
ATOM     19  C   UNL A   1     -25.677   2.593  27.874  0.00  0.00    +0.000 A 
ATOM     20  C   UNL A   1     -26.163   2.507  29.146  0.00  0.00    +0.021 A 
ENDBRANCH   1  20
BRANCH   9  21
ATOM     21  C   UNL A   1     -26.692   8.039  27.474  0.00  0.00    +0.068 C 
ATOM     22  C   UNL A   1     -27.605   7.307  26.875  0.00  0.00    +0.009 C 
ENDBRANCH   9  21
BRANCH   3  23
ATOM     23  C   UNL A   1     -27.776   5.685  32.189  0.00  0.00    +0.185 C 
BRANCH  23  24
ATOM     24  O   UNL A   1     -27.225   5.327  33.117  0.00  0.00    -0.345 OA
BRANCH  24  25
ATOM     25  C   UNL A   1     -27.724   5.204  34.396  0.00  0.00    +0.184 C 
BRANCH  25  26
ATOM     26  C   UNL A   1     -27.030   4.147  35.075  0.00  0.00    +0.275 C 
ATOM     27  O   UNL A   1     -26.733   4.803  36.413  0.00  0.00    -0.211 OA
BRANCH  26  28
ATOM     28  C   UNL A   1     -27.769   3.114  35.163  0.00  0.00    +0.428 C 
ATOM     29  F   UNL A   1     -27.189   2.242  34.407  0.00  0.00    -0.167 F 
ATOM     30  F   UNL A   1     -27.640   2.510  36.428  0.00  0.00    -0.167 F 
ATOM     31  F   UNL A   1     -28.978   3.122  34.794  0.00  0.00    -0.167 F 
ENDBRANCH  26  28
ENDBRANCH  25  26
ENDBRANCH  24  25
ENDBRANCH  23  24
BRANCH  23  32
ATOM     32  C   UNL A   1     -28.072   7.144  32.227  0.00  0.00    +0.151 C 
BRANCH  32  33
ATOM     33  C   UNL A   1     -29.074   7.674  31.492  0.00  0.00    +0.368 C 
ATOM     34  O   UNL A   1     -28.902   8.586  30.806  0.00  0.00    -0.245 OA
ATOM     35  O   UNL A   1     -30.093   6.799  31.256  0.00  0.00    -0.245 OA
ENDBRANCH  32  33
ENDBRANCH  23  32
ENDBRANCH   3  23
TORSDOF 9
