MODEL 212
MODEL 1
REMARK VINA RESULT:    -6.578      0.000      0.000
REMARK INTER + INTRA:          -6.578
REMARK INTER:                  -6.578
REMARK INTRA:                   0.000
REMARK UNBOUND:                 0.000
REMARK  Name = No_212-gen_results/8p0m/2024-11-27-11-27-31/
REMARK  0 active torsions:
REMARK  status: ('A' for Active; 'I' for Inactive)
REMARK                            x       y       z     vdW  Elec       q    Type
REMARK                         _______ _______ _______ _____ _____    ______ ____
ROOT
ATOM      1  C   UNL A   1     -25.449  -0.995  29.668  0.00  0.00    +0.019 A 
ATOM      2  C   UNL A   1     -24.630  -0.301  29.109  0.00  0.00    +0.081 A 
ATOM      3  N   UNL A   1     -24.885   0.922  28.623  0.00  0.00    -0.244 NA
ATOM      4  C   UNL A   1     -23.959   1.790  27.951  0.00  0.00    +0.099 A 
ATOM      5  C   UNL A   1     -22.632   1.514  28.075  0.00  0.00    +0.021 A 
ATOM      6  C   UNL A   1     -22.300   0.265  28.664  0.00  0.00    +0.003 A 
ATOM      7  C   UNL A   1     -23.233  -0.563  29.190  0.00  0.00    +0.018 A 
ATOM      8  C   UNL A   1     -25.450  -2.440  29.398  0.00  0.00    +0.002 A 
ATOM      9  C   UNL A   1     -26.499  -3.222  29.752  0.00  0.00    +0.000 A 
ATOM     10  C   UNL A   1     -26.383  -4.594  29.764  0.00  0.00    +0.000 A 
ATOM     11  C   UNL A   1     -25.197  -5.161  29.294  0.00  0.00    +0.000 A 
ATOM     12  C   UNL A   1     -24.154  -4.348  28.939  0.00  0.00    +0.000 A 
ATOM     13  C   UNL A   1     -24.205  -2.973  29.037  0.00  0.00    +0.000 A 
ATOM     14  C   UNL A   1     -23.112  -1.995  28.801  0.00  0.00    +0.002 A 
ENDROOT
TORSDOF 0
ENDMDL
ENDMDL
