REMARK  Name = No_213-gen_results/8p0m/2024-11-27-11-27-31/
REMARK  14 active torsions:
REMARK  status: ('A' for Active; 'I' for Inactive)
REMARK    1  A    between atoms: C_1  and  C_2
REMARK    2  A    between atoms: C_1  and  C_8
REMARK    3  A    between atoms: C_1  and  N_15
REMARK    4  A    between atoms: C_5  and  C_12
REMARK    5  A    between atoms: N_15  and  C_28
REMARK    6  A    between atoms: C_16  and  C_17
REMARK    7  A    between atoms: C_17  and  C_19
REMARK    8  A    between atoms: C_19  and  C_20
REMARK    9  A    between atoms: C_20  and  C_21
REMARK   10  A    between atoms: C_21  and  C_22
REMARK   11  A    between atoms: C_28  and  C_29
REMARK   12  A    between atoms: C_29  and  O_30
REMARK   13  A    between atoms: O_30  and  C_31
REMARK   14  A    between atoms: C_31  and  C_32
REMARK                            x       y       z     vdW  Elec       q    Type
REMARK                         _______ _______ _______ _____ _____    ______ ____
ROOT
ATOM      1  N   UNL A   1     -27.683  -1.566  30.141  0.00  0.00    -0.267 N 
ATOM      2  C   UNL A   1     -27.665  -2.990  30.188  0.00  0.00    +0.226 C 
ATOM      3  O   UNL A   1     -28.354  -3.414  31.254  0.00  0.00    -0.275 OA
ENDROOT
BRANCH   1   4
ATOM      4  C   UNL A   1     -28.016  -0.814  28.878  0.00  0.00    +0.194 C 
BRANCH   4   5
ATOM      5  C   UNL A   1     -27.064  -0.119  28.608  0.00  0.00    +0.004 A 
ATOM      6  C   UNL A   1     -26.972   0.714  27.506  0.00  0.00    -0.002 A 
ATOM      7  C   UNL A   1     -25.820   1.491  27.116  0.00  0.00    +0.006 A 
ATOM      8  C   UNL A   1     -24.656   1.424  27.918  0.00  0.00    +0.080 A 
ATOM      9  C   UNL A   1     -24.685   0.590  29.066  0.00  0.00    +0.006 A 
ATOM     10  C   UNL A   1     -25.810  -0.127  29.334  0.00  0.00    -0.002 A 
BRANCH   8  11
ATOM     11  C   UNL A   1     -23.492   2.237  27.628  0.00  0.00    +0.388 C 
ATOM     12  O   UNL A   1     -22.560   2.241  28.486  0.00  0.00    -0.241 OA
ATOM     13  O   UNL A   1     -23.373   2.818  26.482  0.00  0.00    -0.241 OA
ENDBRANCH   8  11
ENDBRANCH   4   5
BRANCH   4  14
ATOM     14  C   UNL A   1     -29.244  -0.077  29.201  0.00  0.00    +0.418 C 
ATOM     15  F   UNL A   1     -30.145  -0.927  29.582  0.00  0.00    -0.168 F 
ATOM     16  F   UNL A   1     -29.094   0.775  30.169  0.00  0.00    -0.168 F 
ATOM     17  F   UNL A   1     -29.705   0.509  28.133  0.00  0.00    -0.168 F 
ENDBRANCH   4  14
ENDBRANCH   1   4
BRANCH   2  18
ATOM     18  C   UNL A   1     -27.409  -3.810  29.153  0.00  0.00    +0.085 C 
BRANCH  18  19
ATOM     19  C   UNL A   1     -26.233  -4.737  29.827  0.00  0.00    +0.010 C 
BRANCH  19  20
ATOM     20  C   UNL A   1     -25.124  -4.725  28.793  0.00  0.00    +0.005 C 
BRANCH  20  21
ATOM     21  C   UNL A   1     -24.438  -3.462  28.511  0.00  0.00    +0.026 C 
BRANCH  21  22
ATOM     22  C   UNL A   1     -23.989  -2.649  29.649  0.00  0.00    -0.022 A 
ATOM     23  C   UNL A   1     -22.917  -1.742  29.400  0.00  0.00    -0.004 A 
ATOM     24  C   UNL A   1     -22.154  -1.170  30.369  0.00  0.00    -0.000 A 
ATOM     25  C   UNL A   1     -22.678  -1.105  31.704  0.00  0.00    -0.000 A 
ATOM     26  C   UNL A   1     -23.943  -1.742  31.939  0.00  0.00    -0.000 A 
ATOM     27  C   UNL A   1     -24.506  -2.547  30.916  0.00  0.00    -0.004 A 
ENDBRANCH  21  22
ENDBRANCH  20  21
ENDBRANCH  19  20
ENDBRANCH  18  19
ENDBRANCH   2  18
BRANCH   1  28
ATOM     28  C   UNL A   1     -27.470  -0.910  31.416  0.00  0.00    +0.126 C 
BRANCH  28  29
ATOM     29  C   UNL A   1     -27.107  -1.569  32.379  0.00  0.00    +0.164 C 
BRANCH  29  30
ATOM     30  O   UNL A   1     -28.200  -2.082  33.074  0.00  0.00    -0.343 OA
BRANCH  30  31
ATOM     31  C   UNL A   1     -28.515  -1.491  34.316  0.00  0.00    +0.229 C 
BRANCH  31  32
ATOM     32  C   UNL A   1     -29.850  -1.225  34.442  0.00  0.00    +0.272 C 
ATOM     33  O   UNL A   1     -30.216  -0.293  34.620  0.00  0.00    -0.271 OA
ATOM     34  N   UNL A   1     -30.580  -2.425  34.609  0.00  0.00    -0.201 NA
ATOM     35  C   UNL A   1     -32.041  -2.377  34.512  0.00  0.00    +0.139 C 
ENDBRANCH  31  32
ENDBRANCH  30  31
ENDBRANCH  29  30
ENDBRANCH  28  29
ENDBRANCH   1  28
TORSDOF 14
