MODEL 2130
MODEL 1
REMARK VINA RESULT:    -5.741      0.000      0.000
REMARK INTER + INTRA:          -7.067
REMARK INTER:                  -6.748
REMARK INTRA:                  -0.319
REMARK UNBOUND:                -0.319
REMARK  Name = No_2130-gen_results/8p0m/2024-11-27-11-27-31/
REMARK  3 active torsions:
REMARK  status: ('A' for Active; 'I' for Inactive)
REMARK    1  A    between atoms: C_3  and  O_7
REMARK    2  A    between atoms: O_7  and  C_8
REMARK    3  A    between atoms: C_9  and  C_10
REMARK                            x       y       z     vdW  Elec       q    Type
REMARK                         _______ _______ _______ _____ _____    ______ ____
ROOT
ATOM      1  C   UNL A   1     -26.321  -3.300  29.931  0.00  0.00    +0.003 A 
ATOM      2  C   UNL A   1     -25.439  -2.493  29.751  0.00  0.00    +0.037 A 
ATOM      3  C   UNL A   1     -24.226  -2.800  29.135  0.00  0.00    +0.145 A 
ATOM      4  C   UNL A   1     -23.964  -4.169  28.734  0.00  0.00    +0.037 A 
ATOM      5  C   UNL A   1     -25.035  -5.057  28.985  0.00  0.00    +0.003 A 
ATOM      6  C   UNL A   1     -26.138  -4.676  29.576  0.00  0.00    +0.000 A 
ENDROOT
BRANCH   3   7
ATOM      7  O   UNL A   1     -23.190  -1.920  28.927  0.00  0.00    -0.450 OA
BRANCH   7   8
ATOM      8  C   UNL A   1     -22.644  -1.140  29.860  0.00  0.00    +0.179 C 
ATOM      9  C   UNL A   1     -22.538   0.252  29.555  0.00  0.00    +0.040 C 
BRANCH   9  10
ATOM     10  C   UNL A   1     -23.001   0.674  28.274  0.00  0.00    -0.001 C 
ATOM     11  C   UNL A   1     -22.285   1.591  27.513  0.00  0.00    -0.026 C 
ATOM     12  C   UNL A   1     -22.726   2.092  26.290  0.00  0.00    +0.031 C 
ENDBRANCH   9  10
ENDBRANCH   7   8
ENDBRANCH   3   7
TORSDOF 3
ENDMDL
ENDMDL
