REMARK  Name = outputs/IAG933/test6/raw/output_2131_IAG933_linker_design_.xyz
REMARK  13 active torsions:
REMARK  status: ('A' for Active; 'I' for Inactive)
REMARK    1  A    between atoms: C_1  and  C_2
REMARK    2  A    between atoms: C_1  and  C_8
REMARK    3  A    between atoms: C_1  and  S_37
REMARK    4  A    between atoms: C_13  and  N_32
REMARK    5  A    between atoms: C_14  and  C_15
REMARK    6  A    between atoms: C_21  and  O_22
REMARK    7  A    between atoms: O_22  and  C_23
REMARK    8  A    between atoms: C_23  and  C_24
REMARK    9  A    between atoms: C_28  and  C_30
REMARK   10  A    between atoms: C_30  and  S_37
REMARK   11  A    between atoms: N_32  and  C_36
REMARK   12  A    between atoms: N_32  and  S_37
REMARK   13  A    between atoms: C_36  and  C_38
REMARK                            x       y       z     vdW  Elec       q    Type
REMARK                         _______ _______ _______ _____ _____    ______ ____
ROOT
ATOM      1  S   UNL A   1     -25.530   0.161  29.016  0.00  0.00    -0.108 S 
ENDROOT
BRANCH   1   2
ATOM      2  C   UNL A   1     -24.855  -1.012  30.143  0.00  0.00    +0.091 C 
BRANCH   2   3
ATOM      3  C   UNL A   1     -24.973  -2.505  29.788  0.00  0.00    -0.011 C 
ATOM      4  C   UNL A   1     -23.906  -3.173  29.146  0.00  0.00    -0.003 C 
ATOM      5  C   UNL A   1     -23.989  -4.549  28.853  0.00  0.00    -0.000 C 
ATOM      6  C   UNL A   1     -25.137  -5.280  29.205  0.00  0.00    -0.000 C 
ATOM      7  C   UNL A   1     -26.232  -4.611  29.784  0.00  0.00    -0.000 C 
ATOM      8  C   UNL A   1     -26.155  -3.232  30.065  0.00  0.00    -0.003 C 
ENDBRANCH   2   3
BRANCH   2   9
ATOM      9  C   UNL A   1     -25.387  -0.679  31.571  0.00  0.00    +0.087 C 
ATOM     10  C   UNL A   1     -25.189   0.773  32.028  0.00  0.00    +0.020 C 
ATOM     11  C   UNL A   1     -25.336   0.684  33.544  0.00  0.00    +0.020 C 
ATOM     12  C   UNL A   1     -24.829  -0.715  33.905  0.00  0.00    +0.089 C 
ATOM     13  N   UNL A   1     -24.758  -1.481  32.646  0.00  0.00    -0.218 NA
ENDBRANCH   2   9
ENDBRANCH   1   2
BRANCH   1  14
ATOM     14  C   UNL A   1     -27.145  -0.454  28.767  0.00  0.00    +0.111 C 
BRANCH  14  15
ATOM     15  C   UNL A   1     -28.203   0.281  29.427  0.00  0.00    +0.098 C 
ATOM     16  C   UNL A   1     -29.050   1.395  31.320  0.00  0.00    +0.099 C 
ATOM     17  F   UNL A   1     -29.576  -0.186  27.590  0.00  0.00    -0.203 F 
ATOM     18  C   UNL A   1     -30.351   1.002  30.981  0.00  0.00    +0.023 C 
ATOM     19  C   UNL A   1     -30.583   0.396  29.731  0.00  0.00    +0.033 C 
ATOM     20  N   UNL A   1     -27.950   1.022  30.561  0.00  0.00    -0.245 NA
ATOM     21  C   UNL A   1     -29.474   0.164  28.902  0.00  0.00    +0.154 C 
ENDBRANCH  14  15
ENDBRANCH   1  14
BRANCH   1  22
ATOM     22  N   UNL A   1     -24.952   1.076  27.678  0.00  0.00    -0.217 NA
BRANCH  22  23
ATOM     23  C   UNL A   1     -25.688   1.614  26.461  0.00  0.00    +0.138 C 
ATOM     24  C   UNL A   1     -26.250   2.920  26.395  0.00  0.00    +0.070 C 
ATOM     25  C   UNL A   1     -27.438   3.091  25.645  0.00  0.00    +0.103 C 
ATOM     26  N   UNL A   1     -28.075   2.089  25.003  0.00  0.00    -0.212 NA
ATOM     27  C   UNL A   1     -27.543   0.849  25.079  0.00  0.00    +0.235 C 
ATOM     28  C   UNL A   1     -26.354   0.576  25.777  0.00  0.00    +0.255 C 
ATOM     29  F   UNL A   1     -25.860  -0.681  25.795  0.00  0.00    -0.225 F 
BRANCH  24  30
ATOM     30  C   UNL A   1     -25.642   4.093  27.123  0.00  0.00    +0.264 C 
ATOM     31  N   UNL A   1     -25.614   5.252  26.449  0.00  0.00    -0.200 NA
ATOM     32  C   UNL A   1     -25.026   6.479  26.963  0.00  0.00    +0.139 C 
ATOM     33  O   UNL A   1     -25.143   3.966  28.243  0.00  0.00    -0.269 OA
ENDBRANCH  24  30
BRANCH  27  34
ATOM     34  O   UNL A   1     -28.193  -0.208  24.477  0.00  0.00    -0.459 OA
BRANCH  34  35
ATOM     35  C   UNL A   1     -29.460   0.005  23.866  0.00  0.00    +0.242 C 
BRANCH  35  36
ATOM     36  C   UNL A   1     -30.065  -1.377  23.573  0.00  0.00    +0.229 C 
ATOM     37  O   UNL A   1     -30.729  -1.878  24.721  0.00  0.00    -0.216 OA
ENDBRANCH  35  36
ENDBRANCH  34  35
ENDBRANCH  27  34
ENDBRANCH  22  23
BRANCH  22  39
ATOM     38  C   UNL A   1     -22.932   1.994  26.102  0.00  0.00    +0.035 C 
ATOM     39  C   UNL A   1     -23.486   1.223  27.313  0.00  0.00    +0.159 C 
BRANCH  39  41
ATOM     40  N   UNL A   1     -22.216  -0.011  29.308  0.00  0.00    -0.195 NA
ATOM     41  C   UNL A   1     -22.693   0.648  28.371  0.00  0.00    +0.089 C 
ENDBRANCH  39  41
ENDBRANCH  22  39
ENDBRANCH   1  22
TORSDOF 13
