MODEL 2131
MODEL 1
REMARK VINA RESULT:    -5.120      0.000      0.000
REMARK INTER + INTRA:          -5.864
REMARK INTER:                  -5.719
REMARK INTRA:                  -0.145
REMARK UNBOUND:                -0.145
REMARK  Name = No_2131-gen_results/8p0m/2024-11-27-11-27-31/
REMARK  2 active torsions:
REMARK  status: ('A' for Active; 'I' for Inactive)
REMARK    1  A    between atoms: C_1  and  N_8
REMARK    2  A    between atoms: C_5  and  C_10
REMARK                            x       y       z     vdW  Elec       q    Type
REMARK                         _______ _______ _______ _____ _____    ______ ____
ROOT
ATOM      1  C   UNL A   1     -24.801  -2.881  29.184  0.00  0.00    +0.072 C 
ATOM      2  C   UNL A   1     -24.243  -1.891  28.770  0.00  0.00    -0.028 C 
ATOM      3  C   UNL A   1     -23.006  -1.437  29.194  0.00  0.00    +0.023 C 
ATOM      4  C   UNL A   1     -22.355  -0.218  28.777  0.00  0.00    +0.004 C 
ATOM      5  C   UNL A   1     -23.013   0.614  27.841  0.00  0.00    +0.001 C 
ATOM      6  C   UNL A   1     -24.285   0.204  27.363  0.00  0.00    +0.004 C 
ATOM      7  C   UNL A   1     -24.830  -0.948  27.839  0.00  0.00    +0.023 C 
ENDROOT
BRANCH   1   8
ATOM      8  N   UNL A   1     -24.128  -4.059  29.010  0.00  0.00    -0.235 NA
ATOM      9  C   UNL A   1     -24.774  -5.235  29.070  0.00  0.00    +0.136 C 
ENDBRANCH   1   8
BRANCH   5  10
ATOM     10  C   UNL A   1     -22.396   1.837  27.350  0.00  0.00    +0.000 C 
ATOM     11  C   UNL A   1     -23.006   2.199  26.011  0.00  0.00    +0.000 C 
ENDBRANCH   5  10
TORSDOF 2
ENDMDL
ENDMDL
