MODEL 2132
MODEL 1
REMARK VINA RESULT:    -6.546      0.000      0.000
REMARK INTER + INTRA:          -7.239
REMARK INTER:                  -6.929
REMARK INTRA:                  -0.310
REMARK UNBOUND:                -0.310
REMARK  Name = No_2132-gen_results/8p0m/2024-11-27-11-27-31/
REMARK  1 active torsions:
REMARK  status: ('A' for Active; 'I' for Inactive)
REMARK    1  A    between atoms: C_3  and  C_7
REMARK                            x       y       z     vdW  Elec       q    Type
REMARK                         _______ _______ _______ _____ _____    ______ ____
ROOT
ATOM      1  C   UNL A   1     -24.764  -4.991  28.935  0.00  0.00    +0.000 A 
ATOM      2  C   UNL A   1     -24.126  -4.001  28.662  0.00  0.00    +0.000 A 
ATOM      3  C   UNL A   1     -24.523  -2.709  29.005  0.00  0.00    +0.000 A 
ATOM      4  C   UNL A   1     -25.794  -2.515  29.675  0.00  0.00    +0.000 A 
ATOM      5  C   UNL A   1     -26.506  -3.682  29.953  0.00  0.00    +0.000 A 
ATOM      6  C   UNL A   1     -26.060  -4.866  29.582  0.00  0.00    +0.000 A 
ENDROOT
BRANCH   3   7
ATOM      7  C   UNL A   1     -23.788  -1.445  28.710  0.00  0.00    +0.000 A 
ATOM      8  C   UNL A   1     -24.306  -0.479  27.914  0.00  0.00    +0.000 A 
ATOM      9  C   UNL A   1     -23.576   0.677  27.622  0.00  0.00    +0.000 A 
ATOM     10  C   UNL A   1     -22.275   0.900  28.180  0.00  0.00    +0.000 A 
ATOM     11  C   UNL A   1     -22.483  -1.160  29.177  0.00  0.00    +0.000 A 
ATOM     12  C   UNL A   1     -21.774  -0.049  28.909  0.00  0.00    +0.000 A 
ENDBRANCH   3   7
TORSDOF 1
ENDMDL
ENDMDL
