MODEL 2133
MODEL 1
REMARK VINA RESULT:    -4.502      0.000      0.000
REMARK INTER + INTRA:          -4.502
REMARK INTER:                  -4.502
REMARK INTRA:                   0.000
REMARK UNBOUND:                 0.000
REMARK  Name = No_2133-gen_results/8p0m/2024-11-27-11-27-31/
REMARK  0 active torsions:
REMARK  status: ('A' for Active; 'I' for Inactive)
REMARK                            x       y       z     vdW  Elec       q    Type
REMARK                         _______ _______ _______ _____ _____    ______ ____
ROOT
ATOM      1  C   UNL A   1      -9.214  -9.215  20.057  0.00  0.00    +0.011 A 
ATOM      2  C   UNL A   1      -8.229  -9.908  19.953  0.00  0.00    +0.058 A 
ATOM      3  C   UNL A   1      -8.052 -10.745  18.857  0.00  0.00    +0.011 A 
ATOM      4  C   UNL A   1      -9.058 -10.845  17.832  0.00  0.00    +0.001 A 
ATOM      5  C   UNL A   1     -10.175 -10.026  18.043  0.00  0.00    +0.000 A 
ATOM      6  C   UNL A   1     -10.302  -9.266  19.106  0.00  0.00    +0.001 A 
ATOM      7 CL   UNL A   1      -6.957  -9.952  21.100  0.00  0.00    -0.082 Cl
ENDROOT
TORSDOF 0
ENDMDL
ENDMDL
