REMARK  Name = outputs/IAG933/test6/raw/output_2133_IAG933_linker_design_.xyz
REMARK  16 active torsions:
REMARK  status: ('A' for Active; 'I' for Inactive)
REMARK    1  A    between atoms: C_1  and  C_2
REMARK    2  A    between atoms: C_1  and  C_8
REMARK    3  A    between atoms: C_9  and  C_31
REMARK    4  A    between atoms: C_13  and  C_41
REMARK    5  A    between atoms: C_14  and  C_15
REMARK    6  A    between atoms: C_21  and  O_22
REMARK    7  A    between atoms: O_22  and  C_23
REMARK    8  A    between atoms: C_23  and  C_24
REMARK    9  A    between atoms: C_28  and  C_30
REMARK   10  A    between atoms: C_28  and  C_37
REMARK   11  A    between atoms: N_29  and  C_31
REMARK   12  A    between atoms: C_30  and  C_40
REMARK   13  A    between atoms: C_31  and  C_40
REMARK   14  A    between atoms: C_32  and  C_33
REMARK   15  A    between atoms: C_35  and  C_41
REMARK   16  A    between atoms: C_37  and  C_38
REMARK                            x       y       z     vdW  Elec       q    Type
REMARK                         _______ _______ _______ _____ _____    ______ ____
ROOT
ATOM      1  N   UNL A   1     -25.289   1.772  29.695  0.00  0.00    -0.268 NA
ATOM      2  C   UNL A   1     -24.553   1.331  28.709  0.00  0.00    +0.094 C 
ENDROOT
BRANCH   2   4
ATOM      3  C   UNL A   1     -23.174   1.482  26.437  0.00  0.00    +0.052 C 
ATOM      4  C   UNL A   1     -24.451   1.483  27.200  0.00  0.00    +0.029 C 
BRANCH   4   5
ATOM      5  C   UNL A   1     -25.688   1.614  26.461  0.00  0.00    +0.040 C 
ATOM      6  C   UNL A   1     -26.250   2.920  26.395  0.00  0.00    +0.077 C 
ATOM      7  C   UNL A   1     -27.438   3.091  25.645  0.00  0.00    +0.107 C 
ATOM      8  N   UNL A   1     -28.075   2.089  25.003  0.00  0.00    -0.208 NA
ATOM      9  C   UNL A   1     -27.543   0.849  25.079  0.00  0.00    +0.253 C 
ATOM     10  C   UNL A   1     -26.354   0.576  25.777  0.00  0.00    +0.193 C 
ATOM     11  F   UNL A   1     -25.860  -0.681  25.795  0.00  0.00    -0.199 F 
BRANCH   6  12
ATOM     12  C   UNL A   1     -25.642   4.093  27.123  0.00  0.00    +0.266 C 
ATOM     13  N   UNL A   1     -25.614   5.252  26.449  0.00  0.00    -0.200 NA
ATOM     14  C   UNL A   1     -25.026   6.479  26.963  0.00  0.00    +0.139 C 
ATOM     15  O   UNL A   1     -25.143   3.966  28.243  0.00  0.00    -0.268 OA
ENDBRANCH   6  12
BRANCH   9  16
ATOM     16  O   UNL A   1     -28.193  -0.208  24.477  0.00  0.00    -0.456 OA
BRANCH  16  17
ATOM     17  C   UNL A   1     -29.460   0.005  23.866  0.00  0.00    +0.243 C 
BRANCH  17  18
ATOM     18  C   UNL A   1     -30.065  -1.377  23.573  0.00  0.00    +0.229 C 
ATOM     19  O   UNL A   1     -30.729  -1.878  24.721  0.00  0.00    -0.216 OA
ENDBRANCH  17  18
ENDBRANCH  16  17
ENDBRANCH   9  16
ENDBRANCH   4   5
BRANCH   3  20
ATOM     20  C   UNL A   1     -22.026   1.379  27.076  0.00  0.00    -0.051 C 
ATOM     21  C   UNL A   1     -21.030   1.425  27.761  0.00  0.00    -0.009 C 
ENDBRANCH   3  20
ENDBRANCH   2   4
BRANCH   1  22
ATOM     22  C   UNL A   1     -25.646   1.918  31.100  0.00  0.00    +0.135 C 
BRANCH  22  24
ATOM     23  C   UNL A   1     -25.387  -0.679  31.571  0.00  0.00    +0.079 C 
ATOM     24  C   UNL A   1     -25.189   0.773  32.028  0.00  0.00    +0.043 C 
ATOM     25  C   UNL A   1     -25.336   0.684  33.544  0.00  0.00    +0.022 C 
ATOM     26  C   UNL A   1     -24.829  -0.715  33.905  0.00  0.00    +0.089 C 
ATOM     27  N   UNL A   1     -24.758  -1.481  32.646  0.00  0.00    -0.219 NA
BRANCH  23  28
ATOM     28  C   UNL A   1     -24.855  -1.012  30.143  0.00  0.00    +0.044 C 
BRANCH  28  29
ATOM     29  C   UNL A   1     -24.973  -2.505  29.788  0.00  0.00    -0.021 C 
ATOM     30  C   UNL A   1     -23.906  -3.173  29.146  0.00  0.00    -0.004 C 
ATOM     31  C   UNL A   1     -23.989  -4.549  28.853  0.00  0.00    -0.000 C 
ATOM     32  C   UNL A   1     -25.137  -5.280  29.205  0.00  0.00    -0.000 C 
ATOM     33  C   UNL A   1     -26.232  -4.611  29.784  0.00  0.00    -0.000 C 
ATOM     34  C   UNL A   1     -26.155  -3.232  30.065  0.00  0.00    -0.004 C 
ENDBRANCH  28  29
ENDBRANCH  23  28
ENDBRANCH  22  24
BRANCH  22  36
ATOM     35  O   UNL A   1     -23.623   3.338  31.345  0.00  0.00    -0.221 OA
ATOM     36  C   UNL A   1     -25.124   3.330  31.467  0.00  0.00    +0.174 C 
BRANCH  36  37
ATOM     37  C   UNL A   1     -25.519   3.574  32.866  0.00  0.00    +0.035 C 
BRANCH  37  38
ATOM     38  C   UNL A   1     -26.529   4.744  33.129  0.00  0.00    +0.004 C 
BRANCH  38  39
ATOM     39  C   UNL A   1     -27.611   3.842  33.830  0.00  0.00    +0.021 C 
BRANCH  39  40
ATOM     40  C   UNL A   1     -29.047   4.418  33.727  0.00  0.00    +0.109 C 
ATOM     41  N   UNL A   1     -29.458   4.573  35.148  0.00  0.00    -0.131 NA
ENDBRANCH  39  40
ENDBRANCH  38  39
ENDBRANCH  37  38
ENDBRANCH  36  37
ENDBRANCH  22  36
ENDBRANCH   1  22
TORSDOF 16
