MODEL 2134
MODEL 1
REMARK VINA RESULT:    -5.180      0.000      0.000
REMARK INTER + INTRA:          -5.859
REMARK INTER:                  -5.786
REMARK INTRA:                  -0.074
REMARK UNBOUND:                -0.074
REMARK  Name = No_2134-gen_results/8p0m/2024-11-27-11-27-31/
REMARK  2 active torsions:
REMARK  status: ('A' for Active; 'I' for Inactive)
REMARK    1  A    between atoms: C_1  and  C_2
REMARK    2  A    between atoms: C_5  and  C_6
REMARK                            x       y       z     vdW  Elec       q    Type
REMARK                         _______ _______ _______ _____ _____    ______ ____
ROOT
ATOM      1  C   UNL A   1     -29.684 -10.724  30.246  0.00  0.00    +0.042 A 
ATOM      2  C   UNL A   1     -28.757 -11.639  30.258  0.00  0.00    +0.003 A 
ATOM      3  C   UNL A   1     -27.895 -12.000  31.411  0.00  0.00    +0.005 A 
ATOM      4  C   UNL A   1     -28.076 -11.236  32.599  0.00  0.00    +0.057 A 
ATOM      5  C   UNL A   1     -29.822 -10.128  31.651  0.00  0.00    +0.003 A 
ATOM      6  C   UNL A   1     -29.044 -10.287  32.710  0.00  0.00    +0.005 A 
ENDROOT
BRANCH   4   7
ATOM      7  C   UNL A   1     -27.244 -11.499  33.716  0.00  0.00    +0.284 C 
ATOM      8  N   UNL A   1     -27.030 -10.749  34.716  0.00  0.00    -0.084 NA
ATOM      9  O   UNL A   1     -26.817 -12.763  33.855  0.00  0.00    -0.267 OA
ENDBRANCH   4   7
BRANCH   1  10
ATOM     10  C   UNL A   1     -30.399 -10.403  29.325  0.00  0.00    +0.234 C 
ATOM     11  O   UNL A   1     -30.120 -10.775  28.105  0.00  0.00    -0.283 OA
ENDBRANCH   1  10
TORSDOF 2
ENDMDL
ENDMDL
