REMARK  Name = No_2134-gen_results/8p0m/2024-11-27-11-27-31/
REMARK  2 active torsions:
REMARK  status: ('A' for Active; 'I' for Inactive)
REMARK    1  A    between atoms: C_1  and  C_2
REMARK    2  A    between atoms: C_5  and  C_6
REMARK                            x       y       z     vdW  Elec       q    Type
REMARK                         _______ _______ _______ _____ _____    ______ ____
ROOT
ATOM      1  C   UNL A   1     -27.064  -0.119  28.608  0.00  0.00    +0.042 A 
ATOM      2  C   UNL A   1     -26.876   1.133  28.913  0.00  0.00    +0.003 A 
ATOM      3  C   UNL A   1     -25.688   1.952  28.567  0.00  0.00    +0.005 A 
ATOM      4  C   UNL A   1     -24.639   1.283  27.875  0.00  0.00    +0.057 A 
ATOM      5  C   UNL A   1     -25.898  -0.607  27.741  0.00  0.00    +0.003 A 
ATOM      6  C   UNL A   1     -24.748  -0.011  27.469  0.00  0.00    +0.005 A 
ENDROOT
BRANCH   4   7
ATOM      7  C   UNL A   1     -23.456   2.000  27.565  0.00  0.00    +0.284 C 
ATOM      8  N   UNL A   1     -22.269   1.554  27.521  0.00  0.00    -0.084 NA
ATOM      9  O   UNL A   1     -23.622   3.220  27.033  0.00  0.00    -0.267 OA
ENDBRANCH   4   7
BRANCH   1  10
ATOM     10  C   UNL A   1     -28.016  -0.814  28.878  0.00  0.00    +0.234 C 
ATOM     11  O   UNL A   1     -29.213  -0.300  28.965  0.00  0.00    -0.283 OA
ENDBRANCH   1  10
TORSDOF 2
