REMARK  Name = No_2135-gen_results/8p0m/2024-11-27-11-27-31/
REMARK  2 active torsions:
REMARK  status: ('A' for Active; 'I' for Inactive)
REMARK    1  A    between atoms: C_2  and  C_7
REMARK    2  A    between atoms: C_7  and  C_8
REMARK                            x       y       z     vdW  Elec       q    Type
REMARK                         _______ _______ _______ _____ _____    ______ ____
ROOT
ATOM      1  C   UNL A   1     -25.891  -0.626  27.786  0.00  0.00    +0.053 C 
ENDROOT
BRANCH   1   3
ATOM      2  C   UNL A   1     -28.016  -0.814  28.878  0.00  0.00    -0.004 A 
ATOM      3  C   UNL A   1     -27.064  -0.119  28.608  0.00  0.00    -0.018 A 
ATOM      4  C   UNL A   1     -26.929   1.171  29.008  0.00  0.00    -0.004 A 
ATOM      5  C   UNL A   1     -27.956   1.741  29.784  0.00  0.00    -0.000 A 
ATOM      6  C   UNL A   1     -29.057  -0.327  29.747  0.00  0.00    -0.000 A 
ATOM      7  C   UNL A   1     -28.983   0.972  30.152  0.00  0.00    -0.000 A 
ENDBRANCH   1   3
BRANCH   1   8
ATOM      8  C   UNL A   1     -24.718  -1.061  28.613  0.00  0.00    -0.018 A 
ATOM      9  C   UNL A   1     -23.595  -0.283  28.812  0.00  0.00    -0.004 A 
ATOM     10  C   UNL A   1     -22.504  -0.806  29.551  0.00  0.00    -0.000 A 
ATOM     11  C   UNL A   1     -24.898  -2.186  29.450  0.00  0.00    -0.004 A 
ATOM     12  C   UNL A   1     -23.785  -2.659  30.184  0.00  0.00    -0.000 A 
ATOM     13  C   UNL A   1     -22.636  -1.917  30.282  0.00  0.00    -0.000 A 
ENDBRANCH   1   8
TORSDOF 2
