MODEL 2135
MODEL 1
REMARK VINA RESULT:    -6.401      0.000      0.000
REMARK INTER + INTRA:          -7.622
REMARK INTER:                  -7.149
REMARK INTRA:                  -0.472
REMARK UNBOUND:                -0.472
REMARK  Name = No_2135-gen_results/8p0m/2024-11-27-11-27-31/
REMARK  2 active torsions:
REMARK  status: ('A' for Active; 'I' for Inactive)
REMARK    1  A    between atoms: C_2  and  C_7
REMARK    2  A    between atoms: C_7  and  C_8
REMARK                            x       y       z     vdW  Elec       q    Type
REMARK                         _______ _______ _______ _____ _____    ______ ____
ROOT
ATOM      1  C   UNL A   1     -24.331  -1.213  29.509  0.00  0.00    +0.053 C 
ENDROOT
BRANCH   1   3
ATOM      2  C   UNL A   1     -23.844  -3.421  28.716  0.00  0.00    -0.004 A 
ATOM      3  C   UNL A   1     -24.617  -2.689  29.288  0.00  0.00    -0.018 A 
ATOM      4  C   UNL A   1     -25.808  -3.093  29.800  0.00  0.00    -0.004 A 
ATOM      5  C   UNL A   1     -26.170  -4.446  29.659  0.00  0.00    -0.000 A 
ATOM      6  C   UNL A   1     -24.106  -4.834  28.620  0.00  0.00    -0.000 A 
ATOM      7  C   UNL A   1     -25.302  -5.287  29.092  0.00  0.00    -0.000 A 
ENDBRANCH   1   3
BRANCH   1   8
ATOM      8  C   UNL A   1     -24.275  -0.413  28.242  0.00  0.00    -0.018 A 
ATOM      9  C   UNL A   1     -25.250  -0.460  27.266  0.00  0.00    -0.004 A 
ATOM     10  C   UNL A   1     -25.077   0.277  26.068  0.00  0.00    -0.000 A 
ATOM     11  C   UNL A   1     -23.333   0.640  28.183  0.00  0.00    -0.004 A 
ATOM     12  C   UNL A   1     -23.211   1.361  26.972  0.00  0.00    -0.000 A 
ATOM     13  C   UNL A   1     -24.135   1.220  25.969  0.00  0.00    -0.000 A 
ENDBRANCH   1   8
TORSDOF 2
ENDMDL
ENDMDL
