MODEL 2136
MODEL 1
REMARK VINA RESULT:    -6.491      0.000      0.000
REMARK INTER + INTRA:         -10.437
REMARK INTER:                  -8.008
REMARK INTRA:                  -2.429
REMARK UNBOUND:                -2.429
REMARK  Name = No_2136-gen_results/8p0m/2024-11-27-11-27-31/
REMARK  4 active torsions:
REMARK  status: ('A' for Active; 'I' for Inactive)
REMARK    1  A    between atoms: C_3  and  N_14
REMARK    2  A    between atoms: C_4  and  C_7
REMARK    3  A    between atoms: C_7  and  C_8
REMARK    4  A    between atoms: N_14  and  C_15
REMARK                            x       y       z     vdW  Elec       q    Type
REMARK                         _______ _______ _______ _____ _____    ______ ____
ROOT
ATOM      1  C   UNL A   1     -23.938  -2.865  28.943  0.00  0.00    +0.026 A 
ATOM      2  C   UNL A   1     -24.700  -3.551  29.183  0.00  0.00    +0.059 A 
ATOM      3  C   UNL A   1     -24.151  -1.470  29.360  0.00  0.00    +0.049 A 
ATOM      4  C   UNL A   1     -25.270  -1.119  30.170  0.00  0.00    -0.005 A 
ATOM      5  C   UNL A   1     -26.149  -2.134  30.455  0.00  0.00    -0.002 A 
ATOM      6  C   UNL A   1     -25.917  -3.392  30.024  0.00  0.00    +0.011 A 
ATOM      7 CL   UNL A   1     -24.418  -5.211  28.553  0.00  0.00    -0.082 Cl
ENDROOT
BRANCH   4   8
ATOM      8  C   UNL A   1     -25.477   0.252  30.600  0.00  0.00    +0.046 C 
ATOM      9  C   UNL A   1     -25.205   0.618  31.919  0.00  0.00    +0.009 C 
BRANCH   8  10
ATOM     10  C   UNL A   1     -26.272   1.062  29.760  0.00  0.00    -0.018 A 
ATOM     11  C   UNL A   1     -27.236   0.613  28.984  0.00  0.00    -0.004 A 
ATOM     12  C   UNL A   1     -27.808   1.402  27.943  0.00  0.00    -0.000 A 
ATOM     13  C   UNL A   1     -27.172   2.625  27.684  0.00  0.00    -0.000 A 
ATOM     14  C   UNL A   1     -25.809   2.420  29.409  0.00  0.00    -0.004 A 
ATOM     15  C   UNL A   1     -26.323   3.151  28.478  0.00  0.00    -0.000 A 
ENDBRANCH   8  10
ENDBRANCH   4   8
BRANCH   3  16
ATOM     16  N   UNL A   1     -23.287  -0.414  28.984  0.00  0.00    -0.285 N 
ATOM     17  C   UNL A   1     -21.994  -0.363  29.630  0.00  0.00    +0.117 C 
BRANCH  16  18
ATOM     18  C   UNL A   1     -23.391   0.286  27.807  0.00  0.00    +0.052 A 
ATOM     19  C   UNL A   1     -22.665   1.457  27.636  0.00  0.00    +0.015 A 
ATOM     20  C   UNL A   1     -24.415  -0.002  26.859  0.00  0.00    +0.015 A 
ATOM     21  C   UNL A   1     -24.619   0.814  25.774  0.00  0.00    +0.001 A 
ATOM     22  C   UNL A   1     -22.800   2.248  26.521  0.00  0.00    +0.001 A 
ATOM     23  C   UNL A   1     -23.793   1.903  25.594  0.00  0.00    +0.000 A 
ENDBRANCH  16  18
ENDBRANCH   3  16
TORSDOF 4
ENDMDL
ENDMDL
