REMARK  Name = outputs/IAG933/test6/raw/output_2138_IAG933_linker_design_.xyz
REMARK  9 active torsions:
REMARK  status: ('A' for Active; 'I' for Inactive)
REMARK    1  A    between atoms: C_1  and  C_2
REMARK    2  A    between atoms: C_1  and  C_8
REMARK    3  A    between atoms: C_1  and  O_38
REMARK    4  A    between atoms: C_21  and  O_22
REMARK    5  A    between atoms: O_22  and  C_23
REMARK    6  A    between atoms: C_23  and  C_24
REMARK    7  A    between atoms: C_31  and  C_42
REMARK    8  A    between atoms: C_32  and  C_37
REMARK    9  A    between atoms: O_38  and  C_41
REMARK                            x       y       z     vdW  Elec       q    Type
REMARK                         _______ _______ _______ _____ _____    ______ ____
ROOT
ATOM      1  C   UNL A   1     -25.688   1.614  26.461  0.00  0.00    +0.075 C 
ATOM      2  C   UNL A   1     -26.250   2.920  26.395  0.00  0.00    +0.053 C 
ATOM      3  C   UNL A   1     -25.642   4.093  27.123  0.00  0.00    +0.220 C 
ATOM      4  N   UNL A   1     -25.614   5.252  26.449  0.00  0.00    -0.236 NA
ATOM      5  C   UNL A   1     -25.026   6.479  26.963  0.00  0.00    +0.155 C 
ATOM      6  O   UNL A   1     -25.143   3.966  28.243  0.00  0.00    -0.431 OA
ATOM      7  C   UNL A   1     -27.438   3.091  25.645  0.00  0.00    +0.102 C 
ATOM      8  N   UNL A   1     -28.075   2.089  25.003  0.00  0.00    -0.212 NA
ATOM      9  C   UNL A   1     -27.543   0.849  25.079  0.00  0.00    +0.234 C 
ATOM     10  C   UNL A   1     -26.354   0.576  25.777  0.00  0.00    +0.240 C 
ATOM     11  F   UNL A   1     -25.860  -0.681  25.795  0.00  0.00    -0.227 F 
ATOM     12  O   UNL A   1     -24.715   2.273  29.704  0.00  0.00    -0.315 OA
ATOM     13  C   UNL A   1     -23.349   1.137  26.920  0.00  0.00    +0.160 C 
ATOM     14  C   UNL A   1     -24.195   1.510  28.750  0.00  0.00    +0.149 C 
ATOM     15  C   UNL A   1     -22.372   0.413  27.824  0.00  0.00    +0.093 C 
ATOM     16  O   UNL A   1     -23.282   1.056  25.440  0.00  0.00    -0.223 OA
ATOM     17  C   UNL A   1     -23.211   0.625  29.029  0.00  0.00    +0.148 C 
ATOM     18  C   UNL A   1     -25.333   3.453  29.549  0.00  0.00    +0.349 C 
ATOM     19  C   UNL A   1     -24.638   1.249  27.514  0.00  0.00    +0.068 C 
ENDROOT
BRANCH  18  20
ATOM     20  C   UNL A   1     -26.279   3.881  30.357  0.00  0.00    +0.193 C 
ATOM     21  C   UNL A   1     -28.242   4.566  31.254  0.00  0.00    +0.044 C 
ATOM     22  O   UNL A   1     -26.082   4.206  31.681  0.00  0.00    -0.448 OA
ATOM     23  C   UNL A   1     -27.306   4.563  32.249  0.00  0.00    +0.179 C 
ATOM     24  C   UNL A   1     -27.619   4.106  30.087  0.00  0.00    +0.043 C 
ENDBRANCH  18  20
BRANCH  15  26
ATOM     25  O   UNL A   1     -20.858   2.216  26.873  0.00  0.00    -0.220 OA
ATOM     26  C   UNL A   1     -21.113   1.321  27.930  0.00  0.00    +0.187 C 
ENDBRANCH  15  26
BRANCH   9  27
ATOM     27  O   UNL A   1     -28.193  -0.208  24.477  0.00  0.00    -0.459 OA
BRANCH  27  28
ATOM     28  C   UNL A   1     -29.460   0.005  23.866  0.00  0.00    +0.242 C 
BRANCH  28  29
ATOM     29  C   UNL A   1     -30.065  -1.377  23.573  0.00  0.00    +0.229 C 
ATOM     30  O   UNL A   1     -30.729  -1.878  24.721  0.00  0.00    -0.216 OA
ENDBRANCH  28  29
ENDBRANCH  27  28
ENDBRANCH   9  27
BRANCH  17  31
ATOM     31  O   UNL A   1     -23.714  -0.519  29.478  0.00  0.00    -0.350 OA
BRANCH  31  32
ATOM     32  C   UNL A   1     -24.855  -1.012  30.143  0.00  0.00    +0.153 C 
BRANCH  32  33
ATOM     33  C   UNL A   1     -24.973  -2.505  29.788  0.00  0.00    +0.006 C 
ATOM     34  C   UNL A   1     -23.906  -3.173  29.146  0.00  0.00    -0.002 C 
ATOM     35  C   UNL A   1     -23.989  -4.549  28.853  0.00  0.00    -0.000 C 
ATOM     36  C   UNL A   1     -25.137  -5.280  29.205  0.00  0.00    -0.000 C 
ATOM     37  C   UNL A   1     -26.232  -4.611  29.784  0.00  0.00    -0.000 C 
ATOM     38  C   UNL A   1     -26.155  -3.232  30.065  0.00  0.00    -0.002 C 
ENDBRANCH  32  33
BRANCH  32  39
ATOM     39  C   UNL A   1     -25.387  -0.679  31.571  0.00  0.00    +0.104 C 
ATOM     40  C   UNL A   1     -25.189   0.773  32.028  0.00  0.00    +0.022 C 
ATOM     41  C   UNL A   1     -25.336   0.684  33.544  0.00  0.00    +0.020 C 
ATOM     42  C   UNL A   1     -24.829  -0.715  33.905  0.00  0.00    +0.089 C 
ATOM     43  N   UNL A   1     -24.758  -1.481  32.646  0.00  0.00    -0.217 NA
ENDBRANCH  32  39
ENDBRANCH  31  32
ENDBRANCH  17  31
TORSDOF 9
