REMARK  Name = No_2139-gen_results/8p0m/2024-11-27-11-27-31/
REMARK  7 active torsions:
REMARK  status: ('A' for Active; 'I' for Inactive)
REMARK    1  A    between atoms: C_3  and  C_7
REMARK    2  A    between atoms: C_5  and  C_19
REMARK    3  A    between atoms: C_7  and  C_15
REMARK    4  A    between atoms: C_8  and  C_9
REMARK    5  A    between atoms: C_15  and  N_16
REMARK    6  A    between atoms: C_19  and  N_20
REMARK    7  A    between atoms: N_20  and  C_21
REMARK                            x       y       z     vdW  Elec       q    Type
REMARK                         _______ _______ _______ _____ _____    ______ ____
ROOT
ATOM      1  C   UNL A   1     -26.411   0.307  27.219  0.00  0.00    +0.027 C 
ATOM      2  C   UNL A   1     -25.012   0.334  27.320  0.00  0.00    -0.000 C 
ENDROOT
BRANCH   1   5
ATOM      3  C   UNL A   1     -28.016  -0.814  28.878  0.00  0.00    -0.000 A 
ATOM      4  C   UNL A   1     -28.469  -0.785  29.829  0.00  0.00    -0.000 A 
ATOM      5  C   UNL A   1     -27.136   0.236  28.535  0.00  0.00    -0.000 A 
ATOM      6  C   UNL A   1     -26.875   1.282  29.398  0.00  0.00    -0.003 A 
ATOM      7  C   UNL A   1     -27.507   1.238  30.630  0.00  0.00    -0.001 A 
ATOM      8  C   UNL A   1     -28.327   0.164  30.924  0.00  0.00    -0.003 A 
BRANCH   7   9
ATOM      9  C   UNL A   1     -27.285   2.312  31.647  0.00  0.00    +0.139 C 
BRANCH   9  10
ATOM     10  N   UNL A   1     -26.398   3.006  31.662  0.00  0.00    -0.232 NA
BRANCH  10  11
ATOM     11  C   UNL A   1     -26.172   4.103  31.687  0.00  0.00    +0.081 C 
ATOM     12  C   UNL A   1     -24.783   4.753  31.838  0.00  0.00    +0.019 C 
ENDBRANCH  10  11
ENDBRANCH   9  10
ENDBRANCH   7   9
ENDBRANCH   1   5
BRANCH   2  13
ATOM     13  C   UNL A   1     -24.324   0.147  28.502  0.00  0.00    -0.000 A 
ATOM     14  C   UNL A   1     -23.102   0.576  28.750  0.00  0.00    -0.000 A 
ATOM     15  C   UNL A   1     -22.354   0.221  29.931  0.00  0.00    -0.000 A 
ATOM     16  C   UNL A   1     -23.051  -0.431  30.939  0.00  0.00    -0.000 A 
ATOM     17  C   UNL A   1     -24.712  -0.557  29.787  0.00  0.00    -0.000 A 
ATOM     18  C   UNL A   1     -24.096  -0.903  30.835  0.00  0.00    -0.000 A 
ENDBRANCH   2  13
BRANCH   1  19
ATOM     19  C   UNL A   1     -27.122   0.412  26.044  0.00  0.00    +0.258 C 
ATOM     20  F   UNL A   1     -26.452   0.293  24.932  0.00  0.00    -0.213 F 
BRANCH  19  21
ATOM     21  N   UNL A   1     -28.305   0.646  25.936  0.00  0.00    -0.182 NA
ATOM     22  C   UNL A   1     -29.077   0.510  24.779  0.00  0.00    +0.111 C 
ENDBRANCH  19  21
ENDBRANCH   1  19
TORSDOF 7
