MODEL 213
MODEL 1
REMARK VINA RESULT:    -5.901      0.000      0.000
REMARK INTER + INTRA:         -12.721
REMARK INTER:                 -10.730
REMARK INTRA:                  -1.992
REMARK UNBOUND:                -1.992
REMARK  Name = No_213-gen_results/8p0m/2024-11-27-11-27-31/
REMARK  14 active torsions:
REMARK  status: ('A' for Active; 'I' for Inactive)
REMARK    1  A    between atoms: C_1  and  C_2
REMARK    2  A    between atoms: C_1  and  C_8
REMARK    3  A    between atoms: C_1  and  N_15
REMARK    4  A    between atoms: C_5  and  C_12
REMARK    5  A    between atoms: N_15  and  C_28
REMARK    6  A    between atoms: C_16  and  C_17
REMARK    7  A    between atoms: C_17  and  C_19
REMARK    8  A    between atoms: C_19  and  C_20
REMARK    9  A    between atoms: C_20  and  C_21
REMARK   10  A    between atoms: C_21  and  C_22
REMARK   11  A    between atoms: C_28  and  C_29
REMARK   12  A    between atoms: C_29  and  O_30
REMARK   13  A    between atoms: O_30  and  C_31
REMARK   14  A    between atoms: C_31  and  C_32
REMARK                            x       y       z     vdW  Elec       q    Type
REMARK                         _______ _______ _______ _____ _____    ______ ____
ROOT
ATOM      1  N   UNL A   1     -13.535   3.962  38.545  0.00  0.00    -0.267 N 
ATOM      2  C   UNL A   1     -13.263   3.821  39.936  0.00  0.00    +0.226 C 
ATOM      3  O   UNL A   1     -13.444   4.995  40.552  0.00  0.00    -0.275 OA
ENDROOT
BRANCH   1   4
ATOM      4  C   UNL A   1     -14.418   2.992  37.802  0.00  0.00    +0.194 C 
BRANCH   4   5
ATOM      5  C   UNL A   1     -13.805   2.615  36.830  0.00  0.00    +0.004 A 
ATOM      6  C   UNL A   1     -12.643   1.864  36.863  0.00  0.00    -0.002 A 
ATOM      7  C   UNL A   1     -11.848   1.469  35.724  0.00  0.00    +0.006 A 
ATOM      8  C   UNL A   1     -12.272   1.866  34.434  0.00  0.00    +0.080 A 
ATOM      9  C   UNL A   1     -13.459   2.636  34.330  0.00  0.00    +0.006 A 
ATOM     10  C   UNL A   1     -14.124   2.983  35.465  0.00  0.00    -0.002 A 
BRANCH   8  11
ATOM     11  C   UNL A   1     -11.565   1.439  33.243  0.00  0.00    +0.388 C 
ATOM     12  O   UNL A   1     -10.299   1.440  33.290  0.00  0.00    -0.241 OA
ATOM     13  O   UNL A   1     -12.215   0.957  32.238  0.00  0.00    -0.241 OA
ENDBRANCH   8  11
ENDBRANCH   4   5
BRANCH   4  14
ATOM     14  C   UNL A   1     -15.635   3.757  37.503  0.00  0.00    +0.418 C 
ATOM     15  F   UNL A   1     -16.383   3.048  36.718  0.00  0.00    -0.168 F 
ATOM     16  F   UNL A   1     -16.344   4.030  38.556  0.00  0.00    -0.168 F 
ATOM     17  F   UNL A   1     -15.329   4.844  36.854  0.00  0.00    -0.168 F 
ENDBRANCH   4  14
ENDBRANCH   1   4
BRANCH   2  18
ATOM     18  C   UNL A   1     -13.260   2.666  40.626  0.00  0.00    +0.085 C 
BRANCH  18  19
ATOM     19  C   UNL A   1     -11.698   2.217  40.394  0.00  0.00    +0.010 C 
BRANCH  19  20
ATOM     20  C   UNL A   1     -11.511   1.050  41.345  0.00  0.00    +0.005 C 
BRANCH  20  21
ATOM     21  C   UNL A   1     -10.614  -0.040  40.953  0.00  0.00    +0.026 C 
BRANCH  21  22
ATOM     22  C   UNL A   1     -10.939  -0.801  39.739  0.00  0.00    -0.022 A 
ATOM     23  C   UNL A   1     -12.061  -1.678  39.818  0.00  0.00    -0.004 A 
ATOM     24  C   UNL A   1     -12.307  -2.691  38.945  0.00  0.00    -0.000 A 
ATOM     25  C   UNL A   1     -11.692  -2.642  37.649  0.00  0.00    -0.000 A 
ATOM     26  C   UNL A   1     -10.776  -1.564  37.403  0.00  0.00    -0.000 A 
ATOM     27  C   UNL A   1     -10.387  -0.734  38.485  0.00  0.00    -0.004 A 
ENDBRANCH  21  22
ENDBRANCH  20  21
ENDBRANCH  19  20
ENDBRANCH  18  19
ENDBRANCH   2  18
BRANCH   1  28
ATOM     28  C   UNL A   1     -12.993   5.161  37.935  0.00  0.00    +0.126 C 
BRANCH  28  29
ATOM     29  C   UNL A   1     -11.787   5.261  37.771  0.00  0.00    +0.164 C 
BRANCH  29  30
ATOM     30  O   UNL A   1     -11.459   5.194  36.419  0.00  0.00    -0.343 OA
BRANCH  30  31
ATOM     31  C   UNL A   1     -10.200   4.651  36.082  0.00  0.00    +0.229 C 
BRANCH  31  32
ATOM     32  C   UNL A   1      -9.842   4.931  34.793  0.00  0.00    +0.272 C 
ATOM     33  O   UNL A   1     -10.462   4.787  34.000  0.00  0.00    -0.271 OA
ATOM     34  N   UNL A   1      -8.443   5.124  34.699  0.00  0.00    -0.201 NA
ATOM     35  C   UNL A   1      -7.893   5.675  33.459  0.00  0.00    +0.139 C 
ENDBRANCH  31  32
ENDBRANCH  30  31
ENDBRANCH  29  30
ENDBRANCH  28  29
ENDBRANCH   1  28
TORSDOF 14
ENDMDL
ENDMDL
