MODEL 2140
MODEL 1
REMARK VINA RESULT:    -4.622      0.000      0.000
REMARK INTER + INTRA:          -4.919
REMARK INTER:                  -4.893
REMARK INTRA:                  -0.026
REMARK UNBOUND:                -0.026
REMARK  Name = No_2140-gen_results/8p0m/2024-11-27-11-27-31/
REMARK  1 active torsions:
REMARK  status: ('A' for Active; 'I' for Inactive)
REMARK    1  A    between atoms: C_2  and  O_7
REMARK                            x       y       z     vdW  Elec       q    Type
REMARK                         _______ _______ _______ _____ _____    ______ ____
ROOT
ATOM      1  C   UNL A   1     -25.169  -2.469  29.541  0.00  0.00    +0.037 A 
ATOM      2  C   UNL A   1     -24.170  -2.979  29.090  0.00  0.00    +0.139 A 
ATOM      3  C   UNL A   1     -24.111  -4.346  28.841  0.00  0.00    +0.037 A 
ATOM      4  C   UNL A   1     -25.223  -5.205  29.156  0.00  0.00    +0.003 A 
ATOM      5  C   UNL A   1     -26.329  -4.536  29.696  0.00  0.00    +0.000 A 
ATOM      6  C   UNL A   1     -26.328  -3.244  29.928  0.00  0.00    +0.003 A 
ENDROOT
BRANCH   2   7
ATOM      7  O   UNL A   1     -23.015  -2.301  28.794  0.00  0.00    -0.471 OA
ATOM      8  C   UNL A   1     -22.809  -1.084  29.312  0.00  0.00    +0.253 C 
ENDBRANCH   2   7
TORSDOF 1
ENDMDL
ENDMDL
