MODEL 2141
MODEL 1
REMARK VINA RESULT:    -4.269      0.000      0.000
REMARK INTER + INTRA:          -4.269
REMARK INTER:                  -4.269
REMARK INTRA:                   0.000
REMARK UNBOUND:                 0.000
REMARK  Name = No_2141-gen_results/8p0m/2024-11-27-11-27-31/
REMARK  0 active torsions:
REMARK  status: ('A' for Active; 'I' for Inactive)
REMARK                            x       y       z     vdW  Elec       q    Type
REMARK                         _______ _______ _______ _____ _____    ______ ____
ROOT
ATOM      1  C   UNL A   1     -26.067  -4.793  29.668  0.00  0.00    +0.000 A 
ATOM      2  C   UNL A   1     -26.204  -3.592  29.716  0.00  0.00    +0.000 A 
ATOM      3  C   UNL A   1     -25.233  -2.696  29.315  0.00  0.00    +0.000 A 
ATOM      4  C   UNL A   1     -24.022  -3.219  28.781  0.00  0.00    +0.000 A 
ATOM      5  C   UNL A   1     -23.985  -4.558  28.590  0.00  0.00    +0.000 A 
ATOM      6  C   UNL A   1     -24.981  -5.337  28.968  0.00  0.00    +0.000 A 
ENDROOT
TORSDOF 0
ENDMDL
ENDMDL
