MODEL 2142
MODEL 1
REMARK VINA RESULT:    -6.479      0.000      0.000
REMARK INTER + INTRA:          -7.242
REMARK INTER:                  -6.857
REMARK INTRA:                  -0.385
REMARK UNBOUND:                -0.385
REMARK  Name = No_2142-gen_results/8p0m/2024-11-27-11-27-31/
REMARK  1 active torsions:
REMARK  status: ('A' for Active; 'I' for Inactive)
REMARK    1  A    between atoms: C_3  and  C_7
REMARK                            x       y       z     vdW  Elec       q    Type
REMARK                         _______ _______ _______ _____ _____    ______ ____
ROOT
ATOM      1  C   UNL A   1     -25.874  -2.595  29.674  0.00  0.00    +0.000 A 
ATOM      2  C   UNL A   1     -26.259  -3.561  29.841  0.00  0.00    +0.000 A 
ATOM      3  C   UNL A   1     -24.587  -2.589  28.980  0.00  0.00    +0.000 A 
ATOM      4  C   UNL A   1     -23.970  -3.747  28.576  0.00  0.00    +0.000 A 
ATOM      5  C   UNL A   1     -25.842  -4.929  29.531  0.00  0.00    +0.000 A 
ATOM      6  C   UNL A   1     -24.597  -4.934  28.858  0.00  0.00    +0.000 A 
ENDROOT
BRANCH   3   7
ATOM      7  C   UNL A   1     -23.902  -1.315  28.617  0.00  0.00    +0.000 A 
ATOM      8  C   UNL A   1     -22.610  -1.186  29.115  0.00  0.00    +0.000 A 
ATOM      9  C   UNL A   1     -24.477  -0.353  27.820  0.00  0.00    +0.000 A 
ATOM     10  C   UNL A   1     -23.704   0.664  27.318  0.00  0.00    +0.000 A 
ATOM     11  C   UNL A   1     -21.913   0.039  28.868  0.00  0.00    +0.000 A 
ATOM     12  C   UNL A   1     -22.486   0.918  27.939  0.00  0.00    +0.000 A 
ENDBRANCH   3   7
TORSDOF 1
ENDMDL
ENDMDL
