MODEL 2143
MODEL 1
REMARK VINA RESULT:    -6.446      0.000      0.000
REMARK INTER + INTRA:          -7.753
REMARK INTER:                  -7.200
REMARK INTRA:                  -0.553
REMARK UNBOUND:                -0.553
REMARK  Name = No_2143-gen_results/8p0m/2024-11-27-11-27-31/
REMARK  2 active torsions:
REMARK  status: ('A' for Active; 'I' for Inactive)
REMARK    1  A    between atoms: C_4  and  C_7
REMARK    2  A    between atoms: C_7  and  C_8
REMARK                            x       y       z     vdW  Elec       q    Type
REMARK                         _______ _______ _______ _____ _____    ______ ____
ROOT
ATOM      1  C   UNL A   1     -26.263  -4.483  29.667  0.00  0.00    +0.029 A 
ATOM      2  C   UNL A   1     -25.502  -5.062  29.227  0.00  0.00    +0.002 A 
ATOM      3  C   UNL A   1     -25.948  -3.069  29.929  0.00  0.00    +0.137 A 
ATOM      4  C   UNL A   1     -24.722  -2.504  29.472  0.00  0.00    +0.010 A 
ATOM      5  C   UNL A   1     -23.851  -3.370  28.859  0.00  0.00    -0.002 A 
ATOM      6  C   UNL A   1     -24.182  -4.665  28.668  0.00  0.00    -0.000 A 
ATOM      7  F   UNL A   1     -26.769  -2.223  30.543  0.00  0.00    -0.204 F 
ENDROOT
BRANCH   4   8
ATOM      8  C   UNL A   1     -24.403  -1.118  29.702  0.00  0.00    +0.055 C 
BRANCH   8   9
ATOM      9  C   UNL A   1     -24.163  -0.352  28.543  0.00  0.00    -0.018 A 
ATOM     10  C   UNL A   1     -25.073  -0.374  27.454  0.00  0.00    -0.004 A 
ATOM     11  C   UNL A   1     -24.954   0.484  26.369  0.00  0.00    -0.000 A 
ATOM     12  C   UNL A   1     -22.950   0.419  28.339  0.00  0.00    -0.004 A 
ATOM     13  C   UNL A   1     -22.858   1.372  27.311  0.00  0.00    -0.000 A 
ATOM     14  C   UNL A   1     -23.851   1.366  26.302  0.00  0.00    -0.000 A 
ENDBRANCH   8   9
ENDBRANCH   4   8
TORSDOF 2
ENDMDL
ENDMDL
