REMARK  Name = outputs/IAG933/test6/raw/output_2145_IAG933_linker_design_.xyz
REMARK  13 active torsions:
REMARK  status: ('A' for Active; 'I' for Inactive)
REMARK    1  A    between atoms: C_1  and  C_2
REMARK    2  A    between atoms: C_1  and  C_8
REMARK    3  A    between atoms: C_1  and  N_40
REMARK    4  A    between atoms: C_13  and  C_30
REMARK    5  A    between atoms: C_14  and  C_15
REMARK    6  A    between atoms: C_21  and  O_22
REMARK    7  A    between atoms: O_22  and  C_23
REMARK    8  A    between atoms: C_23  and  C_24
REMARK    9  A    between atoms: N_28  and  N_40
REMARK   10  A    between atoms: N_28  and  C_41
REMARK   11  A    between atoms: C_29  and  O_38
REMARK   12  A    between atoms: C_37  and  C_41
REMARK   13  A    between atoms: C_39  and  N_40
REMARK                            x       y       z     vdW  Elec       q    Type
REMARK                         _______ _______ _______ _____ _____    ______ ____
ROOT
ATOM      1  C   UNL A   1     -22.750   0.565  28.378  0.00  0.00    +0.183 C 
ATOM      2  C   UNL A   1     -24.537   1.341  27.012  0.00  0.00    +0.022 C 
ATOM      3  C   UNL A   1     -22.388   1.880  26.362  0.00  0.00    +0.171 C 
ATOM      4  C   UNL A   1     -21.883   1.284  27.497  0.00  0.00    +0.202 C 
ATOM      5  C   UNL A   1     -23.722   1.980  26.195  0.00  0.00    +0.034 C 
ATOM      6  F   UNL A   1     -20.505   1.432  27.585  0.00  0.00    -0.199 F 
ATOM      7  C   UNL A   1     -24.158   0.619  28.170  0.00  0.00    +0.100 C 
ATOM      8  F   UNL A   1     -21.823   2.370  25.294  0.00  0.00    -0.202 F 
ENDROOT
BRANCH   2   9
ATOM      9  C   UNL A   1     -25.688   1.614  26.461  0.00  0.00    +0.040 C 
ATOM     10  C   UNL A   1     -26.250   2.920  26.395  0.00  0.00    +0.077 C 
ATOM     11  C   UNL A   1     -27.438   3.091  25.645  0.00  0.00    +0.107 C 
ATOM     12  N   UNL A   1     -28.075   2.089  25.003  0.00  0.00    -0.208 NA
ATOM     13  C   UNL A   1     -27.543   0.849  25.079  0.00  0.00    +0.253 C 
ATOM     14  C   UNL A   1     -26.354   0.576  25.777  0.00  0.00    +0.193 C 
ATOM     15  F   UNL A   1     -25.860  -0.681  25.795  0.00  0.00    -0.199 F 
BRANCH  10  16
ATOM     16  C   UNL A   1     -25.642   4.093  27.123  0.00  0.00    +0.266 C 
ATOM     17  N   UNL A   1     -25.614   5.252  26.449  0.00  0.00    -0.200 NA
ATOM     18  C   UNL A   1     -25.026   6.479  26.963  0.00  0.00    +0.139 C 
ATOM     19  O   UNL A   1     -25.143   3.966  28.243  0.00  0.00    -0.268 OA
ENDBRANCH  10  16
BRANCH  13  20
ATOM     20  O   UNL A   1     -28.193  -0.208  24.477  0.00  0.00    -0.456 OA
BRANCH  20  21
ATOM     21  C   UNL A   1     -29.460   0.005  23.866  0.00  0.00    +0.243 C 
BRANCH  21  22
ATOM     22  C   UNL A   1     -30.065  -1.377  23.573  0.00  0.00    +0.229 C 
ATOM     23  O   UNL A   1     -30.729  -1.878  24.721  0.00  0.00    -0.216 OA
ENDBRANCH  21  22
ENDBRANCH  20  21
ENDBRANCH  13  20
ENDBRANCH   2   9
BRANCH   1  25
ATOM     24  C   UNL A   1     -20.901  -0.598  29.212  0.00  0.00    +0.253 C 
ATOM     25  O   UNL A   1     -22.155  -0.250  29.421  0.00  0.00    -0.468 OA
ENDBRANCH   1  25
BRANCH   7  26
ATOM     26  N   UNL A   1     -25.176  -0.039  29.048  0.00  0.00    -0.229 N 
BRANCH  26  27
ATOM     27  C   UNL A   1     -24.855  -1.012  30.143  0.00  0.00    +0.129 C 
BRANCH  27  28
ATOM     28  C   UNL A   1     -24.973  -2.505  29.788  0.00  0.00    -0.002 C 
ATOM     29  C   UNL A   1     -23.906  -3.173  29.146  0.00  0.00    -0.003 C 
ATOM     30  C   UNL A   1     -23.989  -4.549  28.853  0.00  0.00    -0.000 C 
ATOM     31  C   UNL A   1     -25.137  -5.280  29.205  0.00  0.00    -0.000 C 
ATOM     32  C   UNL A   1     -26.232  -4.611  29.784  0.00  0.00    -0.000 C 
ATOM     33  C   UNL A   1     -26.155  -3.232  30.065  0.00  0.00    -0.003 C 
ENDBRANCH  27  28
BRANCH  27  34
ATOM     34  C   UNL A   1     -25.387  -0.679  31.571  0.00  0.00    +0.097 C 
ATOM     35  C   UNL A   1     -25.189   0.773  32.028  0.00  0.00    +0.021 C 
ATOM     36  C   UNL A   1     -25.336   0.684  33.544  0.00  0.00    +0.020 C 
ATOM     37  C   UNL A   1     -24.829  -0.715  33.905  0.00  0.00    +0.089 C 
ATOM     38  N   UNL A   1     -24.758  -1.481  32.646  0.00  0.00    -0.217 NA
ENDBRANCH  27  34
ENDBRANCH  26  27
BRANCH  26  39
ATOM     39  N   UNL A   1     -26.463   0.302  29.233  0.00  0.00    -0.117 NA
BRANCH  39  40
ATOM     40  C   UNL A   1     -27.836  -0.261  28.893  0.00  0.00    +0.225 C 
BRANCH  40  42
ATOM     41  O   UNL A   1     -28.391   2.027  29.024  0.00  0.00    -0.244 OA
ATOM     42  C   UNL A   1     -28.681   0.907  28.524  0.00  0.00    +0.384 C 
ATOM     43  O   UNL A   1     -29.566   0.686  27.643  0.00  0.00    -0.244 OA
ENDBRANCH  40  42
ENDBRANCH  39  40
ENDBRANCH  26  39
ENDBRANCH   7  26
TORSDOF 13
