MODEL 2145
MODEL 1
REMARK VINA RESULT:    -6.587      0.000      0.000
REMARK INTER + INTRA:          -7.687
REMARK INTER:                  -7.357
REMARK INTRA:                  -0.330
REMARK UNBOUND:                -0.330
REMARK  Name = No_2145-gen_results/8p0m/2024-11-27-11-27-31/
REMARK  2 active torsions:
REMARK  status: ('A' for Active; 'I' for Inactive)
REMARK    1  A    between atoms: C_3  and  C_4
REMARK    2  A    between atoms: C_4  and  C_8
REMARK                            x       y       z     vdW  Elec       q    Type
REMARK                         _______ _______ _______ _____ _____    ______ ____
ROOT
ATOM      1  C   UNL A   1     -23.282  -1.681  29.268  0.00  0.00    +0.053 C 
ENDROOT
BRANCH   1   4
ATOM      2  C   UNL A   1     -24.429  -0.158  27.469  0.00  0.00    -0.004 A 
ATOM      3  C   UNL A   1     -24.257   0.674  26.846  0.00  0.00    -0.000 A 
ATOM      4  C   UNL A   1     -23.356  -0.506  28.415  0.00  0.00    -0.018 A 
ATOM      5  C   UNL A   1     -23.207   1.720  26.869  0.00  0.00    -0.000 A 
ATOM      6  C   UNL A   1     -22.156   1.468  27.745  0.00  0.00    -0.000 A 
ATOM      7  C   UNL A   1     -22.187   0.367  28.574  0.00  0.00    -0.004 A 
ENDBRANCH   1   4
BRANCH   1   8
ATOM      8  C   UNL A   1     -24.336  -2.601  29.276  0.00  0.00    -0.018 A 
ATOM      9  C   UNL A   1     -24.132  -3.897  28.812  0.00  0.00    -0.004 A 
ATOM     10  C   UNL A   1     -25.594  -2.253  29.785  0.00  0.00    -0.004 A 
ATOM     11  C   UNL A   1     -26.547  -3.280  29.975  0.00  0.00    -0.000 A 
ATOM     12  C   UNL A   1     -26.287  -4.559  29.574  0.00  0.00    -0.000 A 
ATOM     13  C   UNL A   1     -25.042  -4.876  29.081  0.00  0.00    -0.000 A 
ENDBRANCH   1   8
TORSDOF 2
ENDMDL
ENDMDL
