MODEL 2146
MODEL 1
REMARK VINA RESULT:    -7.680      0.000      0.000
REMARK INTER + INTRA:          -8.955
REMARK INTER:                  -8.578
REMARK INTRA:                  -0.377
REMARK UNBOUND:                -0.377
REMARK  Name = No_2146-gen_results/8p0m/2024-11-27-11-27-31/
REMARK  2 active torsions:
REMARK  status: ('A' for Active; 'I' for Inactive)
REMARK    1  A    between atoms: C_1  and  C_3
REMARK    2  A    between atoms: C_21  and  C_25
REMARK                            x       y       z     vdW  Elec       q    Type
REMARK                         _______ _______ _______ _____ _____    ______ ____
ROOT
ATOM      1  C   UNL A   1      -9.230  -0.038  38.464  0.00  0.00    +0.018 A 
ATOM      2  C   UNL A   1      -8.899   0.420  39.353  0.00  0.00    +0.013 A 
ATOM      3  C   UNL A   1      -7.582   1.323  39.433  0.00  0.00    +0.060 A 
ATOM      4  C   UNL A   1      -6.960   1.440  38.178  0.00  0.00    +0.044 A 
ATOM      5  C   UNL A   1      -7.572   1.052  37.036  0.00  0.00    +0.128 A 
ATOM      6  C   UNL A   1      -8.819   0.462  37.131  0.00  0.00    +0.097 A 
ATOM      7  N   UNL A   1      -7.042   1.439  35.836  0.00  0.00    -0.173 N 
ATOM      8  C   UNL A   1      -7.730   2.149  34.821  0.00  0.00    +0.378 C 
ATOM      9  C   UNL A   1      -5.654   1.383  35.583  0.00  0.00    +0.219 C 
ATOM     10  N   UNL A   1      -7.031   2.434  33.728  0.00  0.00    -0.097 NA
ATOM     11  C   UNL A   1      -5.735   1.884  34.192  0.00  0.00    +0.260 C 
ATOM     12  N   UNL A   1      -9.042   2.429  34.771  0.00  0.00    -0.183 N 
ATOM     13  C   UNL A   1      -9.585   3.677  34.589  0.00  0.00    +0.170 C 
ATOM     14  C   UNL A   1     -11.083   3.713  34.629  0.00  0.00    +0.052 C 
ATOM     15  C   UNL A   1     -11.771   2.533  35.002  0.00  0.00    +0.112 C 
ATOM     16  C   UNL A   1     -11.092   1.312  35.146  0.00  0.00    +0.072 C 
ATOM     17  C   UNL A   1      -9.804   1.335  35.099  0.00  0.00    +0.229 C 
ATOM     18  N   UNL A   1      -9.273   0.491  36.178  0.00  0.00    -0.202 NA
ATOM     19 CL   UNL A   1      -7.036   1.944  40.729  0.00  0.00    -0.082 Cl
ENDROOT
BRANCH   1  20
ATOM     20  C   UNL A   1     -10.484  -0.733  38.538  0.00  0.00    +0.001 A 
ATOM     21  C   UNL A   1     -10.872  -1.711  37.500  0.00  0.00    +0.000 A 
ATOM     22  C   UNL A   1     -11.799  -2.666  37.709  0.00  0.00    +0.000 A 
ATOM     23  C   UNL A   1     -12.528  -2.766  38.917  0.00  0.00    +0.000 A 
ATOM     24  C   UNL A   1     -11.198  -1.015  39.740  0.00  0.00    +0.000 A 
ATOM     25  C   UNL A   1     -12.225  -1.906  39.902  0.00  0.00    +0.000 A 
ENDBRANCH   1  20
BRANCH  15  26
ATOM     26  C   UNL A   1     -13.286   2.619  34.834  0.00  0.00    +0.365 C 
ATOM     27  O   UNL A   1     -13.775   2.759  33.671  0.00  0.00    -0.246 OA
ATOM     28  O   UNL A   1     -14.065   2.585  35.867  0.00  0.00    -0.246 OA
ENDBRANCH  15  26
TORSDOF 2
ENDMDL
ENDMDL
