MODEL 2147
MODEL 1
REMARK VINA RESULT:    -6.311      0.000      0.000
REMARK INTER + INTRA:          -6.907
REMARK INTER:                  -6.680
REMARK INTRA:                  -0.226
REMARK UNBOUND:                -0.226
REMARK  Name = No_2147-gen_results/8p0m/2024-11-27-11-27-31/
REMARK  1 active torsions:
REMARK  status: ('A' for Active; 'I' for Inactive)
REMARK    1  A    between atoms: C_1  and  C_2
REMARK                            x       y       z     vdW  Elec       q    Type
REMARK                         _______ _______ _______ _____ _____    ______ ____
ROOT
ATOM      1  C   UNL A   1     -23.141   1.825  26.457  0.00  0.00    +0.073 A 
ATOM      2  C   UNL A   1     -22.148   1.532  27.391  0.00  0.00    +0.169 A 
ATOM      3  C   UNL A   1     -22.145   0.431  28.374  0.00  0.00    +0.171 A 
ATOM      4  C   UNL A   1     -23.376  -0.281  28.513  0.00  0.00    +0.076 A 
ATOM      5  C   UNL A   1     -24.416   0.013  27.625  0.00  0.00    +0.007 A 
ATOM      6  C   UNL A   1     -24.336   0.981  26.685  0.00  0.00    +0.004 A 
ATOM      7  C   UNL A   1     -23.221  -1.167  29.660  0.00  0.00    +0.225 A 
ATOM      8  N   UNL A   1     -24.230  -1.961  29.987  0.00  0.00    -0.216 NA
ATOM      9  F   UNL A   1     -22.259  -1.288  30.372  0.00  0.00    -0.183 F 
ATOM     10  F   UNL A   1     -20.988   2.164  27.385  0.00  0.00    -0.202 F 
ATOM     11  C   UNL A   1     -25.660  -0.779  27.826  0.00  0.00    +0.021 A 
ATOM     12  C   UNL A   1     -25.462  -1.853  29.054  0.00  0.00    +0.101 A 
ATOM     13  F   UNL A   1     -21.136   0.339  29.106  0.00  0.00    -0.202 F 
ENDROOT
BRANCH   1  14
ATOM     14  C   UNL A   1     -23.071   2.742  25.672  0.00  0.00    +0.343 C 
ATOM     15  F   UNL A   1     -24.146   3.212  25.335  0.00  0.00    -0.193 F 
ATOM     16  F   UNL A   1     -22.393   2.288  24.494  0.00  0.00    -0.193 F 
ENDBRANCH   1  14
TORSDOF 1
ENDMDL
ENDMDL
