REMARK  Name = No_2147-gen_results/8p0m/2024-11-27-11-27-31/
REMARK  1 active torsions:
REMARK  status: ('A' for Active; 'I' for Inactive)
REMARK    1  A    between atoms: C_1  and  C_2
REMARK                            x       y       z     vdW  Elec       q    Type
REMARK                         _______ _______ _______ _____ _____    ______ ____
ROOT
ATOM      1  C   UNL A   1     -27.064  -0.119  28.608  0.00  0.00    +0.073 A 
ATOM      2  C   UNL A   1     -25.765  -0.390  29.036  0.00  0.00    +0.169 A 
ATOM      3  C   UNL A   1     -24.552   0.406  28.765  0.00  0.00    +0.171 A 
ATOM      4  C   UNL A   1     -24.696   1.448  27.799  0.00  0.00    +0.076 A 
ATOM      5  C   UNL A   1     -25.976   1.725  27.308  0.00  0.00    +0.007 A 
ATOM      6  C   UNL A   1     -27.072   1.013  27.654  0.00  0.00    +0.004 A 
ATOM      7  C   UNL A   1     -23.358   1.961  27.532  0.00  0.00    +0.225 A 
ATOM      8  N   UNL A   1     -23.224   2.962  26.675  0.00  0.00    -0.216 NA
ATOM      9  F   UNL A   1     -22.319   1.590  28.011  0.00  0.00    -0.183 F 
ATOM     10  F   UNL A   1     -25.510  -1.364  29.892  0.00  0.00    -0.202 F 
ATOM     11  C   UNL A   1     -26.046   2.832  26.315  0.00  0.00    +0.021 A 
ATOM     12  C   UNL A   1     -24.556   3.485  26.081  0.00  0.00    +0.101 A 
ATOM     13  F   UNL A   1     -23.486  -0.012  29.268  0.00  0.00    -0.202 F 
ENDROOT
BRANCH   1  14
ATOM     14  C   UNL A   1     -28.016  -0.814  28.878  0.00  0.00    +0.343 C 
ATOM     15  F   UNL A   1     -29.030  -0.563  28.246  0.00  0.00    -0.193 F 
ATOM     16  F   UNL A   1     -28.311  -0.668  30.272  0.00  0.00    -0.193 F 
ENDBRANCH   1  14
TORSDOF 1
