MODEL 2148
MODEL 1
REMARK VINA RESULT:    -6.643      0.000      0.000
REMARK INTER + INTRA:          -9.295
REMARK INTER:                  -8.585
REMARK INTRA:                  -0.710
REMARK UNBOUND:                -0.710
REMARK  Name = No_2148-gen_results/8p0m/2024-11-27-11-27-31/
REMARK  5 active torsions:
REMARK  status: ('A' for Active; 'I' for Inactive)
REMARK    1  A    between atoms: C_6  and  O_8
REMARK    2  A    between atoms: O_8  and  C_9
REMARK    3  A    between atoms: C_9  and  C_10
REMARK    4  A    between atoms: C_10  and  C_11
REMARK    5  A    between atoms: C_11  and  C_12
REMARK                            x       y       z     vdW  Elec       q    Type
REMARK                         _______ _______ _______ _____ _____    ______ ____
ROOT
ATOM      1  C   UNL A   1     -23.548   0.630  29.591  0.00  0.00    +0.206 C 
ENDROOT
BRANCH   1   2
ATOM      2  O   UNL A   1     -22.620   1.264  28.782  0.00  0.00    -0.475 OA
BRANCH   2   8
ATOM      3  C   UNL A   1     -24.299   2.575  27.708  0.00  0.00    +0.048 A 
ATOM      4  C   UNL A   1     -24.725   3.235  26.789  0.00  0.00    +0.061 A 
ATOM      5  C   UNL A   1     -24.064   3.274  25.566  0.00  0.00    +0.012 A 
ATOM      6  C   UNL A   1     -22.826   2.565  25.370  0.00  0.00    +0.004 A 
ATOM      7  C   UNL A   1     -22.393   1.846  26.492  0.00  0.00    +0.037 A 
ATOM      8  C   UNL A   1     -23.046   1.856  27.632  0.00  0.00    +0.139 A 
ATOM      9 CL   UNL A   1     -26.153   4.177  26.861  0.00  0.00    -0.082 Cl
ENDBRANCH   2   8
ENDBRANCH   1   2
BRANCH   1  10
ATOM     10  C   UNL A   1     -23.431  -0.828  29.439  0.00  0.00    +0.052 C 
BRANCH  10  11
ATOM     11  C   UNL A   1     -24.576  -1.452  29.754  0.00  0.00    +0.026 C 
ATOM     12  C   UNL A   1     -24.687  -1.304  31.374  0.00  0.00    +0.005 C 
BRANCH  11  13
ATOM     13  C   UNL A   1     -24.788  -2.458  29.459  0.00  0.00    -0.022 A 
ATOM     14  C   UNL A   1     -23.883  -3.494  28.849  0.00  0.00    -0.004 A 
ATOM     15  C   UNL A   1     -24.193  -4.817  28.607  0.00  0.00    -0.000 A 
ATOM     16  C   UNL A   1     -25.114  -5.248  28.980  0.00  0.00    -0.000 A 
ATOM     17  C   UNL A   1     -26.225  -4.567  29.667  0.00  0.00    -0.000 A 
ATOM     18  C   UNL A   1     -25.985  -3.220  29.919  0.00  0.00    -0.004 A 
ENDBRANCH  11  13
ENDBRANCH  10  11
ENDBRANCH   1  10
TORSDOF 5
ENDMDL
ENDMDL
