MODEL 214
MODEL 1
REMARK VINA RESULT:    -5.186      0.000      0.000
REMARK INTER + INTRA:          -5.986
REMARK INTER:                  -5.792
REMARK INTRA:                  -0.194
REMARK UNBOUND:                -0.194
REMARK  Name = No_214-gen_results/8p0m/2024-11-27-11-27-31/
REMARK  2 active torsions:
REMARK  status: ('A' for Active; 'I' for Inactive)
REMARK    1  A    between atoms: C_3  and  C_4
REMARK    2  A    between atoms: C_4  and  C_9
REMARK                            x       y       z     vdW  Elec       q    Type
REMARK                         _______ _______ _______ _____ _____    ______ ____
ROOT
ATOM      1  C   UNL A   1     -26.041  -3.165  29.755  0.00  0.00    +0.001 A 
ATOM      2  C   UNL A   1     -26.129  -4.214  29.698  0.00  0.00    +0.000 A 
ATOM      3  C   UNL A   1     -24.804  -2.648  29.170  0.00  0.00    +0.013 A 
ATOM      4  C   UNL A   1     -25.301  -5.289  29.168  0.00  0.00    +0.000 A 
ATOM      5  C   UNL A   1     -24.117  -4.841  28.618  0.00  0.00    +0.000 A 
ATOM      6  C   UNL A   1     -23.867  -3.521  28.559  0.00  0.00    +0.001 A 
ENDROOT
BRANCH   3   7
ATOM      7  C   UNL A   1     -24.499  -1.206  29.036  0.00  0.00    +0.054 C 
ATOM      8  N   UNL A   1     -24.014  -0.571  29.742  0.00  0.00    -0.273 NA
ATOM      9  C   UNL A   1     -23.530  -1.101  31.088  0.00  0.00    +0.151 C 
BRANCH   7  10
ATOM     10  C   UNL A   1     -24.975  -0.590  27.748  0.00  0.00    +0.045 C 
ATOM     11  C   UNL A   1     -24.013   0.333  27.363  0.00  0.00    +0.007 C 
ENDBRANCH   7  10
ENDBRANCH   3   7
TORSDOF 2
ENDMDL
ENDMDL
