MODEL 2150
MODEL 1
REMARK VINA RESULT:    -4.833      0.000      0.000
REMARK INTER + INTRA:          -5.482
REMARK INTER:                  -5.398
REMARK INTRA:                  -0.083
REMARK UNBOUND:                -0.083
REMARK  Name = No_2150-gen_results/8p0m/2024-11-27-11-27-31/
REMARK  2 active torsions:
REMARK  status: ('A' for Active; 'I' for Inactive)
REMARK    1  A    between atoms: C_4  and  C_8
REMARK    2  A    between atoms: C_8  and  N_9
REMARK                            x       y       z     vdW  Elec       q    Type
REMARK                         _______ _______ _______ _____ _____    ______ ____
ROOT
ATOM      1  C   UNL A   1     -23.955  -4.498  28.568  0.00  0.00    +0.029 A 
ATOM      2  C   UNL A   1     -24.870  -4.949  28.832  0.00  0.00    +0.140 A 
ATOM      3  C   UNL A   1     -23.835  -3.028  28.901  0.00  0.00    -0.000 A 
ATOM      4  C   UNL A   1     -24.855  -2.403  29.650  0.00  0.00    +0.002 A 
ATOM      5  C   UNL A   1     -26.051  -4.545  29.628  0.00  0.00    +0.029 A 
ATOM      6  C   UNL A   1     -25.973  -3.200  29.959  0.00  0.00    -0.000 A 
ATOM      7  F   UNL A   1     -24.975  -6.363  28.521  0.00  0.00    -0.204 F 
ENDROOT
BRANCH   4   8
ATOM      8  C   UNL A   1     -24.784  -1.009  29.967  0.00  0.00    +0.152 C 
BRANCH   8   9
ATOM      9  N   UNL A   1     -23.620  -0.654  30.745  0.00  0.00    -0.263 NA
ATOM     10  C   UNL A   1     -23.503  -1.130  32.021  0.00  0.00    +0.114 C 
ENDBRANCH   8   9
ENDBRANCH   4   8
TORSDOF 2
ENDMDL
ENDMDL
