MODEL 2153
MODEL 1
REMARK VINA RESULT:    -9.420      0.000      0.000
REMARK INTER + INTRA:         -11.118
REMARK INTER:                 -10.521
REMARK INTRA:                  -0.596
REMARK UNBOUND:                -0.596
REMARK  Name = No_2153-gen_results/8p0m/2024-11-27-11-27-31/
REMARK  2 active torsions:
REMARK  status: ('A' for Active; 'I' for Inactive)
REMARK    1  A    between atoms: C_3  and  C_7
REMARK    2  A    between atoms: C_6  and  C_13
REMARK                            x       y       z     vdW  Elec       q    Type
REMARK                         _______ _______ _______ _____ _____    ______ ____
ROOT
ATOM      1  C   UNL A   1     -24.536   0.100  29.983  0.00  0.00    +0.017 A 
ATOM      2  C   UNL A   1     -25.589  -0.656  30.071  0.00  0.00    +0.084 A 
ATOM      3  C   UNL A   1     -26.027  -1.189  31.189  0.00  0.00    +0.064 A 
ATOM      4  C   UNL A   1     -25.490  -0.912  32.427  0.00  0.00    +0.016 A 
ATOM      5  C   UNL A   1     -23.687   0.273  31.184  0.00  0.00    +0.001 A 
ATOM      6  C   UNL A   1     -24.261  -0.180  32.415  0.00  0.00    +0.001 A 
ATOM      7  N   UNL A   1     -27.217  -1.962  31.216  0.00  0.00    -0.301 N 
ATOM      8  C   UNL A   1     -27.457  -2.993  30.414  0.00  0.00    +0.119 C 
ATOM      9  C   UNL A   1     -28.430  -1.173  31.422  0.00  0.00    +0.113 C 
ATOM     10  C   UNL A   1     -26.371  -3.494  29.771  0.00  0.00    +0.013 A 
ATOM     11  C   UNL A   1     -26.039  -4.882  29.682  0.00  0.00    -0.001 A 
ATOM     12  C   UNL A   1     -24.909  -5.403  29.113  0.00  0.00    -0.000 A 
ATOM     13  C   UNL A   1     -24.019  -4.492  28.512  0.00  0.00    +0.001 A 
ATOM     14  C   UNL A   1     -24.259  -3.143  28.559  0.00  0.00    +0.016 A 
ATOM     15  C   UNL A   1     -25.364  -2.705  29.189  0.00  0.00    +0.068 A 
ATOM     16  N   UNL A   1     -25.445  -1.431  29.398  0.00  0.00    -0.211 NA
ENDROOT
BRANCH   1  19
ATOM     17  C   UNL A   1     -24.569   1.591  26.613  0.00  0.00    +0.004 A 
ATOM     18  C   UNL A   1     -24.960   1.062  27.628  0.00  0.00    -0.000 A 
ATOM     19  C   UNL A   1     -24.128   0.743  28.701  0.00  0.00    +0.001 A 
ATOM     20  C   UNL A   1     -22.705   0.999  28.591  0.00  0.00    -0.000 A 
ATOM     21  C   UNL A   1     -22.296   1.592  27.397  0.00  0.00    +0.004 A 
ATOM     22  C   UNL A   1     -23.151   1.850  26.427  0.00  0.00    +0.071 A 
BRANCH  22  23
ATOM     23  C   UNL A   1     -22.619   2.437  25.158  0.00  0.00    +0.419 C 
ATOM     24  F   UNL A   1     -23.004   3.495  24.921  0.00  0.00    -0.166 F 
ATOM     25  F   UNL A   1     -21.265   2.317  25.131  0.00  0.00    -0.166 F 
ATOM     26  F   UNL A   1     -23.017   1.515  24.171  0.00  0.00    -0.166 F 
ENDBRANCH  22  23
ENDBRANCH   1  19
TORSDOF 2
ENDMDL
ENDMDL
