REMARK  Name = outputs/IAG933/test6/raw/output_2153_IAG933_linker_design_.xyz
REMARK  15 active torsions:
REMARK  status: ('A' for Active; 'I' for Inactive)
REMARK    1  A    between atoms: C_1  and  C_2
REMARK    2  A    between atoms: C_1  and  C_8
REMARK    3  A    between atoms: C_9  and  C_29
REMARK    4  A    between atoms: C_13  and  C_42
REMARK    5  A    between atoms: C_14  and  C_15
REMARK    6  A    between atoms: C_21  and  O_22
REMARK    7  A    between atoms: O_22  and  C_23
REMARK    8  A    between atoms: C_23  and  C_24
REMARK    9  A    between atoms: C_29  and  C_46
REMARK   10  A    between atoms: C_29  and  C_48
REMARK   11  A    between atoms: C_30  and  C_42
REMARK   12  A    between atoms: C_31  and  S_33
REMARK   13  A    between atoms: C_35  and  O_38
REMARK   14  A    between atoms: N_37  and  C_42
REMARK   15  A    between atoms: O_38  and  C_46
REMARK                            x       y       z     vdW  Elec       q    Type
REMARK                         _______ _______ _______ _____ _____    ______ ____
ROOT
ATOM      1  C   UNL A   1     -25.887   2.016  31.281  0.00  0.00    +0.123 C 
ENDROOT
BRANCH   1   3
ATOM      2  C   UNL A   1     -25.387  -0.679  31.571  0.00  0.00    +0.078 C 
ATOM      3  C   UNL A   1     -25.189   0.773  32.028  0.00  0.00    +0.030 C 
ATOM      4  C   UNL A   1     -25.336   0.684  33.544  0.00  0.00    +0.021 C 
ATOM      5  C   UNL A   1     -24.829  -0.715  33.905  0.00  0.00    +0.089 C 
ATOM      6  N   UNL A   1     -24.758  -1.481  32.646  0.00  0.00    -0.219 NA
BRANCH   2   7
ATOM      7  C   UNL A   1     -24.855  -1.012  30.143  0.00  0.00    +0.044 C 
BRANCH   7   8
ATOM      8  C   UNL A   1     -24.973  -2.505  29.788  0.00  0.00    -0.021 C 
ATOM      9  C   UNL A   1     -23.906  -3.173  29.146  0.00  0.00    -0.004 C 
ATOM     10  C   UNL A   1     -23.989  -4.549  28.853  0.00  0.00    -0.000 C 
ATOM     11  C   UNL A   1     -25.137  -5.280  29.205  0.00  0.00    -0.000 C 
ATOM     12  C   UNL A   1     -26.232  -4.611  29.784  0.00  0.00    -0.000 C 
ATOM     13  C   UNL A   1     -26.155  -3.232  30.065  0.00  0.00    -0.004 C 
ENDBRANCH   7   8
ENDBRANCH   2   7
ENDBRANCH   1   3
BRANCH   1  16
ATOM     14  N   UNL A   1     -25.310   1.604  28.961  0.00  0.00    -0.207 NA
ATOM     15  O   UNL A   1     -27.493   1.364  29.697  0.00  0.00    -0.273 OA
ATOM     16  C   UNL A   1     -26.432   1.715  30.007  0.00  0.00    +0.245 C 
BRANCH  14  17
ATOM     17  C   UNL A   1     -24.780   1.325  27.501  0.00  0.00    +0.103 C 
BRANCH  17  18
ATOM     18  C   UNL A   1     -25.688   1.614  26.461  0.00  0.00    +0.090 C 
ATOM     19  C   UNL A   1     -26.250   2.920  26.395  0.00  0.00    +0.057 C 
ATOM     20  C   UNL A   1     -27.438   3.091  25.645  0.00  0.00    +0.102 C 
ATOM     21  N   UNL A   1     -28.075   2.089  25.003  0.00  0.00    -0.212 NA
ATOM     22  C   UNL A   1     -27.543   0.849  25.079  0.00  0.00    +0.234 C 
ATOM     23  C   UNL A   1     -26.354   0.576  25.777  0.00  0.00    +0.242 C 
ATOM     24  F   UNL A   1     -25.860  -0.681  25.795  0.00  0.00    -0.227 F 
BRANCH  19  25
ATOM     25  C   UNL A   1     -25.642   4.093  27.123  0.00  0.00    +0.263 C 
ATOM     26  N   UNL A   1     -25.614   5.252  26.449  0.00  0.00    -0.200 NA
ATOM     27  C   UNL A   1     -25.026   6.479  26.963  0.00  0.00    +0.139 C 
ATOM     28  O   UNL A   1     -25.143   3.966  28.243  0.00  0.00    -0.269 OA
ENDBRANCH  19  25
BRANCH  22  29
ATOM     29  O   UNL A   1     -28.193  -0.208  24.477  0.00  0.00    -0.459 OA
BRANCH  29  30
ATOM     30  C   UNL A   1     -29.460   0.005  23.866  0.00  0.00    +0.242 C 
BRANCH  30  31
ATOM     31  C   UNL A   1     -30.065  -1.377  23.573  0.00  0.00    +0.229 C 
ATOM     32  O   UNL A   1     -30.729  -1.878  24.721  0.00  0.00    -0.216 OA
ENDBRANCH  30  31
ENDBRANCH  29  30
ENDBRANCH  22  29
ENDBRANCH  17  18
BRANCH  17  33
ATOM     33  C   UNL A   1     -23.350   1.225  27.053  0.00  0.00    +0.020 C 
ATOM     34  C   UNL A   1     -22.256   1.445  28.139  0.00  0.00    +0.002 C 
ATOM     35  C   UNL A   1     -22.990   2.153  25.781  0.00  0.00    +0.002 C 
ENDBRANCH  17  33
ENDBRANCH  14  17
ENDBRANCH   1  16
BRANCH   1  36
ATOM     36  C   UNL A   1     -25.623   3.546  31.550  0.00  0.00    +0.214 C 
BRANCH  36  37
ATOM     37  O   UNL A   1     -25.353   4.251  32.808  0.00  0.00    -0.474 OA
BRANCH  37  41
ATOM     38  C   UNL A   1     -25.033   6.633  33.792  0.00  0.00    +0.085 C 
ATOM     39  C   UNL A   1     -22.219   6.402  33.384  0.00  0.00    +0.004 C 
ATOM     40  C   UNL A   1     -22.646   7.366  34.326  0.00  0.00    +0.019 C 
ATOM     41  C   UNL A   1     -24.514   5.374  32.998  0.00  0.00    +0.146 C 
ATOM     42  C   UNL A   1     -23.987   7.661  34.410  0.00  0.00    +0.098 C 
ATOM     43  N   UNL A   1     -24.469   8.812  34.934  0.00  0.00    -0.127 NA
ATOM     44  C   UNL A   1     -23.102   5.547  32.748  0.00  0.00    +0.037 C 
BRANCH  38  46
ATOM     45  C   UNL A   1     -27.076   7.337  34.956  0.00  0.00    +0.085 C 
ATOM     46  S   UNL A   1     -26.728   6.870  33.315  0.00  0.00    -0.047 S 
ATOM     47  O   UNL A   1     -27.235   5.843  33.009  0.00  0.00    -0.167 OA
ATOM     48  C   UNL A   1     -26.828   8.306  32.687  0.00  0.00    +0.085 C 
ENDBRANCH  38  46
ENDBRANCH  37  41
ENDBRANCH  36  37
ENDBRANCH   1  36
TORSDOF 15
