MODEL 2154
MODEL 1
REMARK VINA RESULT:    -6.756      0.000      0.000
REMARK INTER + INTRA:          -8.093
REMARK INTER:                  -7.545
REMARK INTRA:                  -0.548
REMARK UNBOUND:                -0.548
REMARK  Name = No_2154-gen_results/8p0m/2024-11-27-11-27-31/
REMARK  2 active torsions:
REMARK  status: ('A' for Active; 'I' for Inactive)
REMARK    1  A    between atoms: C_2  and  C_7
REMARK    2  A    between atoms: C_7  and  C_8
REMARK                            x       y       z     vdW  Elec       q    Type
REMARK                         _______ _______ _______ _____ _____    ______ ____
ROOT
ATOM      1  C   UNL A   1     -24.291  -0.854  29.647  0.00  0.00    +0.052 C 
ENDROOT
BRANCH   1   2
ATOM      2  C   UNL A   1     -23.894  -0.061  28.500  0.00  0.00    -0.022 A 
ATOM      3  C   UNL A   1     -24.400   0.314  27.524  0.00  0.00    -0.025 A 
ATOM      4  C   UNL A   1     -25.673  -0.178  27.042  0.00  0.00    +0.031 C 
ATOM      5  C   UNL A   1     -22.435   0.498  28.750  0.00  0.00    -0.004 A 
ATOM      6  C   UNL A   1     -22.117   1.448  27.738  0.00  0.00    -0.000 A 
ATOM      7  C   UNL A   1     -23.803   1.210  26.537  0.00  0.00    -0.005 A 
ATOM      8  C   UNL A   1     -22.673   1.816  26.708  0.00  0.00    -0.000 A 
ENDBRANCH   1   2
BRANCH   1  10
ATOM      9  C   UNL A   1     -23.783  -3.054  28.843  0.00  0.00    -0.004 A 
ATOM     10  C   UNL A   1     -24.574  -2.326  29.397  0.00  0.00    -0.018 A 
ATOM     11  C   UNL A   1     -25.782  -2.734  29.862  0.00  0.00    -0.004 A 
ATOM     12  C   UNL A   1     -26.143  -4.084  29.691  0.00  0.00    -0.000 A 
ATOM     13  C   UNL A   1     -24.046  -4.465  28.719  0.00  0.00    -0.000 A 
ATOM     14  C   UNL A   1     -25.258  -4.920  29.144  0.00  0.00    -0.000 A 
ENDBRANCH   1  10
TORSDOF 2
ENDMDL
ENDMDL
