MODEL 2155
MODEL 1
REMARK VINA RESULT:    -4.611      0.000      0.000
REMARK INTER + INTRA:          -6.051
REMARK INTER:                  -5.958
REMARK INTRA:                  -0.092
REMARK UNBOUND:                -0.092
REMARK  Name = No_2155-gen_results/8p0m/2024-11-27-11-27-31/
REMARK  5 active torsions:
REMARK  status: ('A' for Active; 'I' for Inactive)
REMARK    1  A    between atoms: C_1  and  C_2
REMARK    2  A    between atoms: C_1  and  C_5
REMARK    3  A    between atoms: C_2  and  C_4
REMARK    4  A    between atoms: C_7  and  C_8
REMARK    5  A    between atoms: C_8  and  C_9
REMARK                            x       y       z     vdW  Elec       q    Type
REMARK                         _______ _______ _______ _____ _____    ______ ____
ROOT
ATOM      1  C   UNL A   1      -8.618  -9.841  17.973  0.00  0.00    +0.189 C 
ATOM      2  F   UNL A   1      -8.196  -8.804  17.393  0.00  0.00    -0.232 F 
ENDROOT
BRANCH   1   3
ATOM      3  C   UNL A   1      -9.415  -9.316  19.215  0.00  0.00    +0.004 C 
ATOM      4  C   UNL A   1      -8.753  -9.327  20.492  0.00  0.00    -0.025 C 
BRANCH   4   5
ATOM      5  C   UNL A   1      -7.356  -9.659  20.565  0.00  0.00    +0.064 C 
BRANCH   5   6
ATOM      6  C   UNL A   1      -6.475  -8.710  20.157  0.00  0.00    +0.198 C 
ATOM      7  F   UNL A   1      -6.908  -7.460  20.020  0.00  0.00    -0.234 F 
ENDBRANCH   5   6
ENDBRANCH   4   5
ENDBRANCH   1   3
BRANCH   1   8
ATOM      8  C   UNL A   1      -9.158 -10.731  17.357  0.00  0.00    +0.089 C 
BRANCH   8   9
ATOM      9  C   UNL A   1     -10.630 -10.745  17.650  0.00  0.00    +0.099 C 
ATOM     10  N   UNL A   1     -11.375 -10.543  16.752  0.00  0.00    -0.151 NA
ENDBRANCH   8   9
ENDBRANCH   1   8
TORSDOF 5
ENDMDL
ENDMDL
