REMARK  Name = outputs/IAG933/test6/raw/output_2155_IAG933_linker_design_.xyz
REMARK  10 active torsions:
REMARK  status: ('A' for Active; 'I' for Inactive)
REMARK    1  A    between atoms: C_1  and  C_2
REMARK    2  A    between atoms: C_1  and  C_8
REMARK    3  A    between atoms: C_1  and  C_28
REMARK    4  A    between atoms: C_13  and  C_33
REMARK    5  A    between atoms: C_14  and  C_15
REMARK    6  A    between atoms: C_21  and  O_22
REMARK    7  A    between atoms: O_22  and  C_23
REMARK    8  A    between atoms: C_23  and  C_24
REMARK    9  A    between atoms: N_31  and  C_33
REMARK   10  A    between atoms: C_33  and  C_34
REMARK                            x       y       z     vdW  Elec       q    Type
REMARK                         _______ _______ _______ _____ _____    ______ ____
ROOT
ATOM      1  C   UNL A   1     -24.882   1.055  27.376  0.00  0.00    +0.171 C 
ENDROOT
BRANCH   1   4
ATOM      2  C   UNL A   1     -21.228   1.595  26.996  0.00  0.00    +0.053 C 
ATOM      3  N   UNL A   1     -21.315  -1.290  29.384  0.00  0.00    +0.216 NA
ATOM      4  C   UNL A   1     -23.477   0.961  27.448  0.00  0.00    +0.229 C 
ATOM      5  C   UNL A   1     -20.778   0.637  27.950  0.00  0.00    +0.102 C 
ATOM      6  N   UNL A   1     -23.031  -0.056  28.323  0.00  0.00    -0.032 NA
ATOM      7  C   UNL A   1     -21.692  -0.251  28.592  0.00  0.00    +0.415 C 
ATOM      8  C   UNL A   1     -22.586   1.710  26.702  0.00  0.00    +0.236 C 
ATOM      9  O   UNL A   1     -23.004   2.458  25.705  0.00  0.00    -0.283 OA
ENDBRANCH   1   4
BRANCH   1  10
ATOM     10  C   UNL A   1     -25.688   1.614  26.461  0.00  0.00    +0.098 C 
ATOM     11  C   UNL A   1     -26.250   2.920  26.395  0.00  0.00    +0.057 C 
ATOM     12  C   UNL A   1     -27.438   3.091  25.645  0.00  0.00    +0.102 C 
ATOM     13  N   UNL A   1     -28.075   2.089  25.003  0.00  0.00    -0.212 NA
ATOM     14  C   UNL A   1     -27.543   0.849  25.079  0.00  0.00    +0.234 C 
ATOM     15  C   UNL A   1     -26.354   0.576  25.777  0.00  0.00    +0.242 C 
ATOM     16  F   UNL A   1     -25.860  -0.681  25.795  0.00  0.00    -0.227 F 
BRANCH  11  17
ATOM     17  C   UNL A   1     -25.642   4.093  27.123  0.00  0.00    +0.263 C 
ATOM     18  N   UNL A   1     -25.614   5.252  26.449  0.00  0.00    -0.200 NA
ATOM     19  C   UNL A   1     -25.026   6.479  26.963  0.00  0.00    +0.139 C 
ATOM     20  O   UNL A   1     -25.143   3.966  28.243  0.00  0.00    -0.269 OA
ENDBRANCH  11  17
BRANCH  14  21
ATOM     21  O   UNL A   1     -28.193  -0.208  24.477  0.00  0.00    -0.459 OA
BRANCH  21  22
ATOM     22  C   UNL A   1     -29.460   0.005  23.866  0.00  0.00    +0.242 C 
BRANCH  22  23
ATOM     23  C   UNL A   1     -30.065  -1.377  23.573  0.00  0.00    +0.229 C 
ATOM     24  O   UNL A   1     -30.729  -1.878  24.721  0.00  0.00    -0.216 OA
ENDBRANCH  22  23
ENDBRANCH  21  22
ENDBRANCH  14  21
ENDBRANCH   1  10
BRANCH   1  27
ATOM     25  C   UNL A   1     -25.792  -0.316  29.215  0.00  0.00    +0.247 C 
ATOM     26  O   UNL A   1     -27.025  -0.368  29.332  0.00  0.00    -0.273 OA
ATOM     27  N   UNL A   1     -25.317   0.100  28.119  0.00  0.00    -0.198 NA
BRANCH  25  28
ATOM     28  C   UNL A   1     -24.855  -1.012  30.143  0.00  0.00    +0.116 C 
BRANCH  28  29
ATOM     29  C   UNL A   1     -24.973  -2.505  29.788  0.00  0.00    -0.013 C 
ATOM     30  C   UNL A   1     -23.906  -3.173  29.146  0.00  0.00    -0.004 C 
ATOM     31  C   UNL A   1     -23.989  -4.549  28.853  0.00  0.00    -0.000 C 
ATOM     32  C   UNL A   1     -25.137  -5.280  29.205  0.00  0.00    -0.000 C 
ATOM     33  C   UNL A   1     -26.232  -4.611  29.784  0.00  0.00    -0.000 C 
ATOM     34  C   UNL A   1     -26.155  -3.232  30.065  0.00  0.00    -0.004 C 
ENDBRANCH  28  29
BRANCH  28  35
ATOM     35  C   UNL A   1     -25.387  -0.679  31.571  0.00  0.00    +0.086 C 
ATOM     36  C   UNL A   1     -25.189   0.773  32.028  0.00  0.00    +0.020 C 
ATOM     37  C   UNL A   1     -25.336   0.684  33.544  0.00  0.00    +0.020 C 
ATOM     38  C   UNL A   1     -24.829  -0.715  33.905  0.00  0.00    +0.089 C 
ATOM     39  N   UNL A   1     -24.758  -1.481  32.646  0.00  0.00    -0.219 NA
ENDBRANCH  28  35
ENDBRANCH  25  28
ENDBRANCH   1  27
TORSDOF 10
