REMARK  Name = No_2156-gen_results/8p0m/2024-11-27-11-27-31/
REMARK  8 active torsions:
REMARK  status: ('A' for Active; 'I' for Inactive)
REMARK    1  A    between atoms: C_4  and  C_11
REMARK    2  A    between atoms: C_13  and  C_18
REMARK    3  A    between atoms: C_18  and  O_20
REMARK    4  A    between atoms: O_20  and  C_21
REMARK    5  A    between atoms: C_21  and  C_22
REMARK    6  A    between atoms: C_22  and  C_23
REMARK    7  A    between atoms: C_22  and  O_29
REMARK    8  A    between atoms: O_29  and  C_30
REMARK                            x       y       z     vdW  Elec       q    Type
REMARK                         _______ _______ _______ _____ _____    ______ ____
ROOT
ATOM      1  C   UNL A   1     -24.581   1.586  27.992  0.00  0.00    +0.000 A 
ATOM      2  C   UNL A   1     -24.806   2.696  28.607  0.00  0.00    +0.006 A 
ATOM      3  C   UNL A   1     -25.102   3.867  27.851  0.00  0.00    +0.076 A 
ATOM      4  C   UNL A   1     -24.422   1.478  26.647  0.00  0.00    +0.000 A 
ATOM      5  C   UNL A   1     -24.553   2.596  25.840  0.00  0.00    +0.000 A 
ATOM      6  C   UNL A   1     -24.833   3.849  26.481  0.00  0.00    +0.006 A 
ENDROOT
BRANCH   1  10
ATOM      7  C   UNL A   1     -28.016  -0.814  28.878  0.00  0.00    +0.011 A 
ATOM      8  C   UNL A   1     -27.064  -0.119  28.608  0.00  0.00    +0.001 A 
ATOM      9  C   UNL A   1     -25.792  -0.430  29.076  0.00  0.00    +0.000 A 
ATOM     10  C   UNL A   1     -24.546   0.349  28.823  0.00  0.00    +0.000 A 
ATOM     11  C   UNL A   1     -23.241   0.022  29.332  0.00  0.00    +0.000 A 
ATOM     12  C   UNL A   1     -27.882  -1.899  29.863  0.00  0.00    +0.058 A 
ATOM     13  C   UNL A   1     -26.671  -2.327  30.321  0.00  0.00    +0.011 A 
ATOM     14  C   UNL A   1     -25.543  -1.585  29.932  0.00  0.00    +0.001 A 
ATOM     15  C   UNL A   1     -23.172  -1.268  29.934  0.00  0.00    +0.000 A 
ATOM     16  C   UNL A   1     -24.246  -1.978  30.336  0.00  0.00    +0.000 A 
ATOM     17 CL   UNL A   1     -29.317  -2.827  30.227  0.00  0.00    -0.082 Cl
ENDBRANCH   1  10
BRANCH   3  18
ATOM     18  C   UNL A   1     -25.301   5.209  28.477  0.00  0.00    +0.341 C 
ATOM     19  O   UNL A   1     -25.250   6.254  27.886  0.00  0.00    -0.245 OA
BRANCH  18  20
ATOM     20  O   UNL A   1     -25.661   5.193  29.749  0.00  0.00    -0.441 OA
BRANCH  20  21
ATOM     21  C   UNL A   1     -26.722   5.959  30.180  0.00  0.00    +0.257 C 
BRANCH  21  22
ATOM     22  C   UNL A   1     -27.554   5.340  30.997  0.00  0.00    +0.232 C 
BRANCH  22  23
ATOM     23  C   UNL A   1     -27.139   4.331  31.781  0.00  0.00    +0.021 A 
ATOM     24  C   UNL A   1     -27.786   3.322  32.232  0.00  0.00    -0.001 A 
ATOM     25  C   UNL A   1     -27.199   2.170  32.926  0.00  0.00    -0.000 A 
ATOM     26  C   UNL A   1     -25.812   2.117  32.953  0.00  0.00    -0.000 A 
ATOM     27  C   UNL A   1     -25.027   3.146  32.478  0.00  0.00    -0.000 A 
ATOM     28  C   UNL A   1     -25.674   4.183  31.896  0.00  0.00    -0.001 A 
ENDBRANCH  22  23
BRANCH  22  29
ATOM     29  O   UNL A   1     -28.739   4.854  30.246  0.00  0.00    -0.468 OA
BRANCH  29  30
ATOM     30  C   UNL A   1     -29.802   5.677  30.019  0.00  0.00    +0.168 C 
ATOM     31  C   UNL A   1     -30.487   5.441  29.211  0.00  0.00    +0.014 C 
ATOM     32  C   UNL A   1     -31.630   6.324  28.870  0.00  0.00    +0.034 C 
ENDBRANCH  29  30
ENDBRANCH  22  29
ENDBRANCH  21  22
ENDBRANCH  20  21
ENDBRANCH  18  20
ENDBRANCH   3  18
TORSDOF 8
