MODEL 2156
MODEL 1
REMARK VINA RESULT:    -7.196      0.000      0.000
REMARK INTER + INTRA:         -14.365
REMARK INTER:                 -10.562
REMARK INTRA:                  -3.804
REMARK UNBOUND:                -3.804
REMARK  Name = No_2156-gen_results/8p0m/2024-11-27-11-27-31/
REMARK  8 active torsions:
REMARK  status: ('A' for Active; 'I' for Inactive)
REMARK    1  A    between atoms: C_4  and  C_11
REMARK    2  A    between atoms: C_13  and  C_18
REMARK    3  A    between atoms: C_18  and  O_20
REMARK    4  A    between atoms: O_20  and  C_21
REMARK    5  A    between atoms: C_21  and  C_22
REMARK    6  A    between atoms: C_22  and  C_23
REMARK    7  A    between atoms: C_22  and  O_29
REMARK    8  A    between atoms: O_29  and  C_30
REMARK                            x       y       z     vdW  Elec       q    Type
REMARK                         _______ _______ _______ _____ _____    ______ ____
ROOT
ATOM      1  C   UNL A   1     -24.511  -2.639  28.859  0.00  0.00    +0.000 A 
ATOM      2  C   UNL A   1     -25.678  -2.508  29.391  0.00  0.00    +0.006 A 
ATOM      3  C   UNL A   1     -26.350  -3.660  29.893  0.00  0.00    +0.076 A 
ATOM      4  C   UNL A   1     -23.935  -3.834  28.569  0.00  0.00    +0.000 A 
ATOM      5  C   UNL A   1     -24.582  -5.015  28.894  0.00  0.00    +0.000 A 
ATOM      6  C   UNL A   1     -25.872  -4.916  29.515  0.00  0.00    +0.006 A 
ENDROOT
BRANCH   1  10
ATOM      7  C   UNL A   1     -26.112   0.793  26.858  0.00  0.00    +0.011 A 
ATOM      8  C   UNL A   1     -25.689  -0.189  27.423  0.00  0.00    +0.001 A 
ATOM      9  C   UNL A   1     -24.384  -0.237  27.900  0.00  0.00    +0.000 A 
ATOM     10  C   UNL A   1     -23.744  -1.387  28.600  0.00  0.00    +0.000 A 
ATOM     11  C   UNL A   1     -22.385  -1.426  29.070  0.00  0.00    +0.000 A 
ATOM     12  C   UNL A   1     -25.197   1.888  26.497  0.00  0.00    +0.058 A 
ATOM     13  C   UNL A   1     -23.924   1.968  26.979  0.00  0.00    +0.011 A 
ATOM     14  C   UNL A   1     -23.454   0.874  27.724  0.00  0.00    +0.001 A 
ATOM     15  C   UNL A   1     -21.730  -0.161  29.020  0.00  0.00    +0.000 A 
ATOM     16  C   UNL A   1     -22.157   0.888  28.288  0.00  0.00    +0.000 A 
ATOM     17 CL   UNL A   1     -25.882   3.251  25.644  0.00  0.00    -0.082 Cl
ENDBRANCH   1  10
BRANCH   3  18
ATOM     18  C   UNL A   1     -27.734  -3.612  30.456  0.00  0.00    +0.341 C 
ATOM     19  O   UNL A   1     -28.333  -4.562  30.881  0.00  0.00    -0.245 OA
BRANCH  18  20
ATOM     20  O   UNL A   1     -28.256  -2.403  30.573  0.00  0.00    -0.441 OA
BRANCH  20  21
ATOM     21  C   UNL A   1     -28.009  -1.646  31.698  0.00  0.00    +0.257 C 
BRANCH  21  22
ATOM     22  C   UNL A   1     -27.925  -0.346  31.481  0.00  0.00    +0.232 C 
BRANCH  22  23
ATOM     23  C   UNL A   1     -26.744   0.244  31.235  0.00  0.00    +0.021 A 
ATOM     24  C   UNL A   1     -26.489   1.400  30.746  0.00  0.00    -0.001 A 
ATOM     25  C   UNL A   1     -25.167   2.033  30.690  0.00  0.00    -0.000 A 
ATOM     26  C   UNL A   1     -24.146   1.373  31.361  0.00  0.00    -0.000 A 
ATOM     27  C   UNL A   1     -24.325   0.132  31.934  0.00  0.00    -0.000 A 
ATOM     28  C   UNL A   1     -25.577  -0.382  31.890  0.00  0.00    -0.001 A 
ENDBRANCH  22  23
BRANCH  22  29
ATOM     29  O   UNL A   1     -28.564   0.399  32.596  0.00  0.00    -0.468 OA
BRANCH  29  30
ATOM     30  C   UNL A   1     -28.405  -0.013  33.886  0.00  0.00    +0.168 C 
ATOM     31  C   UNL A   1     -28.012   0.687  34.616  0.00  0.00    +0.014 C 
ATOM     32  C   UNL A   1     -27.758   0.289  36.024  0.00  0.00    +0.034 C 
ENDBRANCH  29  30
ENDBRANCH  22  29
ENDBRANCH  21  22
ENDBRANCH  20  21
ENDBRANCH  18  20
ENDBRANCH   3  18
TORSDOF 8
ENDMDL
ENDMDL
