MODEL 2157
MODEL 1
REMARK VINA RESULT:    -4.258      0.000      0.000
REMARK INTER + INTRA:          -4.258
REMARK INTER:                  -4.258
REMARK INTRA:                   0.000
REMARK UNBOUND:                 0.000
REMARK  Name = No_2157-gen_results/8p0m/2024-11-27-11-27-31/
REMARK  0 active torsions:
REMARK  status: ('A' for Active; 'I' for Inactive)
REMARK                            x       y       z     vdW  Elec       q    Type
REMARK                         _______ _______ _______ _____ _____    ______ ____
ROOT
ATOM      1  C   UNL A   1     -24.955  -5.362  28.958  0.00  0.00    +0.000 A 
ATOM      2  C   UNL A   1     -24.157  -4.711  28.733  0.00  0.00    +0.000 A 
ATOM      3  C   UNL A   1     -26.124  -4.766  29.624  0.00  0.00    +0.000 A 
ATOM      4  C   UNL A   1     -26.209  -3.356  29.814  0.00  0.00    +0.000 A 
ATOM      5  C   UNL A   1     -24.018  -3.230  28.772  0.00  0.00    +0.000 A 
ATOM      6  C   UNL A   1     -25.079  -2.641  29.392  0.00  0.00    +0.000 A 
ENDROOT
TORSDOF 0
ENDMDL
ENDMDL
