REMARK  Name = No_2158-gen_results/8p0m/2024-11-27-11-27-31/
REMARK  1 active torsions:
REMARK  status: ('A' for Active; 'I' for Inactive)
REMARK    1  A    between atoms: C_5  and  C_9
REMARK                            x       y       z     vdW  Elec       q    Type
REMARK                         _______ _______ _______ _____ _____    ______ ____
ROOT
ATOM      1  C   UNL A   1     -28.016  -0.814  28.878  0.00  0.00    +0.162 C 
ATOM      2  C   UNL A   1     -27.064  -0.119  28.608  0.00  0.00    +0.097 A 
ATOM      3  N   UNL A   1     -25.818  -0.343  29.049  0.00  0.00    -0.245 NA
ATOM      4  C   UNL A   1     -24.651   0.444  28.765  0.00  0.00    +0.103 A 
ATOM      5  C   UNL A   1     -24.715   1.312  27.719  0.00  0.00    +0.077 A 
ATOM      6  C   UNL A   1     -26.000   1.524  27.153  0.00  0.00    +0.026 A 
ATOM      7  C   UNL A   1     -27.090   0.820  27.538  0.00  0.00    +0.096 A 
ATOM      8 CL   UNL A   1     -27.888  -1.972  30.142  0.00  0.00    -0.102 Cl
ATOM      9  N   UNL A   1     -28.355   0.700  27.208  0.00  0.00    -0.246 NA
ATOM     10  C   UNL A   1     -28.918  -0.214  28.036  0.00  0.00    +0.095 C 
ENDROOT
BRANCH   5  11
ATOM     11  C   UNL A   1     -23.517   2.065  27.378  0.00  0.00    +0.286 C 
ATOM     12  O   UNL A   1     -23.420   2.556  26.187  0.00  0.00    -0.267 OA
ATOM     13  N   UNL A   1     -22.354   1.934  28.137  0.00  0.00    -0.084 NA
ENDBRANCH   5  11
TORSDOF 1
