MODEL 2158
MODEL 1
REMARK VINA RESULT:    -5.334      0.000      0.000
REMARK INTER + INTRA:          -5.708
REMARK INTER:                  -5.646
REMARK INTRA:                  -0.062
REMARK UNBOUND:                -0.062
REMARK  Name = No_2158-gen_results/8p0m/2024-11-27-11-27-31/
REMARK  1 active torsions:
REMARK  status: ('A' for Active; 'I' for Inactive)
REMARK    1  A    between atoms: C_5  and  C_9
REMARK                            x       y       z     vdW  Elec       q    Type
REMARK                         _______ _______ _______ _____ _____    ______ ____
ROOT
ATOM      1  C   UNL A   1     -25.910  -4.481  29.590  0.00  0.00    +0.162 C 
ATOM      2  C   UNL A   1     -25.331  -3.422  29.503  0.00  0.00    +0.097 A 
ATOM      3  N   UNL A   1     -25.748  -2.286  30.079  0.00  0.00    -0.245 NA
ATOM      4  C   UNL A   1     -25.107  -1.002  30.010  0.00  0.00    +0.103 A 
ATOM      5  C   UNL A   1     -23.811  -0.966  29.599  0.00  0.00    +0.077 A 
ATOM      6  C   UNL A   1     -23.287  -2.170  29.058  0.00  0.00    +0.026 A 
ATOM      7  C   UNL A   1     -23.982  -3.330  29.056  0.00  0.00    +0.096 A 
ATOM      8 CL   UNL A   1     -27.516  -4.520  30.201  0.00  0.00    -0.102 Cl
ATOM      9  N   UNL A   1     -23.804  -4.588  28.724  0.00  0.00    -0.246 NA
ATOM     10  C   UNL A   1     -24.957  -5.255  28.978  0.00  0.00    +0.095 C 
ENDROOT
BRANCH   5  11
ATOM     11  C   UNL A   1     -23.130   0.320  29.591  0.00  0.00    +0.286 C 
ATOM     12  O   UNL A   1     -23.475   1.202  30.470  0.00  0.00    -0.267 OA
ATOM     13  N   UNL A   1     -22.430   0.749  28.463  0.00  0.00    -0.084 NA
ENDBRANCH   5  11
TORSDOF 1
ENDMDL
ENDMDL
