MODEL 2159
MODEL 1
REMARK VINA RESULT:    -4.377      0.000      0.000
REMARK INTER + INTRA:          -4.377
REMARK INTER:                  -4.377
REMARK INTRA:                   0.000
REMARK UNBOUND:                 0.000
REMARK  Name = No_2159-gen_results/8p0m/2024-11-27-11-27-31/
REMARK  0 active torsions:
REMARK  status: ('A' for Active; 'I' for Inactive)
REMARK                            x       y       z     vdW  Elec       q    Type
REMARK                         _______ _______ _______ _____ _____    ______ ____
ROOT
ATOM      1  C   UNL A   1     -25.453  -2.562  29.634  0.00  0.00    +0.011 A 
ATOM      2  C   UNL A   1     -24.366  -2.855  29.194  0.00  0.00    +0.058 A 
ATOM      3  C   UNL A   1     -24.061  -4.167  28.848  0.00  0.00    +0.011 A 
ATOM      4  C   UNL A   1     -25.017  -5.227  29.047  0.00  0.00    +0.001 A 
ATOM      5  C   UNL A   1     -26.240  -4.803  29.583  0.00  0.00    +0.000 A 
ATOM      6  C   UNL A   1     -26.472  -3.552  29.909  0.00  0.00    +0.001 A 
ATOM      7 CL   UNL A   1     -23.097  -1.734  28.939  0.00  0.00    -0.082 Cl
ENDROOT
TORSDOF 0
ENDMDL
ENDMDL
