MODEL 2160
MODEL 1
REMARK VINA RESULT:    -6.825      0.000      0.000
REMARK INTER + INTRA:          -9.729
REMARK INTER:                  -8.422
REMARK INTRA:                  -1.308
REMARK UNBOUND:                -1.308
REMARK  Name = No_2160-gen_results/8p0m/2024-11-27-11-27-31/
REMARK  4 active torsions:
REMARK  status: ('A' for Active; 'I' for Inactive)
REMARK    1  A    between atoms: C_4  and  C_8
REMARK    2  A    between atoms: C_8  and  C_9
REMARK    3  A    between atoms: C_9  and  C_10
REMARK    4  A    between atoms: C_10  and  C_11
REMARK                            x       y       z     vdW  Elec       q    Type
REMARK                         _______ _______ _______ _____ _____    ______ ____
ROOT
ATOM      1  C   UNL A   1     -23.112  -0.599  28.884  0.00  0.00    +0.008 C 
ATOM      2  C   UNL A   1     -21.551  -0.538  28.982  0.00  0.00    +0.001 C 
ENDROOT
BRANCH   1   3
ATOM      3  C   UNL A   1     -23.666  -1.405  29.889  0.00  0.00    +0.023 C 
ATOM      4  C   UNL A   1     -23.173  -1.037  31.197  0.00  0.00    +0.005 C 
BRANCH   3   5
ATOM      5  C   UNL A   1     -24.461  -2.551  29.644  0.00  0.00    -0.022 A 
ATOM      6  C   UNL A   1     -25.710  -2.636  30.124  0.00  0.00    -0.004 A 
ATOM      7  C   UNL A   1     -26.496  -3.776  29.931  0.00  0.00    -0.000 A 
ATOM      8  C   UNL A   1     -25.878  -4.825  29.271  0.00  0.00    -0.000 A 
ATOM      9  C   UNL A   1     -24.567  -4.869  28.834  0.00  0.00    -0.000 A 
ATOM     10  C   UNL A   1     -23.856  -3.660  28.999  0.00  0.00    -0.004 A 
ENDBRANCH   3   5
ENDBRANCH   1   3
BRANCH   1  11
ATOM     11  C   UNL A   1     -23.753   0.685  28.550  0.00  0.00    +0.028 C 
BRANCH  11  15
ATOM     12  C   UNL A   1     -25.314   1.091  25.047  0.00  0.00    +0.022 A 
ATOM     13  C   UNL A   1     -26.274   0.741  25.304  0.00  0.00    +0.059 A 
ATOM     14  C   UNL A   1     -24.319   1.154  26.185  0.00  0.00    +0.054 A 
ATOM     15  C   UNL A   1     -24.674   0.624  27.443  0.00  0.00    -0.011 A 
ATOM     16  C   UNL A   1     -26.880   0.112  26.499  0.00  0.00    +0.011 A 
ATOM     17  C   UNL A   1     -25.992   0.146  27.565  0.00  0.00    -0.003 A 
ATOM     18 CL   UNL A   1     -27.525   0.545  23.949  0.00  0.00    -0.082 Cl
ATOM     19 CL   UNL A   1     -22.838   1.927  25.905  0.00  0.00    -0.083 Cl
ENDBRANCH  11  15
ENDBRANCH   1  11
TORSDOF 4
ENDMDL
ENDMDL
