REMARK  Name = No_2160-gen_results/8p0m/2024-11-27-11-27-31/
REMARK  4 active torsions:
REMARK  status: ('A' for Active; 'I' for Inactive)
REMARK    1  A    between atoms: C_4  and  C_8
REMARK    2  A    between atoms: C_8  and  C_9
REMARK    3  A    between atoms: C_9  and  C_10
REMARK    4  A    between atoms: C_10  and  C_11
REMARK                            x       y       z     vdW  Elec       q    Type
REMARK                         _______ _______ _______ _____ _____    ______ ____
ROOT
ATOM      1  C   UNL A   1     -23.803   0.556  30.113  0.00  0.00    +0.008 C 
ATOM      2  C   UNL A   1     -22.789   0.853  31.268  0.00  0.00    +0.001 C 
ENDROOT
BRANCH   1   3
ATOM      3  C   UNL A   1     -23.383   1.109  28.895  0.00  0.00    +0.023 C 
ATOM      4  C   UNL A   1     -22.136   0.529  28.450  0.00  0.00    +0.005 C 
BRANCH   3   5
ATOM      5  C   UNL A   1     -23.998   2.221  28.270  0.00  0.00    -0.022 A 
ATOM      6  C   UNL A   1     -24.982   2.896  28.881  0.00  0.00    -0.004 A 
ATOM      7  C   UNL A   1     -25.632   3.969  28.263  0.00  0.00    -0.000 A 
ATOM      8  C   UNL A   1     -25.235   4.243  26.965  0.00  0.00    -0.000 A 
ATOM      9  C   UNL A   1     -24.307   3.540  26.219  0.00  0.00    -0.000 A 
ATOM     10  C   UNL A   1     -23.642   2.516  26.928  0.00  0.00    -0.004 A 
ENDBRANCH   3   5
ENDBRANCH   1   3
BRANCH   1  11
ATOM     11  C   UNL A   1     -24.370  -0.804  30.134  0.00  0.00    +0.028 C 
BRANCH  11  15
ATOM     12  C   UNL A   1     -28.016  -0.814  28.878  0.00  0.00    +0.022 A 
ATOM     13  C   UNL A   1     -28.469  -0.785  29.829  0.00  0.00    +0.059 A 
ATOM     14  C   UNL A   1     -26.504  -0.778  28.877  0.00  0.00    +0.054 A 
ATOM     15  C   UNL A   1     -25.810  -0.853  30.103  0.00  0.00    -0.011 A 
ATOM     16  C   UNL A   1     -27.991  -0.892  31.226  0.00  0.00    +0.011 A 
ATOM     17  C   UNL A   1     -26.604  -0.868  31.265  0.00  0.00    -0.003 A 
ATOM     18 CL   UNL A   1     -30.317  -0.920  29.922  0.00  0.00    -0.082 Cl
ATOM     19 CL   UNL A   1     -25.714  -0.579  27.392  0.00  0.00    -0.083 Cl
ENDBRANCH  11  15
ENDBRANCH   1  11
TORSDOF 4
