REMARK  Name = outputs/IAG933/test6/raw/output_2162_IAG933_linker_design_.xyz
REMARK  15 active torsions:
REMARK  status: ('A' for Active; 'I' for Inactive)
REMARK    1  A    between atoms: C_1  and  C_2
REMARK    2  A    between atoms: C_1  and  C_8
REMARK    3  A    between atoms: C_1  and  C_37
REMARK    4  A    between atoms: C_13  and  C_29
REMARK    5  A    between atoms: C_14  and  C_15
REMARK    6  A    between atoms: C_21  and  O_22
REMARK    7  A    between atoms: O_22  and  C_23
REMARK    8  A    between atoms: C_23  and  C_24
REMARK    9  A    between atoms: C_29  and  C_43
REMARK   10  A    between atoms: C_34  and  O_36
REMARK   11  A    between atoms: C_34  and  C_40
REMARK   12  A    between atoms: O_36  and  C_37
REMARK   13  A    between atoms: C_37  and  N_41
REMARK   14  A    between atoms: N_39  and  C_44
REMARK   15  A    between atoms: N_41  and  C_48
REMARK                            x       y       z     vdW  Elec       q    Type
REMARK                         _______ _______ _______ _____ _____    ______ ____
ROOT
ATOM      1  C   UNL A   1     -25.526  -0.047  29.221  0.00  0.00    +0.194 C 
ENDROOT
BRANCH   1   2
ATOM      2  C   UNL A   1     -24.855  -1.012  30.143  0.00  0.00    +0.083 C 
BRANCH   2   3
ATOM      3  C   UNL A   1     -24.973  -2.505  29.788  0.00  0.00    -0.017 C 
ATOM      4  C   UNL A   1     -23.906  -3.173  29.146  0.00  0.00    -0.004 C 
ATOM      5  C   UNL A   1     -23.989  -4.549  28.853  0.00  0.00    -0.000 C 
ATOM      6  C   UNL A   1     -25.137  -5.280  29.205  0.00  0.00    -0.000 C 
ATOM      7  C   UNL A   1     -26.232  -4.611  29.784  0.00  0.00    -0.000 C 
ATOM      8  C   UNL A   1     -26.155  -3.232  30.065  0.00  0.00    -0.004 C 
ENDBRANCH   2   3
BRANCH   2   9
ATOM      9  C   UNL A   1     -25.387  -0.679  31.571  0.00  0.00    +0.081 C 
ATOM     10  C   UNL A   1     -25.189   0.773  32.028  0.00  0.00    +0.019 C 
ATOM     11  C   UNL A   1     -25.336   0.684  33.544  0.00  0.00    +0.020 C 
ATOM     12  C   UNL A   1     -24.829  -0.715  33.905  0.00  0.00    +0.089 C 
ATOM     13  N   UNL A   1     -24.758  -1.481  32.646  0.00  0.00    -0.219 NA
ENDBRANCH   2   9
ENDBRANCH   1   2
BRANCH   1  14
ATOM     14  O   UNL A   1     -26.958  -0.032  29.172  0.00  0.00    -0.339 OA
BRANCH  14  15
ATOM     15  C   UNL A   1     -27.723   1.106  29.403  0.00  0.00    +0.144 C 
BRANCH  15  19
ATOM     16  C   UNL A   1     -29.211  -0.858  31.498  0.00  0.00    +0.016 C 
ATOM     17  C   UNL A   1     -29.393  -0.538  28.625  0.00  0.00    +0.004 C 
ATOM     18  C   UNL A   1     -29.547   0.567  31.067  0.00  0.00    +0.004 C 
ATOM     19  C   UNL A   1     -29.196   0.705  29.541  0.00  0.00    +0.030 C 
ATOM     20  C   UNL A   1     -30.111  -1.657  30.761  0.00  0.00    +0.060 C 
ATOM     21  C   UNL A   1     -30.416  -1.359  29.314  0.00  0.00    +0.016 C 
BRANCH  20  26
ATOM     22  C   UNL A   1     -29.694  -4.402  30.716  0.00  0.00    +0.020 C 
ATOM     23  O   UNL A   1     -33.009  -3.401  31.832  0.00  0.00    -0.336 OA
ATOM     24  C   UNL A   1     -31.057  -3.732  30.465  0.00  0.00    +0.089 C 
ATOM     25  C   UNL A   1     -32.316  -2.213  31.877  0.00  0.00    +0.220 C 
ATOM     26  N   UNL A   1     -31.075  -2.482  31.201  0.00  0.00    -0.248 NA
ATOM     27  C   UNL A   1     -32.438  -4.248  30.798  0.00  0.00    +0.160 C 
ENDBRANCH  20  26
ENDBRANCH  15  19
ENDBRANCH  14  15
ENDBRANCH   1  14
BRANCH   1  28
ATOM     28  N   UNL A   1     -24.683   0.691  28.377  0.00  0.00    -0.192 NA
BRANCH  28  32
ATOM     29  C   UNL A   1     -23.003   1.341  26.946  0.00  0.00    +0.035 C 
ATOM     30  N   UNL A   1     -20.970   0.902  28.067  0.00  0.00    -0.216 NA
ATOM     31  C   UNL A   1     -22.023   0.506  29.105  0.00  0.00    +0.106 C 
ATOM     32  C   UNL A   1     -23.177   0.260  28.020  0.00  0.00    +0.094 C 
ATOM     33  C   UNL A   1     -21.542   1.805  27.114  0.00  0.00    +0.090 C 
BRANCH  29  34
ATOM     34  C   UNL A   1     -24.204   1.593  26.228  0.00  0.00    +0.011 C 
BRANCH  34  35
ATOM     35  C   UNL A   1     -25.688   1.614  26.461  0.00  0.00    +0.070 C 
ATOM     36  C   UNL A   1     -26.250   2.920  26.395  0.00  0.00    +0.055 C 
ATOM     37  C   UNL A   1     -27.438   3.091  25.645  0.00  0.00    +0.102 C 
ATOM     38  N   UNL A   1     -28.075   2.089  25.003  0.00  0.00    -0.212 NA
ATOM     39  C   UNL A   1     -27.543   0.849  25.079  0.00  0.00    +0.234 C 
ATOM     40  C   UNL A   1     -26.354   0.576  25.777  0.00  0.00    +0.240 C 
ATOM     41  F   UNL A   1     -25.860  -0.681  25.795  0.00  0.00    -0.227 F 
BRANCH  36  42
ATOM     42  C   UNL A   1     -25.642   4.093  27.123  0.00  0.00    +0.262 C 
ATOM     43  N   UNL A   1     -25.614   5.252  26.449  0.00  0.00    -0.200 NA
ATOM     44  C   UNL A   1     -25.026   6.479  26.963  0.00  0.00    +0.139 C 
ATOM     45  O   UNL A   1     -25.143   3.966  28.243  0.00  0.00    -0.269 OA
ENDBRANCH  36  42
BRANCH  39  46
ATOM     46  O   UNL A   1     -28.193  -0.208  24.477  0.00  0.00    -0.459 OA
BRANCH  46  47
ATOM     47  C   UNL A   1     -29.460   0.005  23.866  0.00  0.00    +0.242 C 
BRANCH  47  48
ATOM     48  C   UNL A   1     -30.065  -1.377  23.573  0.00  0.00    +0.229 C 
ATOM     49  O   UNL A   1     -30.729  -1.878  24.721  0.00  0.00    -0.216 OA
ENDBRANCH  47  48
ENDBRANCH  46  47
ENDBRANCH  39  46
ENDBRANCH  34  35
ENDBRANCH  29  34
ENDBRANCH  28  32
ENDBRANCH   1  28
TORSDOF 15
