MODEL 2162
MODEL 1
REMARK VINA RESULT:    -5.562      0.000      0.000
REMARK INTER + INTRA:          -7.211
REMARK INTER:                  -6.863
REMARK INTRA:                  -0.348
REMARK UNBOUND:                -0.348
REMARK  Name = No_2162-gen_results/8p0m/2024-11-27-11-27-31/
REMARK  4 active torsions:
REMARK  status: ('A' for Active; 'I' for Inactive)
REMARK    1  A    between atoms: C_1  and  C_8
REMARK    2  A    between atoms: C_5  and  C_12
REMARK    3  A    between atoms: C_9  and  C_10
REMARK    4  A    between atoms: C_10  and  N_11
REMARK                            x       y       z     vdW  Elec       q    Type
REMARK                         _______ _______ _______ _____ _____    ______ ____
ROOT
ATOM      1  C   UNL A   1     -30.612 -10.713  29.537  0.00  0.00    -0.009 C 
ATOM      2  C   UNL A   1     -29.820 -11.011  30.402  0.00  0.00    -0.044 C 
ATOM      3  C   UNL A   1     -28.902 -11.933  30.361  0.00  0.00    +0.022 C 
ATOM      4  C   UNL A   1     -27.943 -12.264  31.444  0.00  0.00    +0.013 C 
ATOM      5  C   UNL A   1     -28.012 -11.462  32.618  0.00  0.00    +0.081 C 
ATOM      6  C   UNL A   1     -28.939 -10.451  32.641  0.00  0.00    +0.013 C 
ATOM      7  C   UNL A   1     -29.787 -10.170  31.624  0.00  0.00    +0.022 C 
ENDROOT
BRANCH   5   8
ATOM      8  C   UNL A   1     -27.149 -11.706  33.743  0.00  0.00    +0.260 C 
ATOM      9  O   UNL A   1     -26.757 -12.693  34.015  0.00  0.00    -0.272 OA
ATOM     10  N   UNL A   1     -26.972 -10.563  34.620  0.00  0.00    -0.088 NA
ENDBRANCH   5   8
BRANCH   1  11
ATOM     11  C   UNL A   1     -30.067 -10.819  28.112  0.00  0.00    -0.004 C 
ATOM     12  C   UNL A   1     -30.513 -10.328  27.216  0.00  0.00    -0.007 C 
BRANCH  12  13
ATOM     13  C   UNL A   1     -31.660  -9.712  27.227  0.00  0.00    +0.115 C 
BRANCH  13  14
ATOM     14  N   UNL A   1     -32.049  -8.747  26.943  0.00  0.00    -0.212 NA
ATOM     15  C   UNL A   1     -31.390  -7.537  26.747  0.00  0.00    +0.108 C 
ENDBRANCH  13  14
ENDBRANCH  12  13
ENDBRANCH   1  11
TORSDOF 4
ENDMDL
ENDMDL
