MODEL 2163
MODEL 1
REMARK VINA RESULT:    -6.465      0.000      0.000
REMARK INTER + INTRA:         -13.908
REMARK INTER:                 -10.245
REMARK INTRA:                  -3.664
REMARK UNBOUND:                -3.664
REMARK  Name = No_2163-gen_results/8p0m/2024-11-27-11-27-31/
REMARK  10 active torsions:
REMARK  status: ('A' for Active; 'I' for Inactive)
REMARK    1  A    between atoms: C_1  and  C_12
REMARK    2  A    between atoms: C_3  and  C_16
REMARK    3  A    between atoms: C_5  and  C_7
REMARK    4  A    between atoms: N_13  and  C_15
REMARK    5  A    between atoms: C_15  and  C_23
REMARK    6  A    between atoms: C_23  and  C_24
REMARK    7  A    between atoms: C_24  and  C_25
REMARK    8  A    between atoms: C_25  and  O_27
REMARK    9  A    between atoms: O_27  and  C_28
REMARK   10  A    between atoms: C_29  and  C_30
REMARK                            x       y       z     vdW  Elec       q    Type
REMARK                         _______ _______ _______ _____ _____    ______ ____
ROOT
ATOM      1  C   UNL A   1     -10.749   1.059  35.336  0.00  0.00    +0.055 A 
ATOM      2  C   UNL A   1     -10.966   0.672  36.462  0.00  0.00    +0.005 A 
ATOM      3  C   UNL A   1     -10.132  -0.153  37.196  0.00  0.00    +0.000 A 
ATOM      4  C   UNL A   1      -8.908  -0.550  36.582  0.00  0.00    +0.004 A 
ATOM      5  C   UNL A   1      -8.578  -0.050  35.686  0.00  0.00    +0.054 A 
ATOM      6  C   UNL A   1      -9.397   0.819  34.890  0.00  0.00    +0.009 A 
ENDROOT
BRANCH   3   7
ATOM      7  C   UNL A   1     -10.657  -0.812  38.475  0.00  0.00    +0.001 A 
ATOM      8  C   UNL A   1      -9.867  -0.599  39.522  0.00  0.00    +0.011 A 
ATOM      9  C   UNL A   1      -9.962  -1.596  40.641  0.00  0.00    +0.058 A 
ATOM     10  C   UNL A   1     -11.189  -2.288  40.709  0.00  0.00    +0.011 A 
ATOM     11  C   UNL A   1     -12.008  -2.381  39.583  0.00  0.00    +0.001 A 
ATOM     12  C   UNL A   1     -11.710  -1.677  38.446  0.00  0.00    +0.000 A 
ATOM     13 CL   UNL A   1      -9.076  -1.387  42.082  0.00  0.00    -0.082 Cl
ENDBRANCH   3   7
BRANCH   5  14
ATOM     14  C   UNL A   1      -7.240  -0.398  35.015  0.00  0.00    +0.249 C 
ATOM     15  N   UNL A   1      -6.320   0.218  35.259  0.00  0.00    -0.273 N 
ATOM     16  O   UNL A   1      -7.170  -1.375  34.166  0.00  0.00    -0.270 OA
ATOM     17  C   UNL A   1      -6.260   1.456  36.134  0.00  0.00    +0.115 C 
ATOM     18  C   UNL A   1      -4.895  -0.123  34.753  0.00  0.00    +0.115 C 
ENDBRANCH   5  14
BRANCH   1  19
ATOM     19  C   UNL A   1     -11.767   1.973  34.691  0.00  0.00    +0.265 C 
ATOM     20  N   UNL A   1     -12.916   1.869  34.790  0.00  0.00    -0.202 NA
ATOM     21  O   UNL A   1     -11.288   3.087  34.184  0.00  0.00    -0.268 OA
BRANCH  20  22
ATOM     22  C   UNL A   1     -13.924   2.896  34.426  0.00  0.00    +0.116 C 
BRANCH  22  23
ATOM     23  C   UNL A   1     -14.640   3.247  35.701  0.00  0.00    +0.035 C 
BRANCH  23  24
ATOM     24  C   UNL A   1     -14.273   2.691  36.840  0.00  0.00    +0.112 C 
BRANCH  24  25
ATOM     25  C   UNL A   1     -14.783   3.478  38.054  0.00  0.00    +0.322 C 
ATOM     26  O   UNL A   1     -15.801   3.999  38.103  0.00  0.00    -0.250 OA
BRANCH  25  27
ATOM     27  O   UNL A   1     -13.861   3.681  38.982  0.00  0.00    -0.421 OA
BRANCH  27  28
ATOM     28  C   UNL A   1     -12.502   3.751  38.676  0.00  0.00    +0.183 C 
ATOM     29  C   UNL A   1     -11.687   2.875  39.370  0.00  0.00    +0.041 C 
BRANCH  29  30
ATOM     30  C   UNL A   1     -11.892   2.275  40.241  0.00  0.00    +0.003 A 
ATOM     31  C   UNL A   1     -12.954   1.250  40.479  0.00  0.00    +0.000 A 
ATOM     32  C   UNL A   1     -13.179   0.511  41.597  0.00  0.00    +0.000 A 
ATOM     33  C   UNL A   1     -12.270   0.716  42.666  0.00  0.00    +0.000 A 
ATOM     34  C   UNL A   1     -11.204   1.578  42.595  0.00  0.00    +0.000 A 
ATOM     35  C   UNL A   1     -10.987   2.312  41.379  0.00  0.00    +0.000 A 
ENDBRANCH  29  30
ENDBRANCH  27  28
ENDBRANCH  25  27
ENDBRANCH  24  25
ENDBRANCH  23  24
ENDBRANCH  22  23
ENDBRANCH  20  22
ENDBRANCH   1  19
TORSDOF 10
ENDMDL
ENDMDL
