REMARK  Name = No_2164-gen_results/8p0m/2024-11-27-11-27-31/
REMARK  12 active torsions:
REMARK  status: ('A' for Active; 'I' for Inactive)
REMARK    1  A    between atoms: C_1  and  C_17
REMARK    2  A    between atoms: C_3  and  C_32
REMARK    3  A    between atoms: C_5  and  N_7
REMARK    4  A    between atoms: N_7  and  C_8
REMARK    5  A    between atoms: C_17  and  O_19
REMARK    6  A    between atoms: O_19  and  C_20
REMARK    7  A    between atoms: C_20  and  C_21
REMARK    8  A    between atoms: C_21  and  C_22
REMARK    9  A    between atoms: C_23  and  C_24
REMARK   10  A    between atoms: C_25  and  C_27
REMARK   11  A    between atoms: C_27  and  C_28
REMARK   12  A    between atoms: C_32  and  O_34
REMARK                            x       y       z     vdW  Elec       q    Type
REMARK                         _______ _______ _______ _____ _____    ______ ____
ROOT
ATOM      1  C   UNL A   1     -28.016  -0.814  28.878  0.00  0.00    +0.078 A 
ATOM      2  C   UNL A   1     -27.064  -0.119  28.608  0.00  0.00    +0.013 A 
ATOM      3  C   UNL A   1     -26.972   0.714  27.506  0.00  0.00    +0.077 A 
ATOM      4  C   UNL A   1     -28.105   0.774  26.642  0.00  0.00    +0.022 A 
ATOM      5  C   UNL A   1     -29.201   0.104  27.053  0.00  0.00    +0.062 A 
ATOM      6  C   UNL A   1     -29.210  -0.603  28.185  0.00  0.00    +0.022 A 
ENDROOT
BRANCH   5   7
ATOM      7  N   UNL A   1     -30.419   0.127  26.389  0.00  0.00    -0.201 N 
ATOM      8  C   UNL A   1     -30.494  -0.905  25.335  0.00  0.00    +0.455 C 
ATOM      9  O   UNL A   1     -31.351  -1.591  25.201  0.00  0.00    -0.222 OA
ATOM     10  O   UNL A   1     -29.438  -0.823  24.419  0.00  0.00    -0.222 OA
BRANCH   7  11
ATOM     11  C   UNL A   1     -31.323   1.043  26.596  0.00  0.00    +0.061 A 
ATOM     12  C   UNL A   1     -31.350   1.790  27.540  0.00  0.00    +0.015 A 
ATOM     13  C   UNL A   1     -32.445   2.818  27.714  0.00  0.00    +0.001 A 
ATOM     14  C   UNL A   1     -33.417   2.777  26.718  0.00  0.00    +0.000 A 
ATOM     15  C   UNL A   1     -32.346   1.025  25.520  0.00  0.00    +0.015 A 
ATOM     16  C   UNL A   1     -33.348   1.957  25.653  0.00  0.00    +0.001 A 
ENDBRANCH   7  11
ENDBRANCH   5   7
BRANCH   1  17
ATOM     17  C   UNL A   1     -28.010  -1.706  30.111  0.00  0.00    +0.348 C 
ATOM     18  O   UNL A   1     -28.666  -1.748  30.938  0.00  0.00    -0.244 OA
BRANCH  17  19
ATOM     19  O   UNL A   1     -26.820  -2.406  30.071  0.00  0.00    -0.389 OA
BRANCH  19  20
ATOM     20  C   UNL A   1     -26.949  -3.799  29.809  0.00  0.00    +0.328 C 
ATOM     21  O   UNL A   1     -28.069  -4.306  29.877  0.00  0.00    -0.249 OA
BRANCH  20  22
ATOM     22  C   UNL A   1     -25.685  -4.431  29.443  0.00  0.00    +0.136 C 
BRANCH  22  23
ATOM     23  C   UNL A   1     -24.660  -3.574  29.093  0.00  0.00    -0.015 C 
ATOM     24  C   UNL A   1     -24.429  -2.466  29.057  0.00  0.00    -0.005 C 
BRANCH  24  25
ATOM     25  C   UNL A   1     -23.134  -1.744  28.711  0.00  0.00    -0.009 C 
ATOM     26  C   UNL A   1     -22.744  -0.468  29.245  0.00  0.00    -0.038 C 
ATOM     27  C   UNL A   1     -21.738   0.238  28.646  0.00  0.00    +0.026 C 
BRANCH  26  28
ATOM     28  C   UNL A   1     -23.499   0.113  30.377  0.00  0.00    +0.094 C 
BRANCH  28  29
ATOM     29  C   UNL A   1     -23.575   1.595  30.399  0.00  0.00    +0.323 C 
ATOM     30  F   UNL A   1     -22.540   2.175  29.898  0.00  0.00    -0.198 F 
ATOM     31  F   UNL A   1     -24.494   2.126  30.965  0.00  0.00    -0.198 F 
ENDBRANCH  28  29
ENDBRANCH  26  28
ENDBRANCH  24  25
ENDBRANCH  22  23
ENDBRANCH  20  22
ENDBRANCH  19  20
ENDBRANCH  17  19
ENDBRANCH   1  17
BRANCH   3  32
ATOM     32  C   UNL A   1     -25.710   1.467  27.122  0.00  0.00    +0.341 C 
ATOM     33  O   UNL A   1     -25.649   2.177  26.256  0.00  0.00    -0.245 OA
BRANCH  32  34
ATOM     34  O   UNL A   1     -24.704   1.243  28.023  0.00  0.00    -0.441 OA
ATOM     35  C   UNL A   1     -23.473   1.808  27.601  0.00  0.00    +0.256 C 
ENDBRANCH  32  34
ENDBRANCH   3  32
TORSDOF 12
