MODEL 2164
MODEL 1
REMARK VINA RESULT:    -6.474      0.000      0.000
REMARK INTER + INTRA:         -14.387
REMARK INTER:                 -11.016
REMARK INTRA:                  -3.370
REMARK UNBOUND:                -3.370
REMARK  Name = No_2164-gen_results/8p0m/2024-11-27-11-27-31/
REMARK  12 active torsions:
REMARK  status: ('A' for Active; 'I' for Inactive)
REMARK    1  A    between atoms: C_1  and  C_17
REMARK    2  A    between atoms: C_3  and  C_32
REMARK    3  A    between atoms: C_5  and  N_7
REMARK    4  A    between atoms: N_7  and  C_8
REMARK    5  A    between atoms: C_17  and  O_19
REMARK    6  A    between atoms: O_19  and  C_20
REMARK    7  A    between atoms: C_20  and  C_21
REMARK    8  A    between atoms: C_21  and  C_22
REMARK    9  A    between atoms: C_23  and  C_24
REMARK   10  A    between atoms: C_25  and  C_27
REMARK   11  A    between atoms: C_27  and  C_28
REMARK   12  A    between atoms: C_32  and  O_34
REMARK                            x       y       z     vdW  Elec       q    Type
REMARK                         _______ _______ _______ _____ _____    ______ ____
ROOT
ATOM      1  C   UNL A   1     -25.269   2.043  29.520  0.00  0.00    +0.078 A 
ATOM      2  C   UNL A   1     -24.506   2.264  28.609  0.00  0.00    +0.013 A 
ATOM      3  C   UNL A   1     -23.461   1.441  28.226  0.00  0.00    +0.077 A 
ATOM      4  C   UNL A   1     -23.296   0.223  28.949  0.00  0.00    +0.022 A 
ATOM      5  C   UNL A   1     -24.252  -0.062  29.857  0.00  0.00    +0.062 A 
ATOM      6  C   UNL A   1     -25.272   0.767  30.088  0.00  0.00    +0.022 A 
ENDROOT
BRANCH   5   7
ATOM      7  N   UNL A   1     -24.304  -1.243  30.584  0.00  0.00    -0.201 N 
ATOM      8  C   UNL A   1     -23.621  -1.121  31.888  0.00  0.00    +0.455 C 
ATOM      9  O   UNL A   1     -24.055  -1.456  32.848  0.00  0.00    -0.222 OA
ATOM     10  O   UNL A   1     -22.297  -0.681  31.767  0.00  0.00    -0.222 OA
BRANCH   7  11
ATOM     11  C   UNL A   1     -24.788  -2.353  30.101  0.00  0.00    +0.061 A 
ATOM     12  C   UNL A   1     -25.902  -2.766  30.293  0.00  0.00    +0.015 A 
ATOM     13  C   UNL A   1     -26.381  -4.074  29.706  0.00  0.00    +0.001 A 
ATOM     14  C   UNL A   1     -25.407  -4.754  28.980  0.00  0.00    +0.000 A 
ATOM     15  C   UNL A   1     -23.763  -3.067  29.299  0.00  0.00    +0.015 A 
ATOM     16  C   UNL A   1     -24.178  -4.257  28.748  0.00  0.00    +0.001 A 
ENDBRANCH   7  11
ENDBRANCH   5   7
BRANCH   1  17
ATOM     17  C   UNL A   1     -26.380   3.023  29.868  0.00  0.00    +0.348 C 
ATOM     18  O   UNL A   1     -27.415   2.871  30.018  0.00  0.00    -0.244 OA
BRANCH  17  19
ATOM     19  O   UNL A   1     -25.818   4.282  29.788  0.00  0.00    -0.389 OA
BRANCH  19  20
ATOM     20  C   UNL A   1     -26.527   5.208  28.972  0.00  0.00    +0.328 C 
ATOM     21  O   UNL A   1     -27.470   5.824  29.470  0.00  0.00    -0.249 OA
BRANCH  20  22
ATOM     22  C   UNL A   1     -25.977   5.321  27.625  0.00  0.00    +0.136 C 
BRANCH  22  23
ATOM     23  C   UNL A   1     -26.577   4.536  26.660  0.00  0.00    -0.015 C 
ATOM     24  C   UNL A   1     -26.453   3.528  26.159  0.00  0.00    -0.005 C 
BRANCH  24  25
ATOM     25  C   UNL A   1     -27.343   2.817  25.149  0.00  0.00    -0.009 C 
ATOM     26  C   UNL A   1     -27.504   1.391  25.066  0.00  0.00    -0.038 C 
ATOM     27  C   UNL A   1     -28.060   0.836  23.947  0.00  0.00    +0.026 C 
BRANCH  26  28
ATOM     28  C   UNL A   1     -26.978   0.531  26.149  0.00  0.00    +0.094 C 
BRANCH  28  29
ATOM     29  C   UNL A   1     -25.673  -0.119  25.871  0.00  0.00    +0.323 C 
ATOM     30  F   UNL A   1     -25.320  -0.977  26.764  0.00  0.00    -0.198 F 
ATOM     31  F   UNL A   1     -25.012   0.269  24.944  0.00  0.00    -0.198 F 
ENDBRANCH  28  29
ENDBRANCH  26  28
ENDBRANCH  24  25
ENDBRANCH  22  23
ENDBRANCH  20  22
ENDBRANCH  19  20
ENDBRANCH  17  19
ENDBRANCH   1  17
BRANCH   3  32
ATOM     32  C   UNL A   1     -22.438   1.815  27.167  0.00  0.00    +0.341 C 
ATOM     33  O   UNL A   1     -21.364   1.493  27.200  0.00  0.00    -0.245 OA
BRANCH  32  34
ATOM     34  O   UNL A   1     -23.019   2.499  26.134  0.00  0.00    -0.441 OA
ATOM     35  C   UNL A   1     -22.328   2.308  24.910  0.00  0.00    +0.256 C 
ENDBRANCH  32  34
ENDBRANCH   3  32
TORSDOF 12
ENDMDL
ENDMDL
