MODEL 2166
MODEL 1
REMARK VINA RESULT:    -8.015      0.000      0.000
REMARK INTER + INTRA:          -8.572
REMARK INTER:                  -8.483
REMARK INTRA:                  -0.089
REMARK UNBOUND:                -0.089
REMARK  Name = No_2166-gen_results/8p0m/2024-11-27-11-27-31/
REMARK  1 active torsions:
REMARK  status: ('A' for Active; 'I' for Inactive)
REMARK    1  A    between atoms: C_6  and  C_8
REMARK                            x       y       z     vdW  Elec       q    Type
REMARK                         _______ _______ _______ _____ _____    ______ ____
ROOT
ATOM      1  C   UNL A   1     -13.228 -22.335  21.042  0.00  0.00    +0.136 C 
ATOM      2 BR   UNL A   1     -13.653 -23.510  20.911  0.00  0.00    -0.066 Br
ATOM      3  C   UNL A   1     -13.540 -21.517  22.280  0.00  0.00    +0.075 C 
ATOM      4  C   UNL A   1     -11.602 -22.364  21.451  0.00  0.00    +0.014 A 
ATOM      5  C   UNL A   1     -10.883 -23.432  21.138  0.00  0.00    -0.001 A 
ATOM      6  C   UNL A   1     -10.999 -21.342  22.197  0.00  0.00    +0.089 A 
ATOM      7  C   UNL A   1      -9.564 -21.528  22.454  0.00  0.00    +0.018 A 
ATOM      8  C   UNL A   1      -9.474 -23.655  21.473  0.00  0.00    -0.000 A 
ATOM      9  C   UNL A   1      -8.871 -22.613  22.161  0.00  0.00    +0.001 A 
ATOM     10  N   UNL A   1     -11.866 -20.577  22.763  0.00  0.00    -0.118 NA
ATOM     11  N   UNL A   1     -13.068 -20.612  22.741  0.00  0.00    -0.166 NA
ATOM     12  C   UNL A   1     -15.079 -21.710  22.508  0.00  0.00    +0.051 C 
ENDROOT
BRANCH   1  18
ATOM     13  C   UNL A   1     -14.086 -19.476  19.157  0.00  0.00    +0.250 A 
ATOM     14  N   UNL A   1     -14.030 -20.215  19.882  0.00  0.00    -0.219 NA
ATOM     15  F   UNL A   1     -14.842 -18.553  19.153  0.00  0.00    -0.181 F 
ATOM     16  C   UNL A   1     -13.214 -19.482  17.892  0.00  0.00    +0.186 A 
ATOM     17  C   UNL A   1     -12.376 -20.602  17.753  0.00  0.00    +0.035 A 
ATOM     18  C   UNL A   1     -13.189 -21.379  19.909  0.00  0.00    +0.080 A 
ATOM     19  C   UNL A   1     -12.366 -21.573  18.812  0.00  0.00    +0.019 A 
ATOM     20  F   UNL A   1     -13.344 -18.591  17.025  0.00  0.00    -0.200 F 
ENDBRANCH   1  18
TORSDOF 1
ENDMDL
ENDMDL
