REMARK  Name = outputs/IAG933/test6/raw/output_2166_IAG933_linker_design_.xyz
REMARK  9 active torsions:
REMARK  status: ('A' for Active; 'I' for Inactive)
REMARK    1  A    between atoms: C_1  and  C_2
REMARK    2  A    between atoms: C_1  and  C_8
REMARK    3  A    between atoms: C_1  and  O_39
REMARK    4  A    between atoms: C_13  and  C_31
REMARK    5  A    between atoms: C_14  and  C_15
REMARK    6  A    between atoms: C_21  and  O_22
REMARK    7  A    between atoms: O_22  and  C_23
REMARK    8  A    between atoms: C_23  and  C_24
REMARK    9  A    between atoms: C_28  and  O_39
REMARK                            x       y       z     vdW  Elec       q    Type
REMARK                         _______ _______ _______ _____ _____    ______ ____
ROOT
ATOM      1  C   UNL A   1     -22.447  -0.135  29.531  0.00  0.00    +0.155 C 
ATOM      2  C   UNL A   1     -21.734   1.032  27.440  0.00  0.00    +0.053 A 
ATOM      3  C   UNL A   1     -21.938   1.336  26.125  0.00  0.00    +0.168 A 
ATOM      4  C   UNL A   1     -24.311   1.288  26.722  0.00  0.00    +0.095 A 
ATOM      5  C   UNL A   1     -21.049  -0.840  29.453  0.00  0.00    +0.039 C 
ATOM      6  F   UNL A   1     -20.950   1.411  25.276  0.00  0.00    -0.202 F 
ATOM      7  C   UNL A   1     -20.655   1.027  28.155  0.00  0.00    +0.178 C 
ATOM      8  C   UNL A   1     -22.864   0.558  28.299  0.00  0.00    +0.086 A 
ATOM      9  C   UNL A   1     -20.713  -0.647  28.287  0.00  0.00    +0.041 C 
ATOM     10  O   UNL A   1     -19.552   1.925  28.182  0.00  0.00    -0.218 OA
ATOM     11  C   UNL A   1     -23.305   1.413  25.712  0.00  0.00    +0.181 A 
ATOM     12  N   UNL A   1     -24.074   0.753  27.911  0.00  0.00    -0.249 NA
ATOM     13  F   UNL A   1     -23.538   1.506  24.409  0.00  0.00    -0.201 F 
ENDROOT
BRANCH   4  14
ATOM     14  C   UNL A   1     -25.688   1.614  26.461  0.00  0.00    +0.113 C 
ATOM     15  C   UNL A   1     -26.250   2.920  26.395  0.00  0.00    +0.060 C 
ATOM     16  C   UNL A   1     -27.438   3.091  25.645  0.00  0.00    +0.102 C 
ATOM     17  N   UNL A   1     -28.075   2.089  25.003  0.00  0.00    -0.212 NA
ATOM     18  C   UNL A   1     -27.543   0.849  25.079  0.00  0.00    +0.234 C 
ATOM     19  C   UNL A   1     -26.354   0.576  25.777  0.00  0.00    +0.246 C 
ATOM     20  F   UNL A   1     -25.860  -0.681  25.795  0.00  0.00    -0.227 F 
BRANCH  15  21
ATOM     21  C   UNL A   1     -25.642   4.093  27.123  0.00  0.00    +0.263 C 
ATOM     22  N   UNL A   1     -25.614   5.252  26.449  0.00  0.00    -0.200 NA
ATOM     23  C   UNL A   1     -25.026   6.479  26.963  0.00  0.00    +0.139 C 
ATOM     24  O   UNL A   1     -25.143   3.966  28.243  0.00  0.00    -0.269 OA
ENDBRANCH  15  21
BRANCH  18  25
ATOM     25  O   UNL A   1     -28.193  -0.208  24.477  0.00  0.00    -0.459 OA
BRANCH  25  26
ATOM     26  C   UNL A   1     -29.460   0.005  23.866  0.00  0.00    +0.242 C 
BRANCH  26  27
ATOM     27  C   UNL A   1     -30.065  -1.377  23.573  0.00  0.00    +0.229 C 
ATOM     28  O   UNL A   1     -30.729  -1.878  24.721  0.00  0.00    -0.216 OA
ENDBRANCH  26  27
ENDBRANCH  25  26
ENDBRANCH  18  25
ENDBRANCH   4  14
BRANCH   1  29
ATOM     29  O   UNL A   1     -23.654  -0.678  30.151  0.00  0.00    -0.347 OA
BRANCH  29  30
ATOM     30  C   UNL A   1     -24.855  -1.012  30.143  0.00  0.00    +0.154 C 
BRANCH  30  31
ATOM     31  C   UNL A   1     -24.973  -2.505  29.788  0.00  0.00    +0.006 C 
ATOM     32  C   UNL A   1     -23.906  -3.173  29.146  0.00  0.00    -0.002 C 
ATOM     33  C   UNL A   1     -23.989  -4.549  28.853  0.00  0.00    -0.000 C 
ATOM     34  C   UNL A   1     -25.137  -5.280  29.205  0.00  0.00    -0.000 C 
ATOM     35  C   UNL A   1     -26.232  -4.611  29.784  0.00  0.00    -0.000 C 
ATOM     36  C   UNL A   1     -26.155  -3.232  30.065  0.00  0.00    -0.002 C 
ENDBRANCH  30  31
BRANCH  30  37
ATOM     37  C   UNL A   1     -25.387  -0.679  31.571  0.00  0.00    +0.104 C 
ATOM     38  C   UNL A   1     -25.189   0.773  32.028  0.00  0.00    +0.022 C 
ATOM     39  C   UNL A   1     -25.336   0.684  33.544  0.00  0.00    +0.020 C 
ATOM     40  C   UNL A   1     -24.829  -0.715  33.905  0.00  0.00    +0.089 C 
ATOM     41  N   UNL A   1     -24.758  -1.481  32.646  0.00  0.00    -0.217 NA
ENDBRANCH  30  37
ENDBRANCH  29  30
ENDBRANCH   1  29
TORSDOF 9
