MODEL 2167
MODEL 1
REMARK VINA RESULT:    -4.689      0.000      0.000
REMARK INTER + INTRA:          -5.320
REMARK INTER:                  -5.237
REMARK INTRA:                  -0.083
REMARK UNBOUND:                -0.083
REMARK  Name = No_2167-gen_results/8p0m/2024-11-27-11-27-31/
REMARK  2 active torsions:
REMARK  status: ('A' for Active; 'I' for Inactive)
REMARK    1  A    between atoms: C_1  and  C_2
REMARK    2  A    between atoms: C_1  and  C_8
REMARK                            x       y       z     vdW  Elec       q    Type
REMARK                         _______ _______ _______ _____ _____    ______ ____
ROOT
ATOM      1  C   UNL A   1     -24.261  -2.729  29.077  0.00  0.00    -0.016 A 
ATOM      2  C   UNL A   1     -24.016  -4.091  28.902  0.00  0.00    -0.004 A 
ATOM      3  C   UNL A   1     -24.974  -5.200  29.073  0.00  0.00    -0.000 A 
ATOM      4  C   UNL A   1     -26.223  -4.854  29.675  0.00  0.00    -0.000 A 
ATOM      5  C   UNL A   1     -26.493  -3.502  29.910  0.00  0.00    -0.000 A 
ATOM      6  C   UNL A   1     -25.606  -2.514  29.657  0.00  0.00    -0.004 A 
ENDROOT
BRANCH   1   7
ATOM      7  C   UNL A   1     -23.426  -1.872  28.908  0.00  0.00    +0.075 C 
BRANCH   7   8
ATOM      8  C   UNL A   1     -23.183  -1.000  30.088  0.00  0.00    +0.100 C 
ATOM      9  N   UNL A   1     -22.298  -0.498  30.255  0.00  0.00    -0.151 NA
ENDBRANCH   7   8
ENDBRANCH   1   7
TORSDOF 2
ENDMDL
ENDMDL
