MODEL 2169
MODEL 1
REMARK VINA RESULT:    -5.092      0.000      0.000
REMARK INTER + INTRA:          -5.591
REMARK INTER:                  -5.390
REMARK INTRA:                  -0.201
REMARK UNBOUND:                -0.201
REMARK  Name = No_2169-gen_results/8p0m/2024-11-27-11-27-31/
REMARK  1 active torsions:
REMARK  status: ('A' for Active; 'I' for Inactive)
REMARK    1  A    between atoms: C_1  and  C_8
REMARK                            x       y       z     vdW  Elec       q    Type
REMARK                         _______ _______ _______ _____ _____    ______ ____
ROOT
ATOM      1  C   UNL A   1     -24.401  -1.367  29.871  0.00  0.00    +0.036 C 
ATOM      2  C   UNL A   1     -24.695  -2.502  29.577  0.00  0.00    -0.043 C 
ATOM      3  C   UNL A   1     -23.818  -3.391  28.957  0.00  0.00    +0.022 C 
ATOM      4  C   UNL A   1     -24.095  -4.783  28.554  0.00  0.00    +0.004 C 
ATOM      5  C   UNL A   1     -25.323  -5.335  29.031  0.00  0.00    +0.001 C 
ATOM      6  C   UNL A   1     -26.215  -4.490  29.699  0.00  0.00    +0.004 C 
ATOM      7  C   UNL A   1     -26.029  -3.042  29.786  0.00  0.00    +0.022 C 
ENDROOT
BRANCH   1   8
ATOM      8  C   UNL A   1     -23.321  -0.664  29.103  0.00  0.00    +0.340 C 
ATOM      9  F   UNL A   1     -23.427   0.105  28.437  0.00  0.00    -0.193 F 
ATOM     10  F   UNL A   1     -22.298  -0.448  30.048  0.00  0.00    -0.193 F 
ENDBRANCH   1   8
TORSDOF 1
ENDMDL
ENDMDL
