REMARK  Name = outputs/IAG933/test6/raw/output_2169_IAG933_linker_design_.xyz
REMARK  11 active torsions:
REMARK  status: ('A' for Active; 'I' for Inactive)
REMARK    1  A    between atoms: C_1  and  C_2
REMARK    2  A    between atoms: C_1  and  C_8
REMARK    3  A    between atoms: C_1  and  N_35
REMARK    4  A    between atoms: C_13  and  C_38
REMARK    5  A    between atoms: C_14  and  C_15
REMARK    6  A    between atoms: C_21  and  O_22
REMARK    7  A    between atoms: O_22  and  C_23
REMARK    8  A    between atoms: C_23  and  C_24
REMARK    9  A    between atoms: C_28  and  O_33
REMARK   10  A    between atoms: C_31  and  C_40
REMARK   11  A    between atoms: O_33  and  C_40
REMARK                            x       y       z     vdW  Elec       q    Type
REMARK                         _______ _______ _______ _____ _____    ______ ____
ROOT
ATOM      1  C   UNL A   1     -25.150   0.617  28.571  0.00  0.00    +0.199 C 
ATOM      2 CL   UNL A   1     -22.916   2.324  25.331  0.00  0.00    -0.080 Cl
ATOM      3  C   UNL A   1     -22.101   0.392  28.658  0.00  0.00    +0.047 C 
ATOM      4  N   UNL A   1     -24.329  -0.089  29.329  0.00  0.00    -0.254 N 
ATOM      5  C   UNL A   1     -24.676   1.256  27.288  0.00  0.00    +0.064 C 
ATOM      6  C   UNL A   1     -23.007  -0.087  29.444  0.00  0.00    +0.070 C 
ATOM      7  F   UNL A   1     -20.969   1.710  27.220  0.00  0.00    -0.203 F 
ATOM      8  C   UNL A   1     -23.269   1.498  26.855  0.00  0.00    +0.089 C 
ATOM      9  C   UNL A   1     -22.113   1.205  27.575  0.00  0.00    +0.152 C 
ENDROOT
BRANCH   5  10
ATOM     10  C   UNL A   1     -25.688   1.614  26.461  0.00  0.00    +0.043 C 
ATOM     11  C   UNL A   1     -26.250   2.920  26.395  0.00  0.00    +0.077 C 
ATOM     12  C   UNL A   1     -27.438   3.091  25.645  0.00  0.00    +0.107 C 
ATOM     13  N   UNL A   1     -28.075   2.089  25.003  0.00  0.00    -0.208 NA
ATOM     14  C   UNL A   1     -27.543   0.849  25.079  0.00  0.00    +0.253 C 
ATOM     15  C   UNL A   1     -26.354   0.576  25.777  0.00  0.00    +0.193 C 
ATOM     16  F   UNL A   1     -25.860  -0.681  25.795  0.00  0.00    -0.199 F 
BRANCH  11  17
ATOM     17  C   UNL A   1     -25.642   4.093  27.123  0.00  0.00    +0.266 C 
ATOM     18  N   UNL A   1     -25.614   5.252  26.449  0.00  0.00    -0.200 NA
ATOM     19  C   UNL A   1     -25.026   6.479  26.963  0.00  0.00    +0.139 C 
ATOM     20  O   UNL A   1     -25.143   3.966  28.243  0.00  0.00    -0.268 OA
ENDBRANCH  11  17
BRANCH  14  21
ATOM     21  O   UNL A   1     -28.193  -0.208  24.477  0.00  0.00    -0.456 OA
BRANCH  21  22
ATOM     22  C   UNL A   1     -29.460   0.005  23.866  0.00  0.00    +0.243 C 
BRANCH  22  23
ATOM     23  C   UNL A   1     -30.065  -1.377  23.573  0.00  0.00    +0.229 C 
ATOM     24  O   UNL A   1     -30.729  -1.878  24.721  0.00  0.00    -0.216 OA
ENDBRANCH  22  23
ENDBRANCH  21  22
ENDBRANCH  14  21
ENDBRANCH   5  10
BRANCH   4  25
ATOM     25  C   UNL A   1     -24.855  -1.012  30.143  0.00  0.00    +0.118 C 
BRANCH  25  26
ATOM     26  C   UNL A   1     -24.973  -2.505  29.788  0.00  0.00    -0.003 C 
ATOM     27  C   UNL A   1     -23.906  -3.173  29.146  0.00  0.00    -0.003 C 
ATOM     28  C   UNL A   1     -23.989  -4.549  28.853  0.00  0.00    -0.000 C 
ATOM     29  C   UNL A   1     -25.137  -5.280  29.205  0.00  0.00    -0.000 C 
ATOM     30  C   UNL A   1     -26.232  -4.611  29.784  0.00  0.00    -0.000 C 
ATOM     31  C   UNL A   1     -26.155  -3.232  30.065  0.00  0.00    -0.003 C 
ENDBRANCH  25  26
BRANCH  25  32
ATOM     32  C   UNL A   1     -25.387  -0.679  31.571  0.00  0.00    +0.096 C 
ATOM     33  C   UNL A   1     -25.189   0.773  32.028  0.00  0.00    +0.021 C 
ATOM     34  C   UNL A   1     -25.336   0.684  33.544  0.00  0.00    +0.020 C 
ATOM     35  C   UNL A   1     -24.829  -0.715  33.905  0.00  0.00    +0.089 C 
ATOM     36  N   UNL A   1     -24.758  -1.481  32.646  0.00  0.00    -0.217 NA
ENDBRANCH  25  32
ENDBRANCH   4  25
BRANCH   1  37
ATOM     37  O   UNL A   1     -26.576   0.090  28.640  0.00  0.00    -0.458 OA
BRANCH  37  38
ATOM     38  C   UNL A   1     -27.382   0.885  29.532  0.00  0.00    +0.234 C 
BRANCH  38  40
ATOM     39  C   UNL A   1     -31.712   0.492  29.079  0.00  0.00    +0.042 C 
ATOM     40  C   UNL A   1     -28.923   0.693  29.386  0.00  0.00    +0.024 C 
ATOM     41  O   UNL A   1     -31.416  -1.124  27.363  0.00  0.00    -0.287 OA
ATOM     42  C   UNL A   1     -29.440  -0.266  28.486  0.00  0.00    +0.041 C 
ATOM     43  C   UNL A   1     -31.176   1.434  29.952  0.00  0.00    +0.003 C 
ATOM     44  C   UNL A   1     -30.831  -0.368  28.296  0.00  0.00    +0.196 C 
ATOM     45  C   UNL A   1     -29.797   1.513  30.131  0.00  0.00    -0.001 C 
ENDBRANCH  38  40
ENDBRANCH  37  38
ENDBRANCH   1  37
TORSDOF 11
