MODEL 216
MODEL 1
REMARK VINA RESULT:    -5.581      0.000      0.000
REMARK INTER + INTRA:          -5.754
REMARK INTER:                  -5.908
REMARK INTRA:                   0.154
REMARK UNBOUND:                 0.154
REMARK  Name = No_216-gen_results/8p0m/2024-11-27-11-27-31/
REMARK  1 active torsions:
REMARK  status: ('A' for Active; 'I' for Inactive)
REMARK    1  A    between atoms: N_4  and  C_13
REMARK                            x       y       z     vdW  Elec       q    Type
REMARK                         _______ _______ _______ _____ _____    ______ ____
ROOT
ATOM      1  O   UNL A   1     -26.324  -1.810  28.641  0.00  0.00    -0.275 OA
ATOM      2  C   UNL A   1     -25.266  -1.370  28.610  0.00  0.00    +0.229 C 
ATOM      3  C   UNL A   1     -24.222  -2.222  28.976  0.00  0.00    +0.081 C 
ATOM      4  N   UNL A   1     -24.972  -0.248  27.867  0.00  0.00    -0.259 N 
ATOM      5  C   UNL A   1     -24.205  -3.459  28.917  0.00  0.00    +0.010 C 
ATOM      6  C   UNL A   1     -23.760   0.346  27.741  0.00  0.00    +0.050 A 
ATOM      7  C   UNL A   1     -23.548   1.217  27.040  0.00  0.00    +0.015 A 
ATOM      8  C   UNL A   1     -22.244   1.907  26.848  0.00  0.00    +0.001 A 
ATOM      9  C   UNL A   1     -21.206   1.407  27.634  0.00  0.00    -0.000 A 
ATOM     10  C   UNL A   1     -21.467   0.360  28.496  0.00  0.00    -0.003 A 
ATOM     11  C   UNL A   1     -22.680  -0.230  28.616  0.00  0.00    -0.008 A 
ATOM     12  C   UNL A   1     -22.850  -1.439  29.240  0.00  0.00    +0.037 C 
ENDROOT
BRANCH   4  13
ATOM     13  C   UNL A   1     -26.138   0.343  27.283  0.00  0.00    +0.098 C 
ATOM     14  C   UNL A   1     -26.261   0.025  25.843  0.00  0.00    +0.024 C 
ENDBRANCH   4  13
TORSDOF 1
ENDMDL
ENDMDL
