REMARK  Name = outputs/IAG933/test6/raw/output_217_IAG933_linker_design_.xyz
REMARK  12 active torsions:
REMARK  status: ('A' for Active; 'I' for Inactive)
REMARK    1  A    between atoms: C_1  and  C_2
REMARK    2  A    between atoms: C_1  and  C_8
REMARK    3  A    between atoms: C_1  and  C_36
REMARK    4  A    between atoms: C_13  and  N_32
REMARK    5  A    between atoms: C_14  and  C_15
REMARK    6  A    between atoms: C_21  and  O_22
REMARK    7  A    between atoms: O_22  and  C_23
REMARK    8  A    between atoms: C_23  and  C_24
REMARK    9  A    between atoms: C_28  and  C_37
REMARK   10  A    between atoms: C_34  and  C_39
REMARK   11  A    between atoms: C_34  and  C_41
REMARK   12  A    between atoms: C_37  and  C_39
REMARK                            x       y       z     vdW  Elec       q    Type
REMARK                         _______ _______ _______ _____ _____    ______ ____
ROOT
ATOM      1  O   UNL A   1     -23.295   2.089  26.291  0.00  0.00    -0.275 OA
ATOM      2  N   UNL A   1     -25.004   1.151  27.383  0.00  0.00    -0.269 N 
ATOM      3  C   UNL A   1     -21.285   1.250  27.744  0.00  0.00    +0.010 C 
ATOM      4  C   UNL A   1     -24.434  -0.184  29.347  0.00  0.00    +0.031 C 
ATOM      5  C   UNL A   1     -23.786   1.411  27.228  0.00  0.00    +0.226 C 
ATOM      6  C   UNL A   1     -23.201   0.283  29.155  0.00  0.00    +0.011 C 
ATOM      7  C   UNL A   1     -25.675   0.311  28.406  0.00  0.00    +0.133 C 
ATOM      8  C   UNL A   1     -22.723   0.909  28.117  0.00  0.00    +0.077 C 
ENDROOT
BRANCH   2   9
ATOM      9  C   UNL A   1     -25.688   1.614  26.461  0.00  0.00    +0.146 C 
ATOM     10  C   UNL A   1     -26.250   2.920  26.395  0.00  0.00    +0.073 C 
ATOM     11  C   UNL A   1     -27.438   3.091  25.645  0.00  0.00    +0.104 C 
ATOM     12  N   UNL A   1     -28.075   2.089  25.003  0.00  0.00    -0.212 NA
ATOM     13  C   UNL A   1     -27.543   0.849  25.079  0.00  0.00    +0.236 C 
ATOM     14  C   UNL A   1     -26.354   0.576  25.777  0.00  0.00    +0.258 C 
ATOM     15  F   UNL A   1     -25.860  -0.681  25.795  0.00  0.00    -0.225 F 
BRANCH  10  16
ATOM     16  C   UNL A   1     -25.642   4.093  27.123  0.00  0.00    +0.264 C 
ATOM     17  N   UNL A   1     -25.614   5.252  26.449  0.00  0.00    -0.200 NA
ATOM     18  C   UNL A   1     -25.026   6.479  26.963  0.00  0.00    +0.139 C 
ATOM     19  O   UNL A   1     -25.143   3.966  28.243  0.00  0.00    -0.269 OA
ENDBRANCH  10  16
BRANCH  13  20
ATOM     20  O   UNL A   1     -28.193  -0.208  24.477  0.00  0.00    -0.459 OA
BRANCH  20  21
ATOM     21  C   UNL A   1     -29.460   0.005  23.866  0.00  0.00    +0.242 C 
BRANCH  21  22
ATOM     22  C   UNL A   1     -30.065  -1.377  23.573  0.00  0.00    +0.229 C 
ATOM     23  O   UNL A   1     -30.729  -1.878  24.721  0.00  0.00    -0.216 OA
ENDBRANCH  21  22
ENDBRANCH  20  21
ENDBRANCH  13  20
ENDBRANCH   2   9
BRANCH   7  25
ATOM     24  O   UNL A   1     -27.848  -0.819  28.967  0.00  0.00    -0.294 OA
ATOM     25  C   UNL A   1     -27.391   0.220  28.991  0.00  0.00    +0.169 C 
BRANCH  25  26
ATOM     26  C   UNL A   1     -28.119   1.305  29.076  0.00  0.00    +0.076 C 
BRANCH  26  27
ATOM     27  C   UNL A   1     -27.830   2.761  29.212  0.00  0.00    +0.096 C 
BRANCH  27  28
ATOM     28  C   UNL A   1     -27.621   3.134  30.690  0.00  0.00    +0.261 C 
ATOM     29  O   UNL A   1     -26.630   3.689  30.998  0.00  0.00    -0.272 OA
ATOM     30  N   UNL A   1     -28.549   2.684  31.585  0.00  0.00    -0.088 NA
ENDBRANCH  27  28
ENDBRANCH  26  27
ENDBRANCH  25  26
ENDBRANCH   7  25
BRANCH   4  31
ATOM     31  C   UNL A   1     -24.855  -1.012  30.143  0.00  0.00    +0.040 C 
BRANCH  31  32
ATOM     32  C   UNL A   1     -24.973  -2.505  29.788  0.00  0.00    -0.021 C 
ATOM     33  C   UNL A   1     -23.906  -3.173  29.146  0.00  0.00    -0.004 C 
ATOM     34  C   UNL A   1     -23.989  -4.549  28.853  0.00  0.00    -0.000 C 
ATOM     35  C   UNL A   1     -25.137  -5.280  29.205  0.00  0.00    -0.000 C 
ATOM     36  C   UNL A   1     -26.232  -4.611  29.784  0.00  0.00    -0.000 C 
ATOM     37  C   UNL A   1     -26.155  -3.232  30.065  0.00  0.00    -0.004 C 
ENDBRANCH  31  32
BRANCH  31  38
ATOM     38  C   UNL A   1     -25.387  -0.679  31.571  0.00  0.00    +0.077 C 
ATOM     39  C   UNL A   1     -25.189   0.773  32.028  0.00  0.00    +0.019 C 
ATOM     40  C   UNL A   1     -25.336   0.684  33.544  0.00  0.00    +0.020 C 
ATOM     41  C   UNL A   1     -24.829  -0.715  33.905  0.00  0.00    +0.089 C 
ATOM     42  N   UNL A   1     -24.758  -1.481  32.646  0.00  0.00    -0.219 NA
ENDBRANCH  31  38
ENDBRANCH   4  31
TORSDOF 12
