MODEL 2171
MODEL 1
REMARK VINA RESULT:    -6.733      0.000      0.000
REMARK INTER + INTRA:          -9.180
REMARK INTER:                  -8.308
REMARK INTRA:                  -0.872
REMARK UNBOUND:                -0.872
REMARK  Name = No_2171-gen_results/8p0m/2024-11-27-11-27-31/
REMARK  4 active torsions:
REMARK  status: ('A' for Active; 'I' for Inactive)
REMARK    1  A    between atoms: C_5  and  C_11
REMARK    2  A    between atoms: C_8  and  O_15
REMARK    3  A    between atoms: C_10  and  C_23
REMARK    4  A    between atoms: O_15  and  C_16
REMARK                            x       y       z     vdW  Elec       q    Type
REMARK                         _______ _______ _______ _____ _____    ______ ____
ROOT
ATOM      1  C   UNL A   1      -9.761   2.982   8.866  0.00  0.00    +0.038 A 
ATOM      2  C   UNL A   1      -8.909   2.146   9.060  0.00  0.00    +0.003 A 
ATOM      3  C   UNL A   1      -8.691   1.548  10.258  0.00  0.00    +0.008 A 
ATOM      4  C   UNL A   1      -7.654   0.522  10.511  0.00  0.00    +0.007 A 
ATOM      5  C   UNL A   1      -6.847   0.127   9.393  0.00  0.00    +0.080 A 
ATOM      6  C   UNL A   1      -7.153   0.719   8.148  0.00  0.00    +0.007 A 
ATOM      7  C   UNL A   1      -8.131   1.666   7.989  0.00  0.00    +0.000 A 
ATOM      8  C   UNL A   1     -10.140   3.790   9.922  0.00  0.00    +0.156 A 
ATOM      9  C   UNL A   1      -9.972   3.318  11.243  0.00  0.00    +0.098 A 
ATOM     10  C   UNL A   1      -9.110   2.252  11.444  0.00  0.00    +0.093 A 
ATOM     11 CL   UNL A   1     -10.741   4.087  12.567  0.00  0.00    -0.079 Cl
ENDROOT
BRANCH   5  12
ATOM     12  C   UNL A   1      -5.920  -0.981   9.432  0.00  0.00    +0.388 C 
ATOM     13  O   UNL A   1      -5.229  -1.423  10.044  0.00  0.00    -0.241 OA
ATOM     14  O   UNL A   1      -5.901  -1.538   8.139  0.00  0.00    -0.241 OA
ENDBRANCH   5  12
BRANCH  10  15
ATOM     15  C   UNL A   1      -8.763   1.773  12.811  0.00  0.00    +0.389 C 
ATOM     16  O   UNL A   1      -9.482   0.988  13.403  0.00  0.00    -0.240 OA
ATOM     17  O   UNL A   1      -7.697   2.326  13.363  0.00  0.00    -0.240 OA
ENDBRANCH  10  15
BRANCH   8  18
ATOM     18  O   UNL A   1     -11.129   4.773   9.711  0.00  0.00    -0.453 OA
BRANCH  18  19
ATOM     19  C   UNL A   1     -10.752   5.914   9.221  0.00  0.00    +0.148 A 
ATOM     20  C   UNL A   1     -11.644   6.530   8.312  0.00  0.00    +0.038 A 
ATOM     21  C   UNL A   1     -11.277   7.695   7.758  0.00  0.00    +0.006 A 
ATOM     22  C   UNL A   1     -10.104   8.415   8.221  0.00  0.00    +0.042 A 
ATOM     23  C   UNL A   1      -9.268   7.866   9.149  0.00  0.00    +0.199 A 
ATOM     24  C   UNL A   1      -9.581   6.674   9.598  0.00  0.00    +0.080 A 
ATOM     25  O   UNL A   1      -8.174   8.498   9.557  0.00  0.00    -0.286 OA
ENDBRANCH  18  19
ENDBRANCH   8  18
TORSDOF 4
ENDMDL
ENDMDL
