REMARK  Name = outputs/IAG933/test6/raw/output_2171_IAG933_linker_design_.xyz
REMARK  12 active torsions:
REMARK  status: ('A' for Active; 'I' for Inactive)
REMARK    1  A    between atoms: C_1  and  C_2
REMARK    2  A    between atoms: C_1  and  C_8
REMARK    3  A    between atoms: C_9  and  S_42
REMARK    4  A    between atoms: C_13  and  C_39
REMARK    5  A    between atoms: C_14  and  C_15
REMARK    6  A    between atoms: C_21  and  O_22
REMARK    7  A    between atoms: O_22  and  C_23
REMARK    8  A    between atoms: C_23  and  C_24
REMARK    9  A    between atoms: C_32  and  C_35
REMARK   10  A    between atoms: C_33  and  C_36
REMARK   11  A    between atoms: C_35  and  S_42
REMARK   12  A    between atoms: C_36  and  S_42
REMARK                            x       y       z     vdW  Elec       q    Type
REMARK                         _______ _______ _______ _____ _____    ______ ____
ROOT
ATOM      1  C   UNL A   1     -22.027   1.731  25.628  0.00  0.00    +0.101 C 
ATOM      2  C   UNL A   1     -22.126   1.425  27.872  0.00  0.00    +0.226 C 
ATOM      3  C   UNL A   1     -23.504   1.603  27.985  0.00  0.00    +0.088 C 
ATOM      4  F   UNL A   1     -21.365   1.089  28.837  0.00  0.00    -0.183 F 
ATOM      5  N   UNL A   1     -21.405   1.582  26.778  0.00  0.00    -0.216 NA
ATOM      6  C   UNL A   1     -24.209   1.626  26.767  0.00  0.00    -0.006 C 
ATOM      7  C   UNL A   1     -23.434   1.711  25.574  0.00  0.00    +0.017 C 
ENDROOT
BRANCH   6   8
ATOM      8  C   UNL A   1     -25.688   1.614  26.461  0.00  0.00    +0.093 C 
ATOM      9  C   UNL A   1     -26.250   2.920  26.395  0.00  0.00    +0.059 C 
ATOM     10  C   UNL A   1     -27.438   3.091  25.645  0.00  0.00    +0.102 C 
ATOM     11  N   UNL A   1     -28.075   2.089  25.003  0.00  0.00    -0.212 NA
ATOM     12  C   UNL A   1     -27.543   0.849  25.079  0.00  0.00    +0.234 C 
ATOM     13  C   UNL A   1     -26.354   0.576  25.777  0.00  0.00    +0.244 C 
ATOM     14  F   UNL A   1     -25.860  -0.681  25.795  0.00  0.00    -0.227 F 
BRANCH   9  15
ATOM     15  C   UNL A   1     -25.642   4.093  27.123  0.00  0.00    +0.263 C 
ATOM     16  N   UNL A   1     -25.614   5.252  26.449  0.00  0.00    -0.200 NA
ATOM     17  C   UNL A   1     -25.026   6.479  26.963  0.00  0.00    +0.139 C 
ATOM     18  O   UNL A   1     -25.143   3.966  28.243  0.00  0.00    -0.269 OA
ENDBRANCH   9  15
BRANCH  12  19
ATOM     19  O   UNL A   1     -28.193  -0.208  24.477  0.00  0.00    -0.459 OA
BRANCH  19  20
ATOM     20  C   UNL A   1     -29.460   0.005  23.866  0.00  0.00    +0.242 C 
BRANCH  20  21
ATOM     21  C   UNL A   1     -30.065  -1.377  23.573  0.00  0.00    +0.229 C 
ATOM     22  O   UNL A   1     -30.729  -1.878  24.721  0.00  0.00    -0.216 OA
ENDBRANCH  20  21
ENDBRANCH  19  20
ENDBRANCH  12  19
ENDBRANCH   6   8
BRANCH   3  24
ATOM     23  O   UNL A   1     -22.903   1.958  30.395  0.00  0.00    -0.279 OA
ATOM     24  C   UNL A   1     -23.994   1.941  29.511  0.00  0.00    +0.233 C 
BRANCH  24  26
ATOM     25  O   UNL A   1     -26.586   2.057  30.219  0.00  0.00    -0.164 OA
ATOM     26  S   UNL A   1     -25.202   2.021  30.726  0.00  0.00    -0.016 S 
BRANCH  26  28
ATOM     27  C   UNL A   1     -25.387  -0.679  31.571  0.00  0.00    +0.088 C 
ATOM     28  C   UNL A   1     -25.189   0.773  32.028  0.00  0.00    +0.082 C 
ATOM     29  C   UNL A   1     -25.336   0.684  33.544  0.00  0.00    +0.032 C 
ATOM     30  C   UNL A   1     -24.829  -0.715  33.905  0.00  0.00    +0.090 C 
ATOM     31  N   UNL A   1     -24.758  -1.481  32.646  0.00  0.00    -0.218 NA
BRANCH  27  32
ATOM     32  C   UNL A   1     -24.855  -1.012  30.143  0.00  0.00    +0.045 C 
BRANCH  32  33
ATOM     33  C   UNL A   1     -24.973  -2.505  29.788  0.00  0.00    -0.021 C 
ATOM     34  C   UNL A   1     -23.906  -3.173  29.146  0.00  0.00    -0.004 C 
ATOM     35  C   UNL A   1     -23.989  -4.549  28.853  0.00  0.00    -0.000 C 
ATOM     36  C   UNL A   1     -25.137  -5.280  29.205  0.00  0.00    -0.000 C 
ATOM     37  C   UNL A   1     -26.232  -4.611  29.784  0.00  0.00    -0.000 C 
ATOM     38  C   UNL A   1     -26.155  -3.232  30.065  0.00  0.00    -0.004 C 
ENDBRANCH  32  33
ENDBRANCH  27  32
ENDBRANCH  26  28
BRANCH  26  39
ATOM     39  C   UNL A   1     -24.983   3.537  31.431  0.00  0.00    +0.075 C 
BRANCH  39  41
ATOM     40  C   UNL A   1     -24.685   5.434  33.020  0.00  0.00    +0.001 C 
ATOM     41  C   UNL A   1     -25.356   4.068  32.794  0.00  0.00    +0.012 C 
ATOM     42  C   UNL A   1     -26.889   4.013  32.939  0.00  0.00    +0.001 C 
ENDBRANCH  39  41
ENDBRANCH  26  39
ENDBRANCH  24  26
ENDBRANCH   3  24
TORSDOF 12
