MODEL 2172
MODEL 1
REMARK VINA RESULT:    -7.862      0.000      0.000
REMARK INTER + INTRA:          -9.724
REMARK INTER:                  -8.781
REMARK INTRA:                  -0.942
REMARK UNBOUND:                -0.942
REMARK  Name = No_2172-gen_results/8p0m/2024-11-27-11-27-31/
REMARK  2 active torsions:
REMARK  status: ('A' for Active; 'I' for Inactive)
REMARK    1  A    between atoms: C_13  and  C_23
REMARK    2  A    between atoms: N_16  and  C_17
REMARK                            x       y       z     vdW  Elec       q    Type
REMARK                         _______ _______ _______ _____ _____    ______ ____
ROOT
ATOM      1  C   UNL A   1     -22.789  -1.416  32.112  0.00  0.00    +0.003 A 
ATOM      2  C   UNL A   1     -23.079  -1.123  33.082  0.00  0.00    +0.000 A 
ATOM      3  C   UNL A   1     -23.853  -1.261  31.112  0.00  0.00    +0.038 A 
ATOM      4  C   UNL A   1     -25.108  -0.957  31.443  0.00  0.00    +0.058 A 
ATOM      5  C   UNL A   1     -24.351  -0.787  33.673  0.00  0.00    +0.001 A 
ATOM      6  C   UNL A   1     -25.331  -0.672  32.732  0.00  0.00    +0.015 A 
ATOM      7  C   UNL A   1     -23.467  -1.566  29.667  0.00  0.00    +0.117 C 
ATOM      8  N   UNL A   1     -23.910  -2.293  28.984  0.00  0.00    -0.238 NA
ATOM      9 BR   UNL A   1     -22.005  -0.467  28.973  0.00  0.00    -0.028 Br
ATOM     10  C   UNL A   1     -24.971  -3.046  29.433  0.00  0.00    +0.092 A 
ATOM     11  C   UNL A   1     -25.232  -4.094  29.250  0.00  0.00    -0.003 A 
ATOM     12  C   UNL A   1     -26.429  -4.837  29.616  0.00  0.00    +0.002 A 
ATOM     13  C   UNL A   1     -27.413  -4.089  30.235  0.00  0.00    +0.056 A 
ATOM     14  C   UNL A   1     -27.288  -2.760  30.365  0.00  0.00    +0.021 A 
ATOM     15  C   UNL A   1     -26.110  -2.128  29.933  0.00  0.00    +0.073 A 
ATOM     16  N   UNL A   1     -25.975  -0.992  30.418  0.00  0.00    -0.264 N 
ATOM     17  C   UNL A   1     -24.223  -5.135  28.689  0.00  0.00    +0.033 C 
ENDROOT
BRANCH  16  18
ATOM     18  C   UNL A   1     -26.604   0.151  29.934  0.00  0.00    +0.056 A 
ATOM     19  C   UNL A   1     -27.653   0.773  30.657  0.00  0.00    +0.015 A 
ATOM     20  C   UNL A   1     -26.177   0.696  28.689  0.00  0.00    +0.015 A 
ATOM     21  C   UNL A   1     -26.559   1.918  28.280  0.00  0.00    +0.001 A 
ATOM     22  C   UNL A   1     -28.179   1.998  30.218  0.00  0.00    +0.001 A 
ATOM     23  C   UNL A   1     -27.662   2.581  29.007  0.00  0.00    +0.000 A 
ENDBRANCH  16  18
BRANCH  13  24
ATOM     24  C   UNL A   1     -28.690  -4.816  30.544  0.00  0.00    +0.265 C 
ATOM     25  O   UNL A   1     -28.945  -5.498  31.383  0.00  0.00    -0.268 OA
ATOM     26  N   UNL A   1     -29.753  -4.490  29.583  0.00  0.00    -0.200 NA
ATOM     27  C   UNL A   1     -31.064  -5.052  29.716  0.00  0.00    +0.139 C 
ENDBRANCH  13  24
TORSDOF 2
ENDMDL
ENDMDL
