MODEL 2173
MODEL 1
REMARK VINA RESULT:   -10.218      0.000      0.000
REMARK INTER + INTRA:         -11.401
REMARK INTER:                 -10.816
REMARK INTRA:                  -0.586
REMARK UNBOUND:                -0.586
REMARK  Name = No_2173-gen_results/8p0m/2024-11-27-11-27-31/
REMARK  1 active torsions:
REMARK  status: ('A' for Active; 'I' for Inactive)
REMARK    1  A    between atoms: C_20  and  C_29
REMARK                            x       y       z     vdW  Elec       q    Type
REMARK                         _______ _______ _______ _____ _____    ______ ____
ROOT
ATOM      1  C   UNL A   1     -29.896  -1.786  30.162  0.00  0.00    -0.004 A 
ATOM      2  C   UNL A   1     -29.972  -0.737  30.095  0.00  0.00    +0.001 A 
ATOM      3  C   UNL A   1     -28.649  -2.300  30.653  0.00  0.00    -0.013 A 
ATOM      4  C   UNL A   1     -27.576  -1.533  30.864  0.00  0.00    +0.011 A 
ATOM      5  C   UNL A   1     -28.942   0.279  30.252  0.00  0.00    +0.017 A 
ATOM      6  C   UNL A   1     -27.776  -0.183  30.685  0.00  0.00    +0.081 A 
ATOM      7  C   UNL A   1     -28.386  -3.787  30.898  0.00  0.00    +0.083 C 
ATOM      8 BR   UNL A   1     -29.612  -4.637  31.907  0.00  0.00    -0.076 Br
ATOM      9  C   UNL A   1     -27.396  -4.581  30.332  0.00  0.00    +0.042 C 
ATOM     10  C   UNL A   1     -26.382  -4.048  29.783  0.00  0.00    -0.024 A 
ATOM     11  C   UNL A   1     -25.429  -4.943  29.155  0.00  0.00    -0.004 A 
ATOM     12  C   UNL A   1     -24.248  -4.436  28.590  0.00  0.00    -0.001 A 
ATOM     13  C   UNL A   1     -23.891  -3.102  28.773  0.00  0.00    -0.003 A 
ATOM     14  C   UNL A   1     -24.745  -2.272  29.408  0.00  0.00    -0.006 A 
ATOM     15  C   UNL A   1     -25.923  -2.692  29.938  0.00  0.00    -0.008 A 
ATOM     16  C   UNL A   1     -26.838  -1.751  30.457  0.00  0.00    +0.123 C 
ATOM     17  N   UNL A   1     -25.973  -0.491  29.961  0.00  0.00    -0.174 NA
ATOM     18  C   UNL A   1     -24.733  -0.943  29.539  0.00  0.00    +0.112 C 
ATOM     19  N   UNL A   1     -26.756   0.615  30.961  0.00  0.00    -0.163 NA
ATOM     20  C   UNL A   1     -23.689  -0.379  30.519  0.00  0.00    +0.087 C 
ATOM     21  C   UNL A   1     -24.656  -0.169  28.187  0.00  0.00    -0.007 A 
ATOM     22  C   UNL A   1     -23.572   0.407  27.779  0.00  0.00    -0.025 A 
ATOM     23  C   UNL A   1     -22.464   0.153  30.033  0.00  0.00    +0.020 C 
ATOM     24  C   UNL A   1     -23.446   1.004  26.509  0.00  0.00    -0.004 A 
ATOM     25  C   UNL A   1     -22.468   0.636  28.765  0.00  0.00    +0.027 C 
ATOM     26  C   UNL A   1     -25.713  -0.381  27.262  0.00  0.00    -0.003 A 
ATOM     27  C   UNL A   1     -25.573  -0.058  25.933  0.00  0.00    -0.000 A 
ATOM     28  C   UNL A   1     -24.502   0.826  25.622  0.00  0.00    -0.000 A 
ENDROOT
BRANCH  20  29
ATOM     29  C   UNL A   1     -23.751  -0.843  31.934  0.00  0.00    -0.090 C 
ATOM     30  C   UNL A   1     -24.075  -0.984  32.870  0.00  0.00    -0.090 C 
ATOM     31  C   UNL A   1     -24.132  -1.264  34.234  0.00  0.00    +0.090 C 
ENDBRANCH  20  29
TORSDOF 1
ENDMDL
ENDMDL
