REMARK  Name = outputs/IAG933/test6/raw/output_2173_IAG933_linker_design_.xyz
REMARK  11 active torsions:
REMARK  status: ('A' for Active; 'I' for Inactive)
REMARK    1  A    between atoms: C_1  and  C_2
REMARK    2  A    between atoms: C_1  and  C_8
REMARK    3  A    between atoms: C_9  and  C_37
REMARK    4  A    between atoms: C_13  and  C_39
REMARK    5  A    between atoms: C_14  and  C_15
REMARK    6  A    between atoms: C_21  and  O_22
REMARK    7  A    between atoms: O_22  and  C_23
REMARK    8  A    between atoms: C_23  and  C_24
REMARK    9  A    between atoms: N_29  and  C_46
REMARK   10  A    between atoms: N_34  and  C_44
REMARK   11  A    between atoms: C_40  and  N_41
REMARK                            x       y       z     vdW  Elec       q    Type
REMARK                         _______ _______ _______ _____ _____    ______ ____
ROOT
ATOM      1  N   UNL A   1     -24.825   1.924  29.174  0.00  0.00    -0.228 NA
ATOM      2  O   UNL A   1     -27.257   1.407  30.739  0.00  0.00    -0.274 OA
ATOM      3  N   UNL A   1     -25.776   3.095  31.241  0.00  0.00    -0.231 N 
ATOM      4  C   UNL A   1     -24.931   3.010  30.158  0.00  0.00    +0.170 C 
ATOM      5  C   UNL A   1     -26.107   1.841  31.306  0.00  0.00    +0.232 C 
ENDROOT
BRANCH   3   9
ATOM      6  C   UNL A   1     -25.106   5.590  34.444  0.00  0.00    +0.263 C 
ATOM      7  C   UNL A   1     -26.886   4.167  33.100  0.00  0.00    +0.371 C 
ATOM      8  N   UNL A   1     -26.280   4.668  34.282  0.00  0.00    -0.062 NA
ATOM      9  C   UNL A   1     -26.142   4.238  31.950  0.00  0.00    +0.192 C 
ATOM     10  C   UNL A   1     -25.723   6.796  32.196  0.00  0.00    +0.007 C 
ATOM     11  C   UNL A   1     -25.762   5.489  31.330  0.00  0.00    +0.033 C 
ATOM     12  C   UNL A   1     -24.703   6.681  33.383  0.00  0.00    +0.058 C 
BRANCH   7  15
ATOM     13  C   UNL A   1     -28.909   3.524  34.196  0.00  0.00    +0.579 C 
ATOM     14  N   UNL A   1     -28.941   2.490  35.039  0.00  0.00    +0.145 NA
ATOM     15  N   UNL A   1     -28.126   3.579  33.129  0.00  0.00    +0.040 NA
ATOM     16  N   UNL A   1     -29.722   4.596  34.505  0.00  0.00    +0.145 NA
ENDBRANCH   7  15
ENDBRANCH   3   9
BRANCH   1  21
ATOM     17  C   UNL A   1     -23.191   1.744  25.773  0.00  0.00    -0.002 C 
ATOM     18  C   UNL A   1     -22.399   1.786  28.498  0.00  0.00    +0.019 C 
ATOM     19  C   UNL A   1     -21.415   1.872  27.485  0.00  0.00    +0.002 C 
ATOM     20  C   UNL A   1     -24.167   1.640  26.799  0.00  0.00    +0.003 C 
ATOM     21  C   UNL A   1     -23.790   1.765  28.163  0.00  0.00    +0.079 C 
ATOM     22  C   UNL A   1     -21.815   1.902  26.108  0.00  0.00    -0.000 C 
BRANCH  20  23
ATOM     23  C   UNL A   1     -25.688   1.614  26.461  0.00  0.00    +0.094 C 
ATOM     24  C   UNL A   1     -26.250   2.920  26.395  0.00  0.00    +0.059 C 
ATOM     25  C   UNL A   1     -27.438   3.091  25.645  0.00  0.00    +0.102 C 
ATOM     26  N   UNL A   1     -28.075   2.089  25.003  0.00  0.00    -0.212 NA
ATOM     27  C   UNL A   1     -27.543   0.849  25.079  0.00  0.00    +0.234 C 
ATOM     28  C   UNL A   1     -26.354   0.576  25.777  0.00  0.00    +0.244 C 
ATOM     29  F   UNL A   1     -25.860  -0.681  25.795  0.00  0.00    -0.227 F 
BRANCH  24  30
ATOM     30  C   UNL A   1     -25.642   4.093  27.123  0.00  0.00    +0.263 C 
ATOM     31  N   UNL A   1     -25.614   5.252  26.449  0.00  0.00    -0.200 NA
ATOM     32  C   UNL A   1     -25.026   6.479  26.963  0.00  0.00    +0.139 C 
ATOM     33  O   UNL A   1     -25.143   3.966  28.243  0.00  0.00    -0.269 OA
ENDBRANCH  24  30
BRANCH  27  34
ATOM     34  O   UNL A   1     -28.193  -0.208  24.477  0.00  0.00    -0.459 OA
BRANCH  34  35
ATOM     35  C   UNL A   1     -29.460   0.005  23.866  0.00  0.00    +0.242 C 
BRANCH  35  36
ATOM     36  C   UNL A   1     -30.065  -1.377  23.573  0.00  0.00    +0.229 C 
ATOM     37  O   UNL A   1     -30.729  -1.878  24.721  0.00  0.00    -0.216 OA
ENDBRANCH  35  36
ENDBRANCH  34  35
ENDBRANCH  27  34
ENDBRANCH  20  23
ENDBRANCH   1  21
BRANCH   5  39
ATOM     38  C   UNL A   1     -25.387  -0.679  31.571  0.00  0.00    +0.086 C 
ATOM     39  C   UNL A   1     -25.189   0.773  32.028  0.00  0.00    +0.095 C 
ATOM     40  C   UNL A   1     -25.336   0.684  33.544  0.00  0.00    +0.029 C 
ATOM     41  C   UNL A   1     -24.829  -0.715  33.905  0.00  0.00    +0.089 C 
ATOM     42  N   UNL A   1     -24.758  -1.481  32.646  0.00  0.00    -0.219 NA
BRANCH  38  43
ATOM     43  C   UNL A   1     -24.855  -1.012  30.143  0.00  0.00    +0.044 C 
BRANCH  43  44
ATOM     44  C   UNL A   1     -24.973  -2.505  29.788  0.00  0.00    -0.021 C 
ATOM     45  C   UNL A   1     -23.906  -3.173  29.146  0.00  0.00    -0.004 C 
ATOM     46  C   UNL A   1     -23.989  -4.549  28.853  0.00  0.00    -0.000 C 
ATOM     47  C   UNL A   1     -25.137  -5.280  29.205  0.00  0.00    -0.000 C 
ATOM     48  C   UNL A   1     -26.232  -4.611  29.784  0.00  0.00    -0.000 C 
ATOM     49  C   UNL A   1     -26.155  -3.232  30.065  0.00  0.00    -0.004 C 
ENDBRANCH  43  44
ENDBRANCH  38  43
ENDBRANCH   5  39
TORSDOF 11
