MODEL 2174
MODEL 1
REMARK VINA RESULT:    -7.051      0.000      0.000
REMARK INTER + INTRA:          -9.243
REMARK INTER:                  -8.288
REMARK INTRA:                  -0.955
REMARK UNBOUND:                -0.955
REMARK  Name = No_2174-gen_results/8p0m/2024-11-27-11-27-31/
REMARK  3 active torsions:
REMARK  status: ('A' for Active; 'I' for Inactive)
REMARK    1  A    between atoms: C_3  and  C_4
REMARK    2  A    between atoms: C_4  and  C_8
REMARK    3  A    between atoms: C_7  and  C_14
REMARK                            x       y       z     vdW  Elec       q    Type
REMARK                         _______ _______ _______ _____ _____    ______ ____
ROOT
ATOM      1  C   UNL A   1     -25.858  -0.280  26.665  0.00  0.00    -0.004 A 
ATOM      2  C   UNL A   1     -25.405   0.253  25.878  0.00  0.00    -0.000 A 
ATOM      3  C   UNL A   1     -25.087  -0.393  27.914  0.00  0.00    -0.018 A 
ATOM      4  C   UNL A   1     -24.196   1.111  25.838  0.00  0.00    -0.000 A 
ATOM      5  C   UNL A   1     -23.414   1.064  26.986  0.00  0.00    -0.001 A 
ATOM      6  C   UNL A   1     -23.826   0.338  28.084  0.00  0.00    -0.008 A 
ENDROOT
BRANCH   6   7
ATOM      7  C   UNL A   1     -23.045   0.323  29.256  0.00  0.00    -0.022 C 
ATOM      8  C   UNL A   1     -21.912  -0.259  29.440  0.00  0.00    -0.005 C 
ATOM      9  C   UNL A   1     -23.437   1.300  30.334  0.00  0.00    +0.031 C 
ENDBRANCH   6   7
BRANCH   3  10
ATOM     10  C   UNL A   1     -25.418  -1.192  29.084  0.00  0.00    +0.053 C 
BRANCH  10  11
ATOM     11  C   UNL A   1     -25.163  -2.637  28.970  0.00  0.00    -0.018 A 
ATOM     12  C   UNL A   1     -24.190  -3.092  28.501  0.00  0.00    -0.004 A 
ATOM     13  C   UNL A   1     -23.993  -4.531  28.479  0.00  0.00    -0.000 A 
ATOM     14  C   UNL A   1     -24.978  -5.421  29.013  0.00  0.00    -0.000 A 
ATOM     15  C   UNL A   1     -26.131  -3.523  29.669  0.00  0.00    -0.004 A 
ATOM     16  C   UNL A   1     -25.982  -4.883  29.629  0.00  0.00    -0.000 A 
ENDBRANCH  10  11
ENDBRANCH   3  10
TORSDOF 3
ENDMDL
ENDMDL
