REMARK  Name = No_2175-gen_results/8p0m/2024-11-27-11-27-31/
REMARK  5 active torsions:
REMARK  status: ('A' for Active; 'I' for Inactive)
REMARK    1  A    between atoms: C_2  and  C_22
REMARK    2  A    between atoms: C_3  and  C_7
REMARK    3  A    between atoms: C_7  and  C_8
REMARK    4  A    between atoms: C_9  and  C_12
REMARK    5  A    between atoms: C_12  and  C_15
REMARK                            x       y       z     vdW  Elec       q    Type
REMARK                         _______ _______ _______ _____ _____    ______ ____
ROOT
ATOM      1  C   UNL A   1     -25.258   0.549  27.255  0.00  0.00    -0.015 A 
ATOM      2  C   UNL A   1     -25.648   1.022  26.045  0.00  0.00    +0.035 A 
ATOM      3  C   UNL A   1     -24.437   1.343  28.085  0.00  0.00    -0.004 A 
ATOM      4  C   UNL A   1     -23.958   2.557  27.605  0.00  0.00    -0.000 A 
ATOM      5  C   UNL A   1     -24.265   2.977  26.284  0.00  0.00    +0.000 A 
ATOM      6  C   UNL A   1     -25.127   2.228  25.550  0.00  0.00    +0.003 A 
ENDROOT
BRANCH   2   7
ATOM      7  C   UNL A   1     -26.535   0.305  25.180  0.00  0.00    +0.195 C 
ATOM      8  O   UNL A   1     -26.012  -0.639  24.448  0.00  0.00    -0.287 OA
BRANCH   7   9
ATOM      9  C   UNL A   1     -27.945   0.543  25.173  0.00  0.00    +0.039 A 
ATOM     10  C   UNL A   1     -28.402   1.490  26.049  0.00  0.00    +0.003 A 
ATOM     11  C   UNL A   1     -29.780   1.798  26.094  0.00  0.00    +0.000 A 
ATOM     12  C   UNL A   1     -30.622   1.080  25.292  0.00  0.00    +0.000 A 
ATOM     13  C   UNL A   1     -30.133   0.191  24.319  0.00  0.00    +0.000 A 
ATOM     14  C   UNL A   1     -28.777  -0.086  24.279  0.00  0.00    +0.003 A 
ENDBRANCH   7   9
ENDBRANCH   2   7
BRANCH   1  15
ATOM     15  C   UNL A   1     -25.712  -0.810  27.626  0.00  0.00    +0.053 C 
BRANCH  15  18
ATOM     16  C   UNL A   1     -28.016  -0.814  28.878  0.00  0.00    -0.000 A 
ATOM     17  C   UNL A   1     -28.469  -0.785  29.829  0.00  0.00    +0.071 A 
ATOM     18  C   UNL A   1     -26.546  -0.876  28.850  0.00  0.00    -0.018 A 
ATOM     19  C   UNL A   1     -25.804  -1.032  30.057  0.00  0.00    -0.004 A 
ATOM     20  C   UNL A   1     -26.537  -1.039  31.217  0.00  0.00    -0.000 A 
ATOM     21  C   UNL A   1     -27.893  -0.960  31.174  0.00  0.00    +0.004 A 
BRANCH  17  22
ATOM     22  C   UNL A   1     -30.077  -0.634  29.925  0.00  0.00    +0.419 C 
ATOM     23  F   UNL A   1     -30.568  -1.618  29.513  0.00  0.00    -0.166 F 
ATOM     24  F   UNL A   1     -30.434   0.452  29.167  0.00  0.00    -0.166 F 
ATOM     25  F   UNL A   1     -30.526  -0.295  31.113  0.00  0.00    -0.166 F 
ENDBRANCH  17  22
ENDBRANCH  15  18
ENDBRANCH   1  15
TORSDOF 5
