MODEL 2176
MODEL 1
REMARK VINA RESULT:    -4.560      0.000      0.000
REMARK INTER + INTRA:          -4.560
REMARK INTER:                  -4.560
REMARK INTRA:                   0.000
REMARK UNBOUND:                 0.000
REMARK  Name = No_2176-gen_results/8p0m/2024-11-27-11-27-31/
REMARK  0 active torsions:
REMARK  status: ('A' for Active; 'I' for Inactive)
REMARK                            x       y       z     vdW  Elec       q    Type
REMARK                         _______ _______ _______ _____ _____    ______ ____
ROOT
ATOM      1  C   UNL A   1     -10.172  -9.777  18.278  0.00  0.00    +0.030 A 
ATOM      2  C   UNL A   1      -9.194 -10.415  17.965  0.00  0.00    +0.140 A 
ATOM      3  C   UNL A   1      -8.080 -10.521  18.733  0.00  0.00    +0.030 A 
ATOM      4  C   UNL A   1      -8.055  -9.849  19.970  0.00  0.00    +0.002 A 
ATOM      5  C   UNL A   1     -10.254  -9.144  19.569  0.00  0.00    +0.002 A 
ATOM      6  C   UNL A   1      -9.150  -9.196  20.367  0.00  0.00    +0.000 A 
ATOM      7  F   UNL A   1      -9.144 -11.089  16.787  0.00  0.00    -0.204 F 
ENDROOT
TORSDOF 0
ENDMDL
ENDMDL
