MODEL 2177
MODEL 1
REMARK VINA RESULT:    -7.717      0.000      0.000
REMARK INTER + INTRA:         -13.390
REMARK INTER:                 -11.326
REMARK INTRA:                  -2.064
REMARK UNBOUND:                -2.064
REMARK  Name = No_2177-gen_results/8p0m/2024-11-27-11-27-31/
REMARK  8 active torsions:
REMARK  status: ('A' for Active; 'I' for Inactive)
REMARK    1  A    between atoms: C_2  and  C_3
REMARK    2  A    between atoms: C_3  and  C_5
REMARK    3  A    between atoms: N_4  and  C_11
REMARK    4  A    between atoms: N_4  and  C_15
REMARK    5  A    between atoms: C_9  and  C_12
REMARK    6  A    between atoms: C_11  and  C_16
REMARK    7  A    between atoms: C_24  and  C_27
REMARK    8  A    between atoms: C_32  and  C_33
REMARK                            x       y       z     vdW  Elec       q    Type
REMARK                         _______ _______ _______ _____ _____    ______ ____
ROOT
ATOM      1  O   UNL A   1      -8.103   0.600  37.094  0.00  0.00    -0.274 OA
ATOM      2  C   UNL A   1      -9.168   0.444  36.696  0.00  0.00    +0.234 C 
ATOM      3  N   UNL A   1      -9.623   1.732  36.068  0.00  0.00    -0.254 N 
ENDROOT
BRANCH   3   4
ATOM      4  C   UNL A   1     -10.921   1.877  35.442  0.00  0.00    +0.054 A 
ATOM      5  C   UNL A   1     -10.923   1.451  34.181  0.00  0.00    +0.015 A 
ATOM      6  C   UNL A   1     -11.959   2.278  36.218  0.00  0.00    +0.015 A 
ATOM      7  C   UNL A   1     -13.252   2.377  35.611  0.00  0.00    +0.001 A 
ATOM      8  C   UNL A   1     -12.260   1.449  33.524  0.00  0.00    +0.001 A 
ATOM      9  C   UNL A   1     -13.362   1.912  34.246  0.00  0.00    +0.000 A 
BRANCH   7  10
ATOM     10  C   UNL A   1     -14.407   2.879  36.294  0.00  0.00    +0.000 A 
ATOM     11  C   UNL A   1     -15.338   3.358  35.666  0.00  0.00    -0.000 A 
ATOM     12  C   UNL A   1     -16.451   3.943  36.308  0.00  0.00    -0.003 A 
ATOM     13  C   UNL A   1     -14.371   2.927  37.683  0.00  0.00    -0.000 A 
ATOM     14  C   UNL A   1     -15.461   3.471  38.395  0.00  0.00    -0.003 A 
ATOM     15  C   UNL A   1     -16.517   3.973  37.644  0.00  0.00    -0.007 A 
BRANCH  15  16
ATOM     16  C   UNL A   1     -17.665   4.546  38.388  0.00  0.00    +0.102 C 
ATOM     17 CL   UNL A   1     -18.366   5.775  38.315  0.00  0.00    -0.110 Cl
ATOM     18  C   UNL A   1     -18.098   3.507  39.432  0.00  0.00    +0.022 C 
ENDBRANCH  15  16
ENDBRANCH   7  10
ENDBRANCH   3   4
BRANCH   2  19
ATOM     19  C   UNL A   1      -9.805  -0.357  36.521  0.00  0.00    +0.112 C 
BRANCH  19  20
ATOM     20  C   UNL A   1     -10.490  -1.020  37.586  0.00  0.00    -0.013 A 
ATOM     21  C   UNL A   1     -11.112  -2.138  37.545  0.00  0.00    -0.004 A 
ATOM     22  C   UNL A   1     -12.079  -2.649  38.573  0.00  0.00    -0.000 A 
ATOM     23  C   UNL A   1     -12.314  -1.848  39.702  0.00  0.00    +0.005 A 
ATOM     24  C   UNL A   1     -11.645  -0.561  39.780  0.00  0.00    +0.056 A 
ATOM     25  C   UNL A   1     -10.853  -0.184  38.771  0.00  0.00    +0.001 A 
BRANCH  24  26
ATOM     26  C   UNL A   1     -11.906   0.258  40.959  0.00  0.00    +0.284 C 
ATOM     27  N   UNL A   1     -13.063   0.136  41.590  0.00  0.00    -0.084 NA
ATOM     28  O   UNL A   1     -11.181   1.233  41.389  0.00  0.00    -0.267 OA
ENDBRANCH  24  26
ENDBRANCH  19  20
ENDBRANCH   2  19
BRANCH   3  29
ATOM     29  C   UNL A   1      -8.859   3.003  36.143  0.00  0.00    +0.125 C 
BRANCH  29  30
ATOM     30  C   UNL A   1      -8.454   3.519  34.943  0.00  0.00    -0.002 A 
ATOM     31  C   UNL A   1      -8.759   4.371  34.468  0.00  0.00    -0.003 A 
ATOM     32  C   UNL A   1      -8.314   4.970  33.140  0.00  0.00    -0.000 A 
ATOM     33  C   UNL A   1      -7.341   4.209  32.485  0.00  0.00    -0.000 A 
ATOM     34  C   UNL A   1      -6.864   3.086  33.051  0.00  0.00    -0.000 A 
ATOM     35  C   UNL A   1      -7.346   2.629  34.280  0.00  0.00    -0.003 A 
ENDBRANCH  29  30
ENDBRANCH   3  29
TORSDOF 8
ENDMDL
ENDMDL
