REMARK  Name = outputs/IAG933/test6/raw/output_2178_IAG933_linker_design_.xyz
REMARK  9 active torsions:
REMARK  status: ('A' for Active; 'I' for Inactive)
REMARK    1  A    between atoms: C_1  and  C_2
REMARK    2  A    between atoms: C_1  and  C_8
REMARK    3  A    between atoms: C_1  and  N_30
REMARK    4  A    between atoms: C_13  and  C_34
REMARK    5  A    between atoms: C_14  and  C_15
REMARK    6  A    between atoms: C_21  and  O_22
REMARK    7  A    between atoms: O_22  and  C_23
REMARK    8  A    between atoms: C_23  and  C_24
REMARK    9  A    between atoms: N_30  and  C_42
REMARK                            x       y       z     vdW  Elec       q    Type
REMARK                         _______ _______ _______ _____ _____    ______ ____
ROOT
ATOM      1  C   UNL A   1     -21.950   0.908  28.466  0.00  0.00    +0.266 C 
ATOM      2  C   UNL A   1     -23.216   1.754  26.602  0.00  0.00    +0.096 C 
ATOM      3  N   UNL A   1     -25.400  -0.009  29.186  0.00  0.00    -0.169 N 
ATOM      4  N   UNL A   1     -23.103   0.478  28.968  0.00  0.00    -0.033 NA
ATOM      5  F   UNL A   1     -20.863   1.928  26.630  0.00  0.00    -0.199 F 
ATOM      6  C   UNL A   1     -24.445   1.310  27.220  0.00  0.00    +0.098 C 
ATOM      7  C   UNL A   1     -21.996   1.526  27.228  0.00  0.00    +0.197 C 
ATOM      8 CL   UNL A   1     -23.191   2.658  25.000  0.00  0.00    -0.080 Cl
ATOM      9  C   UNL A   1     -24.425   0.594  28.419  0.00  0.00    +0.329 C 
ENDROOT
BRANCH   6  10
ATOM     10  C   UNL A   1     -25.688   1.614  26.461  0.00  0.00    +0.046 C 
ATOM     11  C   UNL A   1     -26.250   2.920  26.395  0.00  0.00    +0.077 C 
ATOM     12  C   UNL A   1     -27.438   3.091  25.645  0.00  0.00    +0.107 C 
ATOM     13  N   UNL A   1     -28.075   2.089  25.003  0.00  0.00    -0.208 NA
ATOM     14  C   UNL A   1     -27.543   0.849  25.079  0.00  0.00    +0.253 C 
ATOM     15  C   UNL A   1     -26.354   0.576  25.777  0.00  0.00    +0.193 C 
ATOM     16  F   UNL A   1     -25.860  -0.681  25.795  0.00  0.00    -0.199 F 
BRANCH  11  17
ATOM     17  C   UNL A   1     -25.642   4.093  27.123  0.00  0.00    +0.266 C 
ATOM     18  N   UNL A   1     -25.614   5.252  26.449  0.00  0.00    -0.200 NA
ATOM     19  C   UNL A   1     -25.026   6.479  26.963  0.00  0.00    +0.139 C 
ATOM     20  O   UNL A   1     -25.143   3.966  28.243  0.00  0.00    -0.268 OA
ENDBRANCH  11  17
BRANCH  14  21
ATOM     21  O   UNL A   1     -28.193  -0.208  24.477  0.00  0.00    -0.456 OA
BRANCH  21  22
ATOM     22  C   UNL A   1     -29.460   0.005  23.866  0.00  0.00    +0.243 C 
BRANCH  22  23
ATOM     23  C   UNL A   1     -30.065  -1.377  23.573  0.00  0.00    +0.229 C 
ATOM     24  O   UNL A   1     -30.729  -1.878  24.721  0.00  0.00    -0.216 OA
ENDBRANCH  22  23
ENDBRANCH  21  22
ENDBRANCH  14  21
ENDBRANCH   6  10
BRANCH   3  30
ATOM     25  C   UNL A   1     -27.220   1.672  29.294  0.00  0.00    +0.040 C 
ATOM     26  C   UNL A   1     -28.569   2.028  29.028  0.00  0.00    +0.004 C 
ATOM     27  C   UNL A   1     -29.468   1.050  28.581  0.00  0.00    +0.000 C 
ATOM     28  C   UNL A   1     -27.745  -0.611  28.823  0.00  0.00    +0.040 C 
ATOM     29  C   UNL A   1     -29.072  -0.279  28.580  0.00  0.00    +0.004 C 
ATOM     30  C   UNL A   1     -26.766   0.350  29.123  0.00  0.00    +0.139 C 
ENDBRANCH   3  30
BRANCH   3  31
ATOM     31  C   UNL A   1     -24.855  -1.012  30.143  0.00  0.00    +0.203 C 
BRANCH  31  32
ATOM     32  C   UNL A   1     -24.973  -2.505  29.788  0.00  0.00    +0.022 C 
ATOM     33  C   UNL A   1     -23.906  -3.173  29.146  0.00  0.00    -0.000 C 
ATOM     34  C   UNL A   1     -23.989  -4.549  28.853  0.00  0.00    -0.000 C 
ATOM     35  C   UNL A   1     -25.137  -5.280  29.205  0.00  0.00    -0.000 C 
ATOM     36  C   UNL A   1     -26.232  -4.611  29.784  0.00  0.00    -0.000 C 
ATOM     37  C   UNL A   1     -26.155  -3.232  30.065  0.00  0.00    -0.000 C 
ENDBRANCH  31  32
BRANCH  31  38
ATOM     38  C   UNL A   1     -25.387  -0.679  31.571  0.00  0.00    +0.120 C 
ATOM     39  C   UNL A   1     -25.189   0.773  32.028  0.00  0.00    +0.023 C 
ATOM     40  C   UNL A   1     -25.336   0.684  33.544  0.00  0.00    +0.020 C 
ATOM     41  C   UNL A   1     -24.829  -0.715  33.905  0.00  0.00    +0.089 C 
ATOM     42  N   UNL A   1     -24.758  -1.481  32.646  0.00  0.00    -0.215 NA
ENDBRANCH  31  38
ENDBRANCH   3  31
TORSDOF 9
