MODEL 2179
MODEL 1
REMARK VINA RESULT:    -4.287      0.000      0.000
REMARK INTER + INTRA:          -4.287
REMARK INTER:                  -4.287
REMARK INTRA:                   0.000
REMARK UNBOUND:                 0.000
REMARK  Name = No_2179-gen_results/8p0m/2024-11-27-11-27-31/
REMARK  0 active torsions:
REMARK  status: ('A' for Active; 'I' for Inactive)
REMARK                            x       y       z     vdW  Elec       q    Type
REMARK                         _______ _______ _______ _____ _____    ______ ____
ROOT
ATOM      1  C   UNL A   1     -26.215  -3.538  29.762  0.00  0.00    +0.000 A 
ATOM      2  C   UNL A   1     -26.116  -4.735  29.622  0.00  0.00    +0.000 A 
ATOM      3  C   UNL A   1     -25.043  -5.347  29.005  0.00  0.00    +0.000 A 
ATOM      4  C   UNL A   1     -23.979  -4.522  28.544  0.00  0.00    +0.000 A 
ATOM      5  C   UNL A   1     -24.056  -3.212  28.875  0.00  0.00    +0.000 A 
ATOM      6  C   UNL A   1     -25.105  -2.719  29.505  0.00  0.00    +0.000 A 
ENDROOT
TORSDOF 0
ENDMDL
ENDMDL
