MODEL 217
MODEL 1
REMARK VINA RESULT:    -6.411      0.000      0.000
REMARK INTER + INTRA:         -13.673
REMARK INTER:                 -10.534
REMARK INTRA:                  -3.139
REMARK UNBOUND:                -3.139
REMARK  Name = No_217-gen_results/8p0m/2024-11-27-11-27-31/
REMARK  11 active torsions:
REMARK  status: ('A' for Active; 'I' for Inactive)
REMARK    1  A    between atoms: C_2  and  C_12
REMARK    2  A    between atoms: C_5  and  P_7
REMARK    3  A    between atoms: P_7  and  O_9
REMARK    4  A    between atoms: C_12  and  C_13
REMARK    5  A    between atoms: C_13  and  C_14
REMARK    6  A    between atoms: C_13  and  C_15
REMARK    7  A    between atoms: C_15  and  C_16
REMARK    8  A    between atoms: C_15  and  C_25
REMARK    9  A    between atoms: C_17  and  C_18
REMARK   10  A    between atoms: C_18  and  C_19
REMARK   11  A    between atoms: C_25  and  N_32
REMARK                            x       y       z     vdW  Elec       q    Type
REMARK                         _______ _______ _______ _____ _____    ______ ____
ROOT
ATOM      1  C   UNL A   1     -10.330   1.226  36.416  0.00  0.00    +0.034 C 
ENDROOT
BRANCH   1   2
ATOM      2  C   UNL A   1     -10.952   1.090  35.306  0.00  0.00    +0.010 A 
ATOM      3  C   UNL A   1     -12.226   1.202  35.097  0.00  0.00    +0.021 A 
ATOM      4  C   UNL A   1     -12.859   1.233  33.766  0.00  0.00    +0.122 A 
ATOM      5  N   UNL A   1     -11.967   1.726  32.876  0.00  0.00    -0.146 NA
ATOM      6  C   UNL A   1     -10.136   1.152  34.023  0.00  0.00    +0.156 A 
ATOM      7  N   UNL A   1     -10.709   1.134  33.033  0.00  0.00    -0.137 NA
ATOM      8 CL   UNL A   1      -9.576   2.928  34.143  0.00  0.00    -0.060 Cl
ENDBRANCH   1   2
BRANCH   1   9
ATOM      9  C   UNL A   1      -9.595   0.031  36.994  0.00  0.00    +0.031 C 
BRANCH   9  11
ATOM     10  C   UNL A   1     -10.482  -0.570  39.180  0.00  0.00    +0.003 A 
ATOM     11  C   UNL A   1     -10.472  -0.835  38.001  0.00  0.00    -0.022 A 
ATOM     12  C   UNL A   1     -11.120  -1.784  37.389  0.00  0.00    -0.004 A 
ATOM     13  C   UNL A   1     -11.944  -2.647  38.173  0.00  0.00    -0.000 A 
ATOM     14  C   UNL A   1     -11.385  -1.330  40.024  0.00  0.00    +0.083 A 
ATOM     15  C   UNL A   1     -12.073  -2.334  39.480  0.00  0.00    +0.007 A 
BRANCH  14  16
ATOM     16  P   UNL A   1     -11.490  -0.861  41.724  0.00  0.00    +0.402 P 
ATOM     17  O   UNL A   1     -11.008   0.436  41.860  0.00  0.00    -0.250 OA
ATOM     18  O   UNL A   1     -13.133  -0.698  41.779  0.00  0.00    -0.136 OA
BRANCH  16  19
ATOM     19  O   UNL A   1     -11.131  -1.892  42.622  0.00  0.00    -0.224 OA
ATOM     20 BR   UNL A   1     -10.312  -2.659  42.643  0.00  0.00    +0.109 Br
ENDBRANCH  16  19
ENDBRANCH  14  16
ENDBRANCH   9  11
ENDBRANCH   1   9
BRANCH   1  21
ATOM     21  C   UNL A   1     -10.380   2.375  37.216  0.00  0.00    +0.038 C 
BRANCH  21  22
ATOM     22  C   UNL A   1     -11.456   3.093  37.771  0.00  0.00    -0.046 C 
ATOM     23  C   UNL A   1     -12.489   2.713  38.340  0.00  0.00    -0.030 C 
ATOM     24  C   UNL A   1     -11.566   4.418  36.991  0.00  0.00    +0.026 C 
BRANCH  23  25
ATOM     25  C   UNL A   1     -13.612   3.544  38.697  0.00  0.00    +0.052 C 
BRANCH  25  26
ATOM     26  C   UNL A   1     -14.893   3.200  38.168  0.00  0.00    -0.018 A 
ATOM     27  C   UNL A   1     -15.974   3.467  38.837  0.00  0.00    -0.004 A 
ATOM     28  C   UNL A   1     -16.734   4.032  38.512  0.00  0.00    -0.000 A 
ATOM     29  C   UNL A   1     -17.041   4.192  37.001  0.00  0.00    -0.000 A 
ATOM     30  C   UNL A   1     -16.016   3.718  36.161  0.00  0.00    -0.000 A 
ATOM     31  C   UNL A   1     -14.865   3.324  36.714  0.00  0.00    -0.004 A 
ENDBRANCH  25  26
ENDBRANCH  23  25
ENDBRANCH  21  22
BRANCH  21  32
ATOM     32  C   UNL A   1      -9.021   2.626  37.735  0.00  0.00    +0.076 C 
BRANCH  32  33
ATOM     33  N   UNL A   1      -8.969   3.392  38.818  0.00  0.00    -0.270 NA
ATOM     34  C   UNL A   1      -8.572   2.401  39.731  0.00  0.00    +0.090 C 
ATOM     35  C   UNL A   1      -7.883   4.268  37.847  0.00  0.00    +0.090 C 
ENDBRANCH  32  33
ENDBRANCH  21  32
ENDBRANCH   1  21
TORSDOF 11
ENDMDL
ENDMDL
