MODEL 2180
MODEL 1
REMARK VINA RESULT:    -7.896      0.000      0.000
REMARK INTER + INTRA:         -10.962
REMARK INTER:                  -9.742
REMARK INTRA:                  -1.219
REMARK UNBOUND:                -1.219
REMARK  Name = No_2180-gen_results/8p0m/2024-11-27-11-27-31/
REMARK  4 active torsions:
REMARK  status: ('A' for Active; 'I' for Inactive)
REMARK    1  A    between atoms: C_12  and  C_25
REMARK    2  A    between atoms: N_15  and  C_16
REMARK    3  A    between atoms: C_16  and  C_17
REMARK    4  A    between atoms: C_29  and  C_31
REMARK                            x       y       z     vdW  Elec       q    Type
REMARK                         _______ _______ _______ _____ _____    ______ ____
ROOT
ATOM      1 BR   UNL A   1     -27.265  -6.587   8.662  0.00  0.00    -0.072 Br
ATOM      2  C   UNL A   1     -28.469  -7.584   8.967  0.00  0.00    +0.104 C 
ATOM      3  C   UNL A   1     -29.414  -7.557   9.419  0.00  0.00    +0.006 A 
ATOM      4  C   UNL A   1     -30.395  -8.605   9.718  0.00  0.00    +0.049 A 
ATOM      5  C   UNL A   1     -31.705  -8.578  10.393  0.00  0.00    +0.015 A 
ATOM      6  C   UNL A   1     -32.104  -7.247  10.778  0.00  0.00    +0.001 A 
ATOM      7  C   UNL A   1     -31.283  -6.159  10.531  0.00  0.00    -0.000 A 
ATOM      8  C   UNL A   1     -30.104  -6.346   9.937  0.00  0.00    -0.002 A 
ATOM      9  C   UNL A   1     -28.068  -9.054   8.415  0.00  0.00    +0.006 A 
ATOM     10  C   UNL A   1     -27.525  -9.210   7.576  0.00  0.00    -0.002 A 
ATOM     11  C   UNL A   1     -27.186 -10.612   7.066  0.00  0.00    -0.000 A 
ATOM     12  C   UNL A   1     -27.697 -11.659   7.789  0.00  0.00    +0.001 A 
ATOM     13  C   UNL A   1     -28.423 -11.402   8.952  0.00  0.00    +0.015 A 
ATOM     14  C   UNL A   1     -28.648 -10.129   9.309  0.00  0.00    +0.049 A 
ATOM     15  N   UNL A   1     -29.868  -9.965   9.655  0.00  0.00    -0.279 N 
ENDROOT
BRANCH  12  16
ATOM     16  C   UNL A   1     -27.264 -13.072   7.388  0.00  0.00    +0.000 A 
ATOM     17  C   UNL A   1     -26.176 -13.248   6.753  0.00  0.00    +0.000 A 
ATOM     18  C   UNL A   1     -25.648 -14.597   6.499  0.00  0.00    +0.000 A 
ATOM     19  C   UNL A   1     -26.426 -15.659   6.963  0.00  0.00    +0.007 A 
ATOM     20  C   UNL A   1     -27.549 -15.435   7.665  0.00  0.00    +0.080 A 
ATOM     21  C   UNL A   1     -27.966 -14.148   7.975  0.00  0.00    +0.007 A 
BRANCH  20  22
ATOM     22  C   UNL A   1     -28.334 -16.563   8.208  0.00  0.00    +0.388 C 
ATOM     23  O   UNL A   1     -29.224 -17.052   7.993  0.00  0.00    -0.241 OA
ATOM     24  O   UNL A   1     -27.660 -16.807   9.438  0.00  0.00    -0.241 OA
ENDBRANCH  20  22
ENDBRANCH  12  16
BRANCH  15  25
ATOM     25  C   UNL A   1     -30.419 -10.877  10.703  0.00  0.00    +0.181 C 
BRANCH  25  26
ATOM     26  C   UNL A   1     -31.270 -11.915  10.054  0.00  0.00    +0.246 C 
ATOM     27  O   UNL A   1     -31.824 -11.719   9.042  0.00  0.00    -0.273 OA
ATOM     28  N   UNL A   1     -31.019 -13.179  10.518  0.00  0.00    -0.278 N 
ATOM     29  C   UNL A   1     -31.759 -14.346  10.017  0.00  0.00    +0.093 C 
ATOM     30  C   UNL A   1     -31.399 -15.359  10.300  0.00  0.00    +0.022 C 
ATOM     31  C   UNL A   1     -30.400 -15.725  11.316  0.00  0.00    +0.004 C 
ATOM     32  C   UNL A   1     -29.679 -14.583  11.803  0.00  0.00    +0.022 C 
ATOM     33  C   UNL A   1     -30.023 -13.361  11.413  0.00  0.00    +0.093 C 
ENDBRANCH  25  26
ENDBRANCH  15  25
TORSDOF 4
ENDMDL
ENDMDL
