MODEL 2181
MODEL 1
REMARK VINA RESULT:    -5.044      0.000      0.000
REMARK INTER + INTRA:          -5.409
REMARK INTER:                  -5.338
REMARK INTRA:                  -0.070
REMARK UNBOUND:                -0.070
REMARK  Name = No_2181-gen_results/8p0m/2024-11-27-11-27-31/
REMARK  1 active torsions:
REMARK  status: ('A' for Active; 'I' for Inactive)
REMARK    1  A    between atoms: C_5  and  N_7
REMARK                            x       y       z     vdW  Elec       q    Type
REMARK                         _______ _______ _______ _____ _____    ______ ____
ROOT
ATOM      1  C   UNL A   1     -26.355  -3.438  29.888  0.00  0.00    +0.002 A 
ATOM      2  C   UNL A   1     -26.260  -4.622  29.663  0.00  0.00    +0.000 A 
ATOM      3  C   UNL A   1     -25.157  -5.201  29.068  0.00  0.00    +0.002 A 
ATOM      4  C   UNL A   1     -24.058  -4.359  28.738  0.00  0.00    +0.019 A 
ATOM      5  C   UNL A   1     -24.143  -3.076  29.162  0.00  0.00    +0.083 A 
ATOM      6  C   UNL A   1     -25.224  -2.617  29.763  0.00  0.00    +0.019 A 
ENDROOT
BRANCH   5   7
ATOM      7  N   UNL A   1     -23.048  -2.270  28.867  0.00  0.00    -0.225 NA
ATOM      8  C   UNL A   1     -22.952  -1.125  29.429  0.00  0.00    +0.205 C 
ATOM      9  N   UNL A   1     -22.078  -0.232  29.073  0.00  0.00    -0.104 NA
ENDBRANCH   5   7
TORSDOF 1
ENDMDL
ENDMDL
