REMARK  Name = outputs/IAG933/test6/raw/output_2182_IAG933_linker_design_.xyz
REMARK  18 active torsions:
REMARK  status: ('A' for Active; 'I' for Inactive)
REMARK    1  A    between atoms: C_1  and  C_2
REMARK    2  A    between atoms: C_1  and  C_8
REMARK    3  A    between atoms: C_1  and  N_28
REMARK    4  A    between atoms: C_13  and  C_34
REMARK    5  A    between atoms: C_14  and  C_15
REMARK    6  A    between atoms: C_21  and  O_22
REMARK    7  A    between atoms: O_22  and  C_23
REMARK    8  A    between atoms: C_23  and  C_24
REMARK    9  A    between atoms: C_29  and  C_42
REMARK   10  A    between atoms: C_31  and  C_33
REMARK   11  A    between atoms: C_31  and  C_35
REMARK   12  A    between atoms: C_32  and  C_33
REMARK   13  A    between atoms: C_34  and  C_38
REMARK   14  A    between atoms: C_34  and  C_42
REMARK   15  A    between atoms: C_35  and  N_39
REMARK   16  A    between atoms: C_36  and  C_38
REMARK   17  A    between atoms: C_36  and  C_45
REMARK   18  A    between atoms: N_39  and  C_45
REMARK                            x       y       z     vdW  Elec       q    Type
REMARK                         _______ _______ _______ _____ _____    ______ ____
ROOT
ATOM      1  N   UNL A   1     -24.882  -0.144  29.221  0.00  0.00    -0.275 NA
ATOM      2  C   UNL A   1     -25.477   0.529  28.545  0.00  0.00    +0.035 C 
ENDROOT
BRANCH   1   3
ATOM      3  C   UNL A   1     -24.855  -1.012  30.143  0.00  0.00    +0.141 C 
BRANCH   3   4
ATOM      4  C   UNL A   1     -24.973  -2.505  29.788  0.00  0.00    +0.001 C 
ATOM      5  C   UNL A   1     -23.906  -3.173  29.146  0.00  0.00    -0.002 C 
ATOM      6  C   UNL A   1     -23.989  -4.549  28.853  0.00  0.00    -0.000 C 
ATOM      7  C   UNL A   1     -25.137  -5.280  29.205  0.00  0.00    -0.000 C 
ATOM      8  C   UNL A   1     -26.232  -4.611  29.784  0.00  0.00    -0.000 C 
ATOM      9  C   UNL A   1     -26.155  -3.232  30.065  0.00  0.00    -0.002 C 
ENDBRANCH   3   4
BRANCH   3  10
ATOM     10  C   UNL A   1     -25.387  -0.679  31.571  0.00  0.00    +0.099 C 
ATOM     11  C   UNL A   1     -25.189   0.773  32.028  0.00  0.00    +0.021 C 
ATOM     12  C   UNL A   1     -25.336   0.684  33.544  0.00  0.00    +0.020 C 
ATOM     13  C   UNL A   1     -24.829  -0.715  33.905  0.00  0.00    +0.089 C 
ATOM     14  N   UNL A   1     -24.758  -1.481  32.646  0.00  0.00    -0.217 NA
ENDBRANCH   3  10
ENDBRANCH   1   3
BRANCH   2  15
ATOM     15  C   UNL A   1     -24.806   1.302  27.369  0.00  0.00    +0.061 C 
BRANCH  15  16
ATOM     16  C   UNL A   1     -25.688   1.614  26.461  0.00  0.00    +0.077 C 
ATOM     17  C   UNL A   1     -26.250   2.920  26.395  0.00  0.00    +0.055 C 
ATOM     18  C   UNL A   1     -27.438   3.091  25.645  0.00  0.00    +0.102 C 
ATOM     19  N   UNL A   1     -28.075   2.089  25.003  0.00  0.00    -0.212 NA
ATOM     20  C   UNL A   1     -27.543   0.849  25.079  0.00  0.00    +0.234 C 
ATOM     21  C   UNL A   1     -26.354   0.576  25.777  0.00  0.00    +0.240 C 
ATOM     22  F   UNL A   1     -25.860  -0.681  25.795  0.00  0.00    -0.227 F 
BRANCH  17  23
ATOM     23  C   UNL A   1     -25.642   4.093  27.123  0.00  0.00    +0.263 C 
ATOM     24  N   UNL A   1     -25.614   5.252  26.449  0.00  0.00    -0.200 NA
ATOM     25  C   UNL A   1     -25.026   6.479  26.963  0.00  0.00    +0.139 C 
ATOM     26  O   UNL A   1     -25.143   3.966  28.243  0.00  0.00    -0.269 OA
ENDBRANCH  17  23
BRANCH  20  27
ATOM     27  O   UNL A   1     -28.193  -0.208  24.477  0.00  0.00    -0.459 OA
BRANCH  27  28
ATOM     28  C   UNL A   1     -29.460   0.005  23.866  0.00  0.00    +0.242 C 
BRANCH  28  29
ATOM     29  C   UNL A   1     -30.065  -1.377  23.573  0.00  0.00    +0.229 C 
ATOM     30  O   UNL A   1     -30.729  -1.878  24.721  0.00  0.00    -0.216 OA
ENDBRANCH  28  29
ENDBRANCH  27  28
ENDBRANCH  20  27
ENDBRANCH  15  16
BRANCH  15  31
ATOM     31  C   UNL A   1     -23.454   1.294  27.119  0.00  0.00    +0.116 C 
ATOM     32 CL   UNL A   1     -22.933   1.979  25.527  0.00  0.00    -0.112 Cl
BRANCH  31  33
ATOM     33  C   UNL A   1     -22.392   0.854  28.097  0.00  0.00    +0.167 C 
ATOM     34  O   UNL A   1     -22.685   0.972  29.549  0.00  0.00    -0.222 OA
ATOM     35  C   UNL A   1     -21.054   1.601  27.612  0.00  0.00    +0.037 C 
ENDBRANCH  31  33
ENDBRANCH  15  31
ENDBRANCH   2  15
BRANCH   2  36
ATOM     36  C   UNL A   1     -26.921   0.377  28.888  0.00  0.00    +0.058 C 
BRANCH  36  37
ATOM     37  C   UNL A   1     -27.456  -1.010  28.530  0.00  0.00    +0.078 C 
BRANCH  37  39
ATOM     38  C   UNL A   1     -29.046   0.060  29.522  0.00  0.00    +0.090 C 
ATOM     39  N   UNL A   1     -28.659  -1.274  29.311  0.00  0.00    -0.271 NA
BRANCH  39  40
ATOM     40  C   UNL A   1     -29.521  -2.319  29.881  0.00  0.00    +0.073 C 
BRANCH  40  41
ATOM     41  C   UNL A   1     -29.963  -1.967  31.288  0.00  0.00    +0.027 C 
BRANCH  41  42
ATOM     42  C   UNL A   1     -29.068  -1.311  32.205  0.00  0.00    +0.090 C 
BRANCH  42  43
ATOM     43  C   UNL A   1     -28.814   0.230  32.675  0.00  0.00    +0.261 C 
ATOM     44  N   UNL A   1     -28.916   1.480  31.967  0.00  0.00    -0.088 NA
ATOM     45  O   UNL A   1     -28.555   0.340  33.829  0.00  0.00    -0.272 OA
ENDBRANCH  42  43
ENDBRANCH  41  42
ENDBRANCH  40  41
ENDBRANCH  39  40
ENDBRANCH  37  39
ENDBRANCH  36  37
ENDBRANCH   2  36
TORSDOF 18
