MODEL 2182
MODEL 1
REMARK VINA RESULT:    -3.552      0.000      0.000
REMARK INTER + INTRA:          -3.831
REMARK INTER:                  -3.760
REMARK INTRA:                  -0.071
REMARK UNBOUND:                -0.071
REMARK  Name = No_2182-gen_results/8p0m/2024-11-27-11-27-31/
REMARK  1 active torsions:
REMARK  status: ('A' for Active; 'I' for Inactive)
REMARK    1  A    between atoms: C_3  and  C_4
REMARK                            x       y       z     vdW  Elec       q    Type
REMARK                         _______ _______ _______ _____ _____    ______ ____
ROOT
ATOM      1  F   UNL A   1     -10.174  -8.848  20.761  0.00  0.00    -0.202 F 
ATOM      2  C   UNL A   1     -10.104  -9.277  19.702  0.00  0.00    +0.167 C 
ATOM      3  C   UNL A   1      -8.913  -9.492  19.263  0.00  0.00    +0.032 C 
ENDROOT
BRANCH   3   4
ATOM      4  C   UNL A   1      -7.647  -9.234  20.051  0.00  0.00    +0.002 C 
ATOM      5  C   UNL A   1      -7.050  -8.012  19.700  0.00  0.00    +0.000 C 
ENDBRANCH   3   4
TORSDOF 1
ENDMDL
ENDMDL
