MODEL 2183
MODEL 1
REMARK VINA RESULT:    -4.889      0.000      0.000
REMARK INTER + INTRA:          -5.374
REMARK INTER:                  -5.175
REMARK INTRA:                  -0.200
REMARK UNBOUND:                -0.200
REMARK  Name = No_2183-gen_results/8p0m/2024-11-27-11-27-31/
REMARK  1 active torsions:
REMARK  status: ('A' for Active; 'I' for Inactive)
REMARK    1  A    between atoms: C_3  and  C_7
REMARK                            x       y       z     vdW  Elec       q    Type
REMARK                         _______ _______ _______ _____ _____    ______ ____
ROOT
ATOM      1  C   UNL A   1     -25.974  -3.067  29.681  0.00  0.00    -0.000 A 
ATOM      2  C   UNL A   1     -26.192  -4.096  29.742  0.00  0.00    -0.000 A 
ATOM      3  C   UNL A   1     -24.767  -2.684  29.056  0.00  0.00    -0.000 A 
ATOM      4  C   UNL A   1     -23.881  -3.614  28.548  0.00  0.00    -0.000 A 
ATOM      5  C   UNL A   1     -25.431  -5.276  29.285  0.00  0.00    -0.000 A 
ATOM      6  C   UNL A   1     -24.266  -4.954  28.681  0.00  0.00    -0.000 A 
ENDROOT
BRANCH   3   7
ATOM      7  C   UNL A   1     -24.150  -1.310  28.826  0.00  0.00    -0.005 C 
ATOM      8  C   UNL A   1     -23.282  -0.794  29.460  0.00  0.00    -0.026 C 
ATOM      9  C   UNL A   1     -23.358  -1.038  30.921  0.00  0.00    +0.031 C 
ENDBRANCH   3   7
TORSDOF 1
ENDMDL
ENDMDL
