REMARK  Name = No_2184-gen_results/8p0m/2024-11-27-11-27-31/
REMARK  1 active torsions:
REMARK  status: ('A' for Active; 'I' for Inactive)
REMARK    1  A    between atoms: C_6  and  C_20
REMARK                            x       y       z     vdW  Elec       q    Type
REMARK                         _______ _______ _______ _____ _____    ______ ____
ROOT
ATOM      1  C   UNL A   1     -28.016  -0.814  28.878  0.00  0.00    +0.004 A 
ATOM      2  C   UNL A   1     -27.064  -0.119  28.608  0.00  0.00    -0.001 A 
ATOM      3  C   UNL A   1     -25.792  -0.430  29.076  0.00  0.00    -0.018 A 
ATOM      4  C   UNL A   1     -25.576  -1.565  29.936  0.00  0.00    -0.004 A 
ATOM      5  C   UNL A   1     -26.735  -2.300  30.217  0.00  0.00    +0.004 A 
ATOM      6  C   UNL A   1     -27.918  -1.954  29.763  0.00  0.00    +0.054 A 
ATOM      7  C   UNL A   1     -27.106   1.102  27.759  0.00  0.00    +0.027 A 
ATOM      8  C   UNL A   1     -27.858   1.531  27.216  0.00  0.00    +0.140 A 
ATOM      9  C   UNL A   1     -27.843   2.721  26.286  0.00  0.00    +0.030 A 
ATOM     10  C   UNL A   1     -26.622   3.325  26.057  0.00  0.00    +0.002 A 
ATOM     11  C   UNL A   1     -25.485   2.796  26.672  0.00  0.00    -0.000 A 
ATOM     12  C   UNL A   1     -25.622   1.736  27.519  0.00  0.00    -0.002 A 
ATOM     13  C   UNL A   1     -24.195   3.446  26.481  0.00  0.00    -0.000 A 
ATOM     14  C   UNL A   1     -23.052   2.592  26.871  0.00  0.00    -0.005 A 
ATOM     15  C   UNL A   1     -23.320   1.539  27.788  0.00  0.00    -0.026 A 
ATOM     16  C   UNL A   1     -24.516   1.079  28.051  0.00  0.00    -0.022 A 
ATOM     17  C   UNL A   1     -24.522   0.271  28.805  0.00  0.00    +0.044 C 
ATOM     18  C   UNL A   1     -22.146   0.874  28.389  0.00  0.00    +0.027 C 
ATOM     19  C   UNL A   1     -23.336  -0.352  29.377  0.00  0.00    +0.012 C 
ATOM     20  C   UNL A   1     -22.677  -1.190  30.144  0.00  0.00    +0.001 C 
ATOM     21  F   UNL A   1     -29.183   1.104  27.305  0.00  0.00    -0.204 F 
ENDROOT
BRANCH   6  22
ATOM     22  C   UNL A   1     -29.141  -2.727  30.134  0.00  0.00    +0.249 C 
ATOM     23  N   UNL A   1     -29.491  -2.567  31.313  0.00  0.00    -0.276 N 
ATOM     24  C   UNL A   1     -29.533  -1.564  31.921  0.00  0.00    +0.094 C 
ATOM     25  C   UNL A   1     -29.932  -1.559  33.391  0.00  0.00    +0.022 C 
ATOM     26  C   UNL A   1     -29.975  -3.846  32.001  0.00  0.00    +0.094 C 
ATOM     27  C   UNL A   1     -30.253  -3.869  33.338  0.00  0.00    +0.022 C 
ATOM     28  C   UNL A   1     -30.317  -2.658  34.033  0.00  0.00    +0.004 C 
ATOM     29  O   UNL A   1     -29.863  -3.109  29.277  0.00  0.00    -0.270 OA
ENDBRANCH   6  22
TORSDOF 1
