MODEL 2184
MODEL 1
REMARK VINA RESULT:    -8.355      0.000      0.000
REMARK INTER + INTRA:          -8.976
REMARK INTER:                  -8.843
REMARK INTRA:                  -0.133
REMARK UNBOUND:                -0.133
REMARK  Name = No_2184-gen_results/8p0m/2024-11-27-11-27-31/
REMARK  1 active torsions:
REMARK  status: ('A' for Active; 'I' for Inactive)
REMARK    1  A    between atoms: C_6  and  C_20
REMARK                            x       y       z     vdW  Elec       q    Type
REMARK                         _______ _______ _______ _____ _____    ______ ____
ROOT
ATOM      1  C   UNL A   1     -27.605   0.578  27.327  0.00  0.00    +0.004 A 
ATOM      2  C   UNL A   1     -26.426   0.416  27.537  0.00  0.00    -0.001 A 
ATOM      3  C   UNL A   1     -25.466   1.147  26.846  0.00  0.00    -0.018 A 
ATOM      4  C   UNL A   1     -25.845   2.089  25.824  0.00  0.00    -0.004 A 
ATOM      5  C   UNL A   1     -27.228   2.196  25.629  0.00  0.00    +0.004 A 
ATOM      6  C   UNL A   1     -28.094   1.469  26.297  0.00  0.00    +0.054 A 
ATOM      7  C   UNL A   1     -25.853  -0.529  28.533  0.00  0.00    +0.027 A 
ATOM      8  C   UNL A   1     -26.291  -1.130  29.235  0.00  0.00    +0.140 A 
ATOM      9  C   UNL A   1     -25.675  -2.009  30.298  0.00  0.00    +0.030 A 
ATOM     10  C   UNL A   1     -24.299  -1.984  30.416  0.00  0.00    +0.002 A 
ATOM     11  C   UNL A   1     -23.568  -1.143  29.573  0.00  0.00    -0.000 A 
ATOM     12  C   UNL A   1     -24.228  -0.416  28.626  0.00  0.00    -0.002 A 
ATOM     13  C   UNL A   1     -22.113  -1.136  29.649  0.00  0.00    -0.000 A 
ATOM     14  C   UNL A   1     -21.503   0.036  28.984  0.00  0.00    -0.005 A 
ATOM     15  C   UNL A   1     -22.283   0.688  27.989  0.00  0.00    -0.026 A 
ATOM     16  C   UNL A   1     -23.575   0.540  27.853  0.00  0.00    -0.022 A 
ATOM     17  C   UNL A   1     -23.999   1.116  27.011  0.00  0.00    +0.044 C 
ATOM     18  C   UNL A   1     -21.578   1.668  27.137  0.00  0.00    +0.027 C 
ATOM     19  C   UNL A   1     -23.263   2.068  26.190  0.00  0.00    +0.012 C 
ATOM     20  C   UNL A   1     -23.108   2.951  25.231  0.00  0.00    +0.001 C 
ATOM     21  F   UNL A   1     -27.670  -1.332  29.293  0.00  0.00    -0.204 F 
ENDROOT
BRANCH   6  22
ATOM     22  C   UNL A   1     -29.559   1.566  26.019  0.00  0.00    +0.249 C 
ATOM     23  N   UNL A   1     -29.954   0.766  25.158  0.00  0.00    -0.276 N 
ATOM     24  C   UNL A   1     -29.667  -0.366  25.041  0.00  0.00    +0.094 C 
ATOM     25  C   UNL A   1     -30.204  -1.191  23.879  0.00  0.00    +0.022 C 
ATOM     26  C   UNL A   1     -30.985   1.350  24.188  0.00  0.00    +0.094 C 
ATOM     27  C   UNL A   1     -31.407   0.647  23.095  0.00  0.00    +0.022 C 
ATOM     28  C   UNL A   1     -31.067  -0.705  22.993  0.00  0.00    +0.004 C 
ATOM     29  O   UNL A   1     -30.265   2.076  26.820  0.00  0.00    -0.270 OA
ENDBRANCH   6  22
TORSDOF 1
ENDMDL
ENDMDL
