REMARK  Name = outputs/IAG933/test6/raw/output_2185_IAG933_linker_design_.xyz
REMARK  8 active torsions:
REMARK  status: ('A' for Active; 'I' for Inactive)
REMARK    1  A    between atoms: C_1  and  C_2
REMARK    2  A    between atoms: C_1  and  C_8
REMARK    3  A    between atoms: C_1  and  N_30
REMARK    4  A    between atoms: C_13  and  C_32
REMARK    5  A    between atoms: C_14  and  C_15
REMARK    6  A    between atoms: C_21  and  O_22
REMARK    7  A    between atoms: O_22  and  C_23
REMARK    8  A    between atoms: C_23  and  C_24
REMARK                            x       y       z     vdW  Elec       q    Type
REMARK                         _______ _______ _______ _____ _____    ______ ____
ROOT
ATOM      1  N   UNL A   1     -23.523   2.600  26.289  0.00  0.00    -0.160 NA
ATOM      2  C   UNL A   1     -21.404   1.501  27.542  0.00  0.00    +0.281 C 
ATOM      3  N   UNL A   1     -24.415  -0.223  29.323  0.00  0.00    -0.162 N 
ATOM      4  C   UNL A   1     -22.634   0.991  28.056  0.00  0.00    +0.158 C 
ATOM      5  C   UNL A   1     -24.922   1.070  27.368  0.00  0.00    +0.041 C 
ATOM      6  O   UNL A   1     -20.360   1.378  28.229  0.00  0.00    -0.268 OA
ATOM      7  N   UNL A   1     -21.363   2.307  26.438  0.00  0.00    -0.122 NA
ATOM      8  C   UNL A   1     -22.464   2.746  25.663  0.00  0.00    +0.350 C 
ATOM      9  O   UNL A   1     -22.398   3.347  24.559  0.00  0.00    -0.248 OA
ATOM     10  C   UNL A   1     -23.656   1.578  27.248  0.00  0.00    +0.087 C 
ATOM     11  C   UNL A   1     -23.022   0.139  29.135  0.00  0.00    +0.386 C 
ATOM     12  N   UNL A   1     -22.123  -0.327  29.938  0.00  0.00    +0.194 NA
ATOM     13  C   UNL A   1     -25.386   0.057  28.236  0.00  0.00    +0.173 C 
ENDROOT
BRANCH   5  14
ATOM     14  C   UNL A   1     -25.688   1.614  26.461  0.00  0.00    +0.097 C 
ATOM     15  C   UNL A   1     -26.250   2.920  26.395  0.00  0.00    +0.059 C 
ATOM     16  C   UNL A   1     -27.438   3.091  25.645  0.00  0.00    +0.102 C 
ATOM     17  N   UNL A   1     -28.075   2.089  25.003  0.00  0.00    -0.212 NA
ATOM     18  C   UNL A   1     -27.543   0.849  25.079  0.00  0.00    +0.234 C 
ATOM     19  C   UNL A   1     -26.354   0.576  25.777  0.00  0.00    +0.244 C 
ATOM     20  F   UNL A   1     -25.860  -0.681  25.795  0.00  0.00    -0.227 F 
BRANCH  15  21
ATOM     21  C   UNL A   1     -25.642   4.093  27.123  0.00  0.00    +0.263 C 
ATOM     22  N   UNL A   1     -25.614   5.252  26.449  0.00  0.00    -0.200 NA
ATOM     23  C   UNL A   1     -25.026   6.479  26.963  0.00  0.00    +0.139 C 
ATOM     24  O   UNL A   1     -25.143   3.966  28.243  0.00  0.00    -0.269 OA
ENDBRANCH  15  21
BRANCH  18  25
ATOM     25  O   UNL A   1     -28.193  -0.208  24.477  0.00  0.00    -0.459 OA
BRANCH  25  26
ATOM     26  C   UNL A   1     -29.460   0.005  23.866  0.00  0.00    +0.242 C 
BRANCH  26  27
ATOM     27  C   UNL A   1     -30.065  -1.377  23.573  0.00  0.00    +0.229 C 
ATOM     28  O   UNL A   1     -30.729  -1.878  24.721  0.00  0.00    -0.216 OA
ENDBRANCH  26  27
ENDBRANCH  25  26
ENDBRANCH  18  25
ENDBRANCH   5  14
BRANCH   3  29
ATOM     29  C   UNL A   1     -24.855  -1.012  30.143  0.00  0.00    +0.203 C 
BRANCH  29  30
ATOM     30  C   UNL A   1     -24.973  -2.505  29.788  0.00  0.00    +0.022 C 
ATOM     31  C   UNL A   1     -23.906  -3.173  29.146  0.00  0.00    -0.000 C 
ATOM     32  C   UNL A   1     -23.989  -4.549  28.853  0.00  0.00    -0.000 C 
ATOM     33  C   UNL A   1     -25.137  -5.280  29.205  0.00  0.00    -0.000 C 
ATOM     34  C   UNL A   1     -26.232  -4.611  29.784  0.00  0.00    -0.000 C 
ATOM     35  C   UNL A   1     -26.155  -3.232  30.065  0.00  0.00    -0.000 C 
ENDBRANCH  29  30
BRANCH  29  36
ATOM     36  C   UNL A   1     -25.387  -0.679  31.571  0.00  0.00    +0.120 C 
ATOM     37  C   UNL A   1     -25.189   0.773  32.028  0.00  0.00    +0.023 C 
ATOM     38  C   UNL A   1     -25.336   0.684  33.544  0.00  0.00    +0.020 C 
ATOM     39  C   UNL A   1     -24.829  -0.715  33.905  0.00  0.00    +0.089 C 
ATOM     40  N   UNL A   1     -24.758  -1.481  32.646  0.00  0.00    -0.215 NA
ENDBRANCH  29  36
ENDBRANCH   3  29
TORSDOF 8
