MODEL 2186
MODEL 1
REMARK VINA RESULT:    -4.348      0.000      0.000
REMARK INTER + INTRA:          -6.001
REMARK INTER:                  -5.365
REMARK INTRA:                  -0.636
REMARK UNBOUND:                -0.636
REMARK  Name = No_2186-gen_results/8p0m/2024-11-27-11-27-31/
REMARK  4 active torsions:
REMARK  status: ('A' for Active; 'I' for Inactive)
REMARK    1  A    between atoms: C_2  and  C_3
REMARK    2  A    between atoms: C_3  and  C_5
REMARK    3  A    between atoms: C_5  and  C_9
REMARK    4  A    between atoms: C_9  and  C_10
REMARK                            x       y       z     vdW  Elec       q    Type
REMARK                         _______ _______ _______ _____ _____    ______ ____
ROOT
ATOM      1  C   UNL A   1     -24.055  -1.553  28.977  0.00  0.00    +0.078 C 
ATOM      2  C   UNL A   1     -24.602  -0.761  27.889  0.00  0.00    +0.010 C 
ENDROOT
BRANCH   1   4
ATOM      3  O   UNL A   1     -25.520  -2.835  30.029  0.00  0.00    -0.273 OA
ATOM      4  C   UNL A   1     -24.600  -2.769  29.339  0.00  0.00    +0.241 C 
ATOM      5  N   UNL A   1     -24.008  -3.935  28.658  0.00  0.00    -0.203 NA
ATOM      6  C   UNL A   1     -24.598  -5.201  28.919  0.00  0.00    +0.139 C 
ENDBRANCH   1   4
BRANCH   1   7
ATOM      7  C   UNL A   1     -22.923  -0.981  29.613  0.00  0.00    +0.009 C 
ATOM      8  C   UNL A   1     -21.790  -0.756  28.932  0.00  0.00    +0.001 C 
BRANCH   7   9
ATOM      9  C   UNL A   1     -22.934  -0.749  31.073  0.00  0.00    +0.001 C 
BRANCH   9  10
ATOM     10  C   UNL A   1     -23.841   0.148  31.595  0.00  0.00    +0.000 C 
ATOM     11  C   UNL A   1     -23.914   1.426  31.156  0.00  0.00    +0.000 C 
ATOM     12  C   UNL A   1     -24.815  -0.339  32.584  0.00  0.00    +0.000 C 
ENDBRANCH   9  10
ENDBRANCH   7   9
ENDBRANCH   1   7
TORSDOF 4
ENDMDL
ENDMDL
