REMARK  Name = No_2186-gen_results/8p0m/2024-11-27-11-27-31/
REMARK  4 active torsions:
REMARK  status: ('A' for Active; 'I' for Inactive)
REMARK    1  A    between atoms: C_2  and  C_3
REMARK    2  A    between atoms: C_3  and  C_5
REMARK    3  A    between atoms: C_5  and  C_9
REMARK    4  A    between atoms: C_9  and  C_10
REMARK                            x       y       z     vdW  Elec       q    Type
REMARK                         _______ _______ _______ _____ _____    ______ ____
ROOT
ATOM      1  C   UNL A   1     -26.380  -0.087  27.939  0.00  0.00    +0.078 C 
ATOM      2  C   UNL A   1     -25.082  -0.697  28.170  0.00  0.00    +0.010 C 
ENDROOT
BRANCH   1   4
ATOM      3  O   UNL A   1     -28.123  -1.335  28.487  0.00  0.00    -0.273 OA
ATOM      4  C   UNL A   1     -27.481  -0.404  28.709  0.00  0.00    +0.241 C 
ATOM      5  N   UNL A   1     -27.666   0.447  29.899  0.00  0.00    -0.203 NA
ATOM      6  C   UNL A   1     -28.727   0.102  30.779  0.00  0.00    +0.139 C 
ENDBRANCH   1   4
BRANCH   1   7
ATOM      7  C   UNL A   1     -26.409   0.857  26.880  0.00  0.00    +0.009 C 
ATOM      8  C   UNL A   1     -27.547   1.484  26.546  0.00  0.00    +0.001 C 
BRANCH   7   9
ATOM      9  C   UNL A   1     -25.210   1.062  26.040  0.00  0.00    +0.001 C 
BRANCH   9  10
ATOM     10  C   UNL A   1     -24.245   1.948  26.467  0.00  0.00    +0.000 C 
ATOM     11  C   UNL A   1     -24.490   2.854  27.443  0.00  0.00    +0.000 C 
ATOM     12  C   UNL A   1     -22.890   1.829  25.908  0.00  0.00    +0.000 C 
ENDBRANCH   9  10
ENDBRANCH   7   9
ENDBRANCH   1   7
TORSDOF 4
