REMARK  Name = outputs/IAG933/test6/raw/output_2187_IAG933_linker_design_.xyz
REMARK  19 active torsions:
REMARK  status: ('A' for Active; 'I' for Inactive)
REMARK    1  A    between atoms: C_1  and  C_2
REMARK    2  A    between atoms: C_1  and  C_8
REMARK    3  A    between atoms: C_1  and  C_34
REMARK    4  A    between atoms: C_13  and  C_29
REMARK    5  A    between atoms: C_14  and  C_15
REMARK    6  A    between atoms: C_21  and  O_22
REMARK    7  A    between atoms: O_22  and  C_23
REMARK    8  A    between atoms: C_23  and  C_24
REMARK    9  A    between atoms: C_28  and  O_43
REMARK   10  A    between atoms: C_28  and  C_45
REMARK   11  A    between atoms: N_32  and  C_36
REMARK   12  A    between atoms: N_32  and  C_39
REMARK   13  A    between atoms: N_33  and  C_34
REMARK   14  A    between atoms: C_34  and  C_38
REMARK   15  A    between atoms: C_35  and  C_46
REMARK   16  A    between atoms: C_36  and  C_46
REMARK   17  A    between atoms: C_37  and  C_39
REMARK   18  A    between atoms: C_37  and  O_43
REMARK   19  A    between atoms: C_41  and  C_45
REMARK                            x       y       z     vdW  Elec       q    Type
REMARK                         _______ _______ _______ _____ _____    ______ ____
ROOT
ATOM      1  C   UNL A   1     -25.489  -0.143  29.107  0.00  0.00    +0.117 C 
ENDROOT
BRANCH   1   5
ATOM      2  C   UNL A   1     -24.508   1.439  27.102  0.00  0.00    +0.037 C 
ATOM      3  C   UNL A   1     -23.125   0.949  28.904  0.00  0.00    +0.243 C 
ATOM      4  C   UNL A   1     -23.070   1.747  26.439  0.00  0.00    +0.028 C 
ATOM      5  C   UNL A   1     -24.374   0.902  28.616  0.00  0.00    +0.105 C 
ATOM      6  O   UNL A   1     -22.432  -0.150  29.146  0.00  0.00    -0.273 OA
ATOM      7  N   UNL A   1     -22.447   2.091  28.937  0.00  0.00    -0.205 NA
ATOM      8  C   UNL A   1     -21.850   2.005  27.413  0.00  0.00    +0.116 C 
BRANCH   2   9
ATOM      9  C   UNL A   1     -25.688   1.614  26.461  0.00  0.00    +0.016 C 
ATOM     10  C   UNL A   1     -26.250   2.920  26.395  0.00  0.00    +0.073 C 
ATOM     11  C   UNL A   1     -27.438   3.091  25.645  0.00  0.00    +0.106 C 
ATOM     12  N   UNL A   1     -28.075   2.089  25.003  0.00  0.00    -0.208 NA
ATOM     13  C   UNL A   1     -27.543   0.849  25.079  0.00  0.00    +0.253 C 
ATOM     14  C   UNL A   1     -26.354   0.576  25.777  0.00  0.00    +0.189 C 
ATOM     15  F   UNL A   1     -25.860  -0.681  25.795  0.00  0.00    -0.200 F 
BRANCH  10  16
ATOM     16  C   UNL A   1     -25.642   4.093  27.123  0.00  0.00    +0.266 C 
ATOM     17  N   UNL A   1     -25.614   5.252  26.449  0.00  0.00    -0.200 NA
ATOM     18  C   UNL A   1     -25.026   6.479  26.963  0.00  0.00    +0.139 C 
ATOM     19  O   UNL A   1     -25.143   3.966  28.243  0.00  0.00    -0.268 OA
ENDBRANCH  10  16
BRANCH  13  20
ATOM     20  O   UNL A   1     -28.193  -0.208  24.477  0.00  0.00    -0.456 OA
BRANCH  20  21
ATOM     21  C   UNL A   1     -29.460   0.005  23.866  0.00  0.00    +0.243 C 
BRANCH  21  22
ATOM     22  C   UNL A   1     -30.065  -1.377  23.573  0.00  0.00    +0.229 C 
ATOM     23  O   UNL A   1     -30.729  -1.878  24.721  0.00  0.00    -0.216 OA
ENDBRANCH  21  22
ENDBRANCH  20  21
ENDBRANCH  13  20
ENDBRANCH   2   9
ENDBRANCH   1   5
BRANCH   1  24
ATOM     24  N   UNL A   1     -26.965  -0.187  28.712  0.00  0.00    -0.275 NA
ATOM     25  C   UNL A   1     -27.829   0.977  28.894  0.00  0.00    +0.069 C 
BRANCH  25  26
ATOM     26  C   UNL A   1     -29.164   1.037  28.786  0.00  0.00    +0.079 C 
BRANCH  26  27
ATOM     27  C   UNL A   1     -29.956   2.130  29.545  0.00  0.00    +0.148 C 
BRANCH  27  28
ATOM     28  O   UNL A   1     -29.071   2.908  30.375  0.00  0.00    -0.352 OA
BRANCH  28  29
ATOM     29  C   UNL A   1     -28.845   4.087  29.628  0.00  0.00    +0.161 C 
BRANCH  29  30
ATOM     30  C   UNL A   1     -27.999   5.013  30.520  0.00  0.00    +0.121 C 
BRANCH  30  31
ATOM     31  N   UNL A   1     -28.068   6.425  30.198  0.00  0.00    -0.215 NA
BRANCH  31  32
ATOM     32  C   UNL A   1     -29.352   6.984  29.799  0.00  0.00    +0.091 C 
BRANCH  32  33
ATOM     33  C   UNL A   1     -29.347   7.710  28.447  0.00  0.00    +0.054 C 
BRANCH  33  34
ATOM     34  C   UNL A   1     -28.926   9.144  28.749  0.00  0.00    +0.184 C 
ATOM     35  O   UNL A   1     -27.584   9.062  29.190  0.00  0.00    -0.220 OA
ENDBRANCH  33  34
ENDBRANCH  32  33
ENDBRANCH  31  32
ENDBRANCH  30  31
ENDBRANCH  29  30
ENDBRANCH  28  29
ENDBRANCH  27  28
ENDBRANCH  26  27
ENDBRANCH  25  26
ENDBRANCH   1  24
BRANCH   1  36
ATOM     36  C   UNL A   1     -24.855  -1.012  30.143  0.00  0.00    +0.061 C 
BRANCH  36  37
ATOM     37  C   UNL A   1     -24.973  -2.505  29.788  0.00  0.00    -0.019 C 
ATOM     38  C   UNL A   1     -23.906  -3.173  29.146  0.00  0.00    -0.004 C 
ATOM     39  C   UNL A   1     -23.989  -4.549  28.853  0.00  0.00    -0.000 C 
ATOM     40  C   UNL A   1     -25.137  -5.280  29.205  0.00  0.00    -0.000 C 
ATOM     41  C   UNL A   1     -26.232  -4.611  29.784  0.00  0.00    -0.000 C 
ATOM     42  C   UNL A   1     -26.155  -3.232  30.065  0.00  0.00    -0.004 C 
ENDBRANCH  36  37
BRANCH  36  43
ATOM     43  C   UNL A   1     -25.387  -0.679  31.571  0.00  0.00    +0.079 C 
ATOM     44  C   UNL A   1     -25.189   0.773  32.028  0.00  0.00    +0.019 C 
ATOM     45  C   UNL A   1     -25.336   0.684  33.544  0.00  0.00    +0.020 C 
ATOM     46  C   UNL A   1     -24.829  -0.715  33.905  0.00  0.00    +0.089 C 
ATOM     47  N   UNL A   1     -24.758  -1.481  32.646  0.00  0.00    -0.219 NA
ENDBRANCH  36  43
ENDBRANCH   1  36
TORSDOF 19
