MODEL 2187
MODEL 1
REMARK VINA RESULT:    -7.689      0.000      0.000
REMARK INTER + INTRA:          -7.689
REMARK INTER:                  -7.689
REMARK INTRA:                   0.000
REMARK UNBOUND:                 0.000
REMARK  Name = No_2187-gen_results/8p0m/2024-11-27-11-27-31/
REMARK  0 active torsions:
REMARK  status: ('A' for Active; 'I' for Inactive)
REMARK                            x       y       z     vdW  Elec       q    Type
REMARK                         _______ _______ _______ _____ _____    ______ ____
ROOT
ATOM      1  C   UNL A   1     -23.873  -3.651  28.650  0.00  0.00    -0.002 A 
ATOM      2  C   UNL A   1     -24.314  -4.560  28.949  0.00  0.00    -0.000 A 
ATOM      3  C   UNL A   1     -24.627  -2.461  28.925  0.00  0.00    +0.005 A 
ATOM      4  C   UNL A   1     -25.884  -2.482  29.378  0.00  0.00    -0.002 A 
ATOM      5  C   UNL A   1     -26.606  -1.305  29.607  0.00  0.00    -0.001 C 
ATOM      6  C   UNL A   1     -25.624  -4.875  29.462  0.00  0.00    -0.000 A 
ATOM      7  C   UNL A   1     -26.392  -3.720  29.701  0.00  0.00    -0.000 A 
ATOM      8  C   UNL A   1     -26.765  -0.382  28.968  0.00  0.00    -0.005 C 
ATOM      9  C   UNL A   1     -26.062  -0.353  27.643  0.00  0.00    -0.030 C 
ATOM     10  C   UNL A   1     -24.751   0.101  27.744  0.00  0.00    -0.045 C 
ATOM     11  C   UNL A   1     -23.818  -0.506  28.561  0.00  0.00    +0.052 C 
ATOM     12  C   UNL A   1     -23.936  -1.332  28.668  0.00  0.00    +0.141 C 
ATOM     13  C   UNL A   1     -22.579   0.425  28.642  0.00  0.00    +0.039 C 
ATOM     14  O   UNL A   1     -22.594  -1.890  28.956  0.00  0.00    -0.351 OA
ATOM     15  C   UNL A   1     -21.767  -0.709  29.131  0.00  0.00    +0.143 C 
ATOM     16  C   UNL A   1     -26.855   0.550  26.602  0.00  0.00    +0.030 C 
ATOM     17  C   UNL A   1     -24.397   1.156  26.931  0.00  0.00    +0.026 C 
ENDROOT
TORSDOF 0
ENDMDL
ENDMDL
