MODEL 2188
MODEL 1
REMARK VINA RESULT:    -6.795      0.000      0.000
REMARK INTER + INTRA:          -8.031
REMARK INTER:                  -7.589
REMARK INTRA:                  -0.441
REMARK UNBOUND:                -0.441
REMARK  Name = No_2188-gen_results/8p0m/2024-11-27-11-27-31/
REMARK  2 active torsions:
REMARK  status: ('A' for Active; 'I' for Inactive)
REMARK    1  A    between atoms: C_3  and  C_7
REMARK    2  A    between atoms: C_6  and  C_13
REMARK                            x       y       z     vdW  Elec       q    Type
REMARK                         _______ _______ _______ _____ _____    ______ ____
ROOT
ATOM      1  C   UNL A   1     -22.991   1.138  27.632  0.00  0.00    +0.001 A 
ATOM      2  C   UNL A   1     -23.391   0.219  28.307  0.00  0.00    -0.000 A 
ATOM      3  C   UNL A   1     -24.434  -0.623  27.924  0.00  0.00    +0.000 A 
ATOM      4  C   UNL A   1     -25.130  -0.364  26.679  0.00  0.00    -0.000 A 
ATOM      5  C   UNL A   1     -24.649   0.718  25.941  0.00  0.00    +0.001 A 
ATOM      6  C   UNL A   1     -23.661   1.470  26.385  0.00  0.00    +0.044 A 
ENDROOT
BRANCH   3   7
ATOM      7  C   UNL A   1     -24.975  -1.778  28.697  0.00  0.00    +0.003 A 
ATOM      8  C   UNL A   1     -24.452  -2.966  28.621  0.00  0.00    +0.042 A 
ATOM      9  C   UNL A   1     -25.053  -4.065  29.239  0.00  0.00    +0.196 A 
ATOM     10  C   UNL A   1     -26.237  -4.005  29.930  0.00  0.00    +0.042 A 
ATOM     11  C   UNL A   1     -26.267  -1.649  29.380  0.00  0.00    +0.000 A 
ATOM     12  C   UNL A   1     -26.864  -2.782  30.004  0.00  0.00    +0.003 A 
ATOM     13  O   UNL A   1     -24.404  -5.282  29.198  0.00  0.00    -0.287 OA
ENDBRANCH   3   7
BRANCH   6  14
ATOM     14  C   UNL A   1     -23.246   2.639  25.561  0.00  0.00    +0.341 C 
ATOM     15  F   UNL A   1     -23.917   3.540  25.590  0.00  0.00    -0.193 F 
ATOM     16  F   UNL A   1     -22.313   2.506  24.745  0.00  0.00    -0.193 F 
ENDBRANCH   6  14
TORSDOF 2
ENDMDL
ENDMDL
