MODEL 2189
MODEL 1
REMARK VINA RESULT:    -6.642      0.000      0.000
REMARK INTER + INTRA:          -8.961
REMARK INTER:                  -8.195
REMARK INTRA:                  -0.765
REMARK UNBOUND:                -0.765
REMARK  Name = No_2189-gen_results/8p0m/2024-11-27-11-27-31/
REMARK  4 active torsions:
REMARK  status: ('A' for Active; 'I' for Inactive)
REMARK    1  A    between atoms: C_2  and  C_7
REMARK    2  A    between atoms: C_7  and  C_8
REMARK    3  A    between atoms: C_8  and  C_9
REMARK    4  A    between atoms: C_8  and  C_15
REMARK                            x       y       z     vdW  Elec       q    Type
REMARK                         _______ _______ _______ _____ _____    ______ ____
ROOT
ATOM      1  C   UNL A   1     -24.002  -0.567  30.171  0.00  0.00    +0.068 C 
ENDROOT
BRANCH   1   2
ATOM      2  C   UNL A   1     -23.098   0.233  29.445  0.00  0.00    -0.013 A 
ATOM      3  C   UNL A   1     -23.410   1.177  28.492  0.00  0.00    +0.017 A 
ATOM      4  C   UNL A   1     -22.404   1.724  27.664  0.00  0.00    +0.099 A 
ATOM      5  N   UNL A   1     -21.237   1.117  27.672  0.00  0.00    -0.242 NA
ATOM      6  C   UNL A   1     -20.896   0.064  28.399  0.00  0.00    +0.099 A 
ATOM      7  C   UNL A   1     -21.828  -0.404  29.319  0.00  0.00    +0.017 A 
ENDBRANCH   1   2
BRANCH   1   8
ATOM      8  C   UNL A   1     -23.973  -0.654  31.603  0.00  0.00    +0.071 C 
ATOM      9  N   UNL A   1     -25.080  -0.603  32.228  0.00  0.00    -0.271 NA
ATOM     10  C   UNL A   1     -25.094  -0.492  33.629  0.00  0.00    +0.151 C 
ENDBRANCH   1   8
BRANCH   1  11
ATOM     11  C   UNL A   1     -25.198  -1.172  29.534  0.00  0.00    +0.037 C 
BRANCH  11  13
ATOM     12  C   UNL A   1     -24.101  -3.155  28.747  0.00  0.00    -0.004 A 
ATOM     13  C   UNL A   1     -25.076  -2.704  29.302  0.00  0.00    -0.021 A 
ATOM     14  C   UNL A   1     -26.104  -3.355  29.767  0.00  0.00    -0.004 A 
ATOM     15  C   UNL A   1     -26.126  -4.775  29.611  0.00  0.00    -0.000 A 
ATOM     16  C   UNL A   1     -23.998  -4.600  28.654  0.00  0.00    -0.000 A 
ATOM     17  C   UNL A   1     -25.017  -5.341  29.090  0.00  0.00    -0.000 A 
ENDBRANCH  11  13
ENDBRANCH   1  11
TORSDOF 4
ENDMDL
ENDMDL
