REMARK  Name = No_2189-gen_results/8p0m/2024-11-27-11-27-31/
REMARK  4 active torsions:
REMARK  status: ('A' for Active; 'I' for Inactive)
REMARK    1  A    between atoms: C_2  and  C_7
REMARK    2  A    between atoms: C_7  and  C_8
REMARK    3  A    between atoms: C_8  and  C_9
REMARK    4  A    between atoms: C_8  and  C_15
REMARK                            x       y       z     vdW  Elec       q    Type
REMARK                         _______ _______ _______ _____ _____    ______ ____
ROOT
ATOM      1  C   UNL A   1     -24.760  -1.199  28.657  0.00  0.00    +0.068 C 
ENDROOT
BRANCH   1   2
ATOM      2  C   UNL A   1     -23.619  -0.413  28.911  0.00  0.00    -0.013 A 
ATOM      3  C   UNL A   1     -23.320   0.813  28.359  0.00  0.00    +0.017 A 
ATOM      4  C   UNL A   1     -22.031   1.373  28.504  0.00  0.00    +0.099 A 
ATOM      5  N   UNL A   1     -21.087   0.575  28.953  0.00  0.00    -0.242 NA
ATOM      6  C   UNL A   1     -21.225  -0.692  29.315  0.00  0.00    +0.099 A 
ATOM      7  C   UNL A   1     -22.512  -1.220  29.308  0.00  0.00    +0.017 A 
ENDBRANCH   1   2
BRANCH   1   8
ATOM      8  C   UNL A   1     -25.040  -2.404  29.385  0.00  0.00    +0.071 C 
ATOM      9  N   UNL A   1     -24.712  -3.513  28.854  0.00  0.00    -0.271 NA
ATOM     10  C   UNL A   1     -25.133  -4.723  29.432  0.00  0.00    +0.151 C 
ENDBRANCH   1   8
BRANCH   1  11
ATOM     11  C   UNL A   1     -25.873  -0.713  27.805  0.00  0.00    +0.037 C 
BRANCH  11  13
ATOM     12  C   UNL A   1     -28.016  -0.814  28.878  0.00  0.00    -0.004 A 
ATOM     13  C   UNL A   1     -27.064  -0.119  28.608  0.00  0.00    -0.021 A 
ATOM     14  C   UNL A   1     -26.876   1.133  28.913  0.00  0.00    -0.004 A 
ATOM     15  C   UNL A   1     -27.901   1.807  29.644  0.00  0.00    -0.000 A 
ATOM     16  C   UNL A   1     -29.046  -0.232  29.718  0.00  0.00    -0.000 A 
ATOM     17  C   UNL A   1     -28.940   1.052  30.060  0.00  0.00    -0.000 A 
ENDBRANCH  11  13
ENDBRANCH   1  11
TORSDOF 4
