MODEL 218
MODEL 1
REMARK VINA RESULT:    -5.019      0.000      0.000
REMARK INTER + INTRA:          -5.019
REMARK INTER:                  -5.019
REMARK INTRA:                   0.000
REMARK UNBOUND:                 0.000
REMARK  Name = No_218-gen_results/8p0m/2024-11-27-11-27-31/
REMARK  0 active torsions:
REMARK  status: ('A' for Active; 'I' for Inactive)
REMARK                            x       y       z     vdW  Elec       q    Type
REMARK                         _______ _______ _______ _____ _____    ______ ____
ROOT
ATOM      1  C   UNL A   1     -10.497  -9.301  19.206  0.00  0.00    +0.042 A 
ATOM      2  C   UNL A   1      -9.741  -9.110  20.130  0.00  0.00    +0.003 A 
ATOM      3  C   UNL A   1      -8.442  -9.607  20.110  0.00  0.00    +0.000 A 
ATOM      4  C   UNL A   1      -7.971 -10.405  19.008  0.00  0.00    +0.003 A 
ATOM      5  C   UNL A   1      -8.918 -10.597  17.993  0.00  0.00    +0.042 A 
ATOM      6  C   UNL A   1     -10.139 -10.119  18.068  0.00  0.00    +0.196 A 
ATOM      7  O   UNL A   1     -11.010 -10.384  17.056  0.00  0.00    -0.287 OA
ENDROOT
TORSDOF 0
ENDMDL
ENDMDL
