REMARK  Name = outputs/IAG933/test6/raw/output_2190_IAG933_linker_design_.xyz
REMARK  10 active torsions:
REMARK  status: ('A' for Active; 'I' for Inactive)
REMARK    1  A    between atoms: C_1  and  C_2
REMARK    2  A    between atoms: C_1  and  C_8
REMARK    3  A    between atoms: C_1  and  C_43
REMARK    4  A    between atoms: C_13  and  C_29
REMARK    5  A    between atoms: C_14  and  C_15
REMARK    6  A    between atoms: C_21  and  O_22
REMARK    7  A    between atoms: O_22  and  C_23
REMARK    8  A    between atoms: C_23  and  C_24
REMARK    9  A    between atoms: O_28  and  C_42
REMARK   10  A    between atoms: C_31  and  C_32
REMARK                            x       y       z     vdW  Elec       q    Type
REMARK                         _______ _______ _______ _____ _____    ______ ____
ROOT
ATOM      1  C   UNL A   1     -24.634   1.391  27.448  0.00  0.00    -0.022 C 
ATOM      2  C   UNL A   1     -22.968   1.875  25.499  0.00  0.00    +0.168 C 
ATOM      3  C   UNL A   1     -25.189   1.149  28.828  0.00  0.00    +0.023 C 
ATOM      4  C   UNL A   1     -21.648   0.791  28.638  0.00  0.00    +0.032 C 
ATOM      5  C   UNL A   1     -22.830  -0.026  28.853  0.00  0.00    +0.003 C 
ATOM      6  O   UNL A   1     -21.957   2.175  26.498  0.00  0.00    -0.349 OA
ATOM      7  C   UNL A   1     -21.194   1.550  27.524  0.00  0.00    +0.143 C 
ATOM      8  C   UNL A   1     -24.441   0.097  29.207  0.00  0.00    +0.009 C 
ATOM      9  C   UNL A   1     -23.382   1.697  26.786  0.00  0.00    +0.002 C 
ENDROOT
BRANCH   1  10
ATOM     10  C   UNL A   1     -25.688   1.614  26.461  0.00  0.00    +0.034 C 
ATOM     11  C   UNL A   1     -26.250   2.920  26.395  0.00  0.00    +0.076 C 
ATOM     12  C   UNL A   1     -27.438   3.091  25.645  0.00  0.00    +0.107 C 
ATOM     13  N   UNL A   1     -28.075   2.089  25.003  0.00  0.00    -0.208 NA
ATOM     14  C   UNL A   1     -27.543   0.849  25.079  0.00  0.00    +0.253 C 
ATOM     15  C   UNL A   1     -26.354   0.576  25.777  0.00  0.00    +0.193 C 
ATOM     16  F   UNL A   1     -25.860  -0.681  25.795  0.00  0.00    -0.199 F 
BRANCH  11  17
ATOM     17  C   UNL A   1     -25.642   4.093  27.123  0.00  0.00    +0.266 C 
ATOM     18  N   UNL A   1     -25.614   5.252  26.449  0.00  0.00    -0.200 NA
ATOM     19  C   UNL A   1     -25.026   6.479  26.963  0.00  0.00    +0.139 C 
ATOM     20  O   UNL A   1     -25.143   3.966  28.243  0.00  0.00    -0.268 OA
ENDBRANCH  11  17
BRANCH  14  21
ATOM     21  O   UNL A   1     -28.193  -0.208  24.477  0.00  0.00    -0.456 OA
BRANCH  21  22
ATOM     22  C   UNL A   1     -29.460   0.005  23.866  0.00  0.00    +0.243 C 
BRANCH  22  23
ATOM     23  C   UNL A   1     -30.065  -1.377  23.573  0.00  0.00    +0.229 C 
ATOM     24  O   UNL A   1     -30.729  -1.878  24.721  0.00  0.00    -0.216 OA
ENDBRANCH  22  23
ENDBRANCH  21  22
ENDBRANCH  14  21
ENDBRANCH   1  10
BRANCH   3  25
ATOM     25  C   UNL A   1     -26.820   0.966  29.088  0.00  0.00    +0.012 C 
ATOM     26  C   UNL A   1     -29.609   1.312  29.223  0.00  0.00    +0.006 C 
ATOM     27  C   UNL A   1     -27.326   2.366  29.504  0.00  0.00    +0.064 C 
ATOM     28  C   UNL A   1     -27.678  -0.246  28.799  0.00  0.00    +0.005 C 
ATOM     29  C   UNL A   1     -29.023   0.002  29.171  0.00  0.00    +0.029 C 
ATOM     30  C   UNL A   1     -28.843   2.490  29.301  0.00  0.00    +0.112 C 
BRANCH  30  31
ATOM     31  O   UNL A   1     -29.073   3.825  29.068  0.00  0.00    -0.476 OA
ATOM     32  C   UNL A   1     -30.365   4.399  28.903  0.00  0.00    +0.252 C 
ENDBRANCH  30  31
ENDBRANCH   3  25
BRANCH   8  33
ATOM     33  C   UNL A   1     -24.855  -1.012  30.143  0.00  0.00    +0.039 C 
BRANCH  33  34
ATOM     34  C   UNL A   1     -24.973  -2.505  29.788  0.00  0.00    -0.021 C 
ATOM     35  C   UNL A   1     -23.906  -3.173  29.146  0.00  0.00    -0.004 C 
ATOM     36  C   UNL A   1     -23.989  -4.549  28.853  0.00  0.00    -0.000 C 
ATOM     37  C   UNL A   1     -25.137  -5.280  29.205  0.00  0.00    -0.000 C 
ATOM     38  C   UNL A   1     -26.232  -4.611  29.784  0.00  0.00    -0.000 C 
ATOM     39  C   UNL A   1     -26.155  -3.232  30.065  0.00  0.00    -0.004 C 
ENDBRANCH  33  34
BRANCH  33  40
ATOM     40  C   UNL A   1     -25.387  -0.679  31.571  0.00  0.00    +0.077 C 
ATOM     41  C   UNL A   1     -25.189   0.773  32.028  0.00  0.00    +0.019 C 
ATOM     42  C   UNL A   1     -25.336   0.684  33.544  0.00  0.00    +0.020 C 
ATOM     43  C   UNL A   1     -24.829  -0.715  33.905  0.00  0.00    +0.089 C 
ATOM     44  N   UNL A   1     -24.758  -1.481  32.646  0.00  0.00    -0.219 NA
ENDBRANCH  33  40
ENDBRANCH   8  33
TORSDOF 10
