REMARK  Name = outputs/IAG933/test6/raw/output_2191_IAG933_linker_design_.xyz
REMARK  12 active torsions:
REMARK  status: ('A' for Active; 'I' for Inactive)
REMARK    1  A    between atoms: C_1  and  C_2
REMARK    2  A    between atoms: C_1  and  C_8
REMARK    3  A    between atoms: C_1  and  N_45
REMARK    4  A    between atoms: C_13  and  C_28
REMARK    5  A    between atoms: C_14  and  C_15
REMARK    6  A    between atoms: C_21  and  O_22
REMARK    7  A    between atoms: O_22  and  C_23
REMARK    8  A    between atoms: C_23  and  C_24
REMARK    9  A    between atoms: C_36  and  C_38
REMARK   10  A    between atoms: C_36  and  C_40
REMARK   11  A    between atoms: C_40  and  N_45
REMARK   12  A    between atoms: C_41  and  N_45
REMARK                            x       y       z     vdW  Elec       q    Type
REMARK                         _______ _______ _______ _____ _____    ______ ____
ROOT
ATOM      1  N   UNL A   1     -25.289  -0.189  29.012  0.00  0.00    -0.225 NA
ENDROOT
BRANCH   1   6
ATOM      2  C   UNL A   1     -24.481   1.246  27.188  0.00  0.00    +0.063 C 
ATOM      3  N   UNL A   1     -21.039   1.649  27.584  0.00  0.00    +0.217 NA
ATOM      4  N   UNL A   1     -22.972   0.438  28.540  0.00  0.00    -0.039 NA
ATOM      5  C   UNL A   1     -22.367   1.260  27.592  0.00  0.00    +0.422 C 
ATOM      6  C   UNL A   1     -24.315   0.490  28.296  0.00  0.00    +0.302 C 
ATOM      7 CL   UNL A   1     -23.100   2.592  25.216  0.00  0.00    -0.074 Cl
ATOM      8  C   UNL A   1     -23.336   1.667  26.644  0.00  0.00    +0.149 C 
BRANCH   2   9
ATOM      9  C   UNL A   1     -25.688   1.614  26.461  0.00  0.00    +0.041 C 
ATOM     10  C   UNL A   1     -26.250   2.920  26.395  0.00  0.00    +0.076 C 
ATOM     11  C   UNL A   1     -27.438   3.091  25.645  0.00  0.00    +0.107 C 
ATOM     12  N   UNL A   1     -28.075   2.089  25.003  0.00  0.00    -0.208 NA
ATOM     13  C   UNL A   1     -27.543   0.849  25.079  0.00  0.00    +0.253 C 
ATOM     14  C   UNL A   1     -26.354   0.576  25.777  0.00  0.00    +0.193 C 
ATOM     15  F   UNL A   1     -25.860  -0.681  25.795  0.00  0.00    -0.199 F 
BRANCH  10  16
ATOM     16  C   UNL A   1     -25.642   4.093  27.123  0.00  0.00    +0.266 C 
ATOM     17  N   UNL A   1     -25.614   5.252  26.449  0.00  0.00    -0.200 NA
ATOM     18  C   UNL A   1     -25.026   6.479  26.963  0.00  0.00    +0.139 C 
ATOM     19  O   UNL A   1     -25.143   3.966  28.243  0.00  0.00    -0.268 OA
ENDBRANCH  10  16
BRANCH  13  20
ATOM     20  O   UNL A   1     -28.193  -0.208  24.477  0.00  0.00    -0.456 OA
BRANCH  20  21
ATOM     21  C   UNL A   1     -29.460   0.005  23.866  0.00  0.00    +0.243 C 
BRANCH  21  22
ATOM     22  C   UNL A   1     -30.065  -1.377  23.573  0.00  0.00    +0.229 C 
ATOM     23  O   UNL A   1     -30.729  -1.878  24.721  0.00  0.00    -0.216 OA
ENDBRANCH  21  22
ENDBRANCH  20  21
ENDBRANCH  13  20
ENDBRANCH   2   9
ENDBRANCH   1   6
BRANCH   1  24
ATOM     24  C   UNL A   1     -24.855  -1.012  30.143  0.00  0.00    +0.100 C 
BRANCH  24  25
ATOM     25  C   UNL A   1     -24.973  -2.505  29.788  0.00  0.00    -0.006 C 
ATOM     26  C   UNL A   1     -23.906  -3.173  29.146  0.00  0.00    -0.003 C 
ATOM     27  C   UNL A   1     -23.989  -4.549  28.853  0.00  0.00    -0.000 C 
ATOM     28  C   UNL A   1     -25.137  -5.280  29.205  0.00  0.00    -0.000 C 
ATOM     29  C   UNL A   1     -26.232  -4.611  29.784  0.00  0.00    -0.000 C 
ATOM     30  C   UNL A   1     -26.155  -3.232  30.065  0.00  0.00    -0.003 C 
ENDBRANCH  24  25
BRANCH  24  31
ATOM     31  C   UNL A   1     -25.387  -0.679  31.571  0.00  0.00    +0.092 C 
ATOM     32  C   UNL A   1     -25.189   0.773  32.028  0.00  0.00    +0.021 C 
ATOM     33  C   UNL A   1     -25.336   0.684  33.544  0.00  0.00    +0.020 C 
ATOM     34  C   UNL A   1     -24.829  -0.715  33.905  0.00  0.00    +0.089 C 
ATOM     35  N   UNL A   1     -24.758  -1.481  32.646  0.00  0.00    -0.218 NA
ENDBRANCH  24  31
ENDBRANCH   1  24
BRANCH   1  36
ATOM     36  C   UNL A   1     -26.728  -0.376  28.715  0.00  0.00    +0.086 C 
BRANCH  36  37
ATOM     37  C   UNL A   1     -27.530   0.660  29.351  0.00  0.00    +0.103 C 
BRANCH  37  43
ATOM     38  O   UNL A   1     -31.436   3.780  27.057  0.00  0.00    -0.217 OA
ATOM     39  O   UNL A   1     -29.683  -0.525  29.235  0.00  0.00    -0.275 OA
ATOM     40  C   UNL A   1     -31.043   2.553  26.383  0.00  0.00    +0.204 C 
ATOM     41  C   UNL A   1     -30.387   1.440  27.192  0.00  0.00    +0.131 C 
ATOM     42  O   UNL A   1     -30.476   4.128  28.050  0.00  0.00    -0.197 OA
ATOM     43  C   UNL A   1     -29.024   0.654  29.010  0.00  0.00    +0.229 C 
ATOM     44  C   UNL A   1     -30.247   3.055  29.002  0.00  0.00    +0.280 C 
ATOM     45  N   UNL A   1     -29.726   1.788  28.401  0.00  0.00    -0.249 N 
ENDBRANCH  37  43
ENDBRANCH  36  37
ENDBRANCH   1  36
TORSDOF 12
