MODEL 2191
MODEL 1
REMARK VINA RESULT:    -8.093      0.000      0.000
REMARK INTER + INTRA:         -10.455
REMARK INTER:                  -9.986
REMARK INTRA:                  -0.470
REMARK UNBOUND:                -0.470
REMARK  Name = No_2191-gen_results/8p0m/2024-11-27-11-27-31/
REMARK  4 active torsions:
REMARK  status: ('A' for Active; 'I' for Inactive)
REMARK    1  A    between atoms: C_2  and  C_5
REMARK    2  A    between atoms: C_4  and  C_6
REMARK    3  A    between atoms: C_7  and  C_8
REMARK    4  A    between atoms: C_23  and  C_26
REMARK                            x       y       z     vdW  Elec       q    Type
REMARK                         _______ _______ _______ _____ _____    ______ ____
ROOT
ATOM      1  C   UNL A   1     -24.692  -0.276  29.671  0.00  0.00    -0.010 C 
ATOM      2  C   UNL A   1     -25.115  -0.792  28.856  0.00  0.00    +0.067 C 
ATOM      3  C   UNL A   1     -24.580   1.167  29.457  0.00  0.00    +0.036 C 
ATOM      4  C   UNL A   1     -25.056   1.699  28.545  0.00  0.00    +0.059 C 
ATOM      5 CL   UNL A   1     -23.849   1.608  28.931  0.00  0.00    -0.087 Cl
ATOM      6  C   UNL A   1     -25.691  -0.512  27.429  0.00  0.00    -0.018 A 
ATOM      7  C   UNL A   1     -25.208  -0.791  26.464  0.00  0.00    -0.004 A 
ATOM      8  C   UNL A   1     -25.742  -0.373  25.179  0.00  0.00    -0.000 A 
ATOM      9  C   UNL A   1     -26.854   0.401  25.233  0.00  0.00    +0.006 A 
ATOM     10  C   UNL A   1     -26.868   0.358  27.299  0.00  0.00    -0.019 A 
ATOM     11  C   UNL A   1     -27.483   0.717  26.239  0.00  0.00    +0.076 A 
ATOM     12  C   UNL A   1     -26.356   1.500  27.845  0.00  0.00    +0.031 C 
ATOM     13  C   UNL A   1     -27.438   2.606  27.721  0.00  0.00    +0.005 C 
ENDROOT
BRANCH   2  14
ATOM     14  C   UNL A   1     -25.303  -2.329  28.982  0.00  0.00    -0.014 A 
ATOM     15  C   UNL A   1     -26.149  -2.908  29.432  0.00  0.00    -0.004 A 
ATOM     16  C   UNL A   1     -26.164  -4.405  29.595  0.00  0.00    -0.000 A 
ATOM     17  C   UNL A   1     -25.014  -5.066  29.190  0.00  0.00    -0.000 A 
ATOM     18  C   UNL A   1     -24.043  -4.380  28.650  0.00  0.00    -0.000 A 
ATOM     19  C   UNL A   1     -24.113  -3.030  28.546  0.00  0.00    -0.004 A 
ENDBRANCH   2  14
BRANCH  11  20
ATOM     20  C   UNL A   1     -29.043   0.270  26.154  0.00  0.00    +0.387 C 
ATOM     21  O   UNL A   1     -29.532   0.331  25.099  0.00  0.00    -0.241 OA
ATOM     22  O   UNL A   1     -29.584  -0.119  27.250  0.00  0.00    -0.241 OA
ENDBRANCH  11  20
BRANCH   4  23
ATOM     23  C   UNL A   1     -24.989   3.227  28.288  0.00  0.00    -0.021 C 
ATOM     24  C   UNL A   1     -24.506   3.626  27.089  0.00  0.00    +0.001 C 
BRANCH  24  25
ATOM     25  C   UNL A   1     -24.170   2.672  26.099  0.00  0.00    +0.060 C 
ATOM     26  C   UNL A   1     -22.815   2.439  25.824  0.00  0.00    +0.279 C 
ATOM     27  F   UNL A   1     -22.718   1.859  24.729  0.00  0.00    -0.172 F 
ATOM     28  F   UNL A   1     -22.881   2.781  24.858  0.00  0.00    -0.172 F 
ENDBRANCH  24  25
ENDBRANCH   4  23
TORSDOF 4
ENDMDL
ENDMDL
