REMARK  Name = outputs/IAG933/test6/raw/output_2193_IAG933_linker_design_.xyz
REMARK  9 active torsions:
REMARK  status: ('A' for Active; 'I' for Inactive)
REMARK    1  A    between atoms: C_1  and  C_2
REMARK    2  A    between atoms: C_1  and  C_8
REMARK    3  A    between atoms: C_1  and  N_42
REMARK    4  A    between atoms: C_13  and  N_39
REMARK    5  A    between atoms: C_14  and  C_15
REMARK    6  A    between atoms: C_21  and  O_22
REMARK    7  A    between atoms: O_22  and  C_23
REMARK    8  A    between atoms: C_23  and  C_24
REMARK    9  A    between atoms: O_34  and  C_38
REMARK                            x       y       z     vdW  Elec       q    Type
REMARK                         _______ _______ _______ _____ _____    ______ ____
ROOT
ATOM      1  O   UNL A   1     -21.892  -0.446  30.725  0.00  0.00    -0.247 OA
ATOM      2  C   UNL A   1     -25.294   0.191  28.140  0.00  0.00    +0.316 C 
ATOM      3  C   UNL A   1     -22.994  -0.035  28.842  0.00  0.00    +0.207 C 
ATOM      4  C   UNL A   1     -22.472   0.692  27.823  0.00  0.00    +0.099 A 
ATOM      5  O   UNL A   1     -21.177   1.714  26.428  0.00  0.00    -0.390 OA
ATOM      6  C   UNL A   1     -21.932  -0.305  29.570  0.00  0.00    +0.347 C 
ATOM      7  C   UNL A   1     -23.416   1.194  27.038  0.00  0.00    +0.136 A 
ATOM      8  O   UNL A   1     -20.573  -0.132  28.817  0.00  0.00    -0.390 OA
ATOM      9  C   UNL A   1     -22.488   1.903  26.084  0.00  0.00    +0.313 A 
ATOM     10  N   UNL A   1     -24.767   1.073  27.260  0.00  0.00    -0.213 N 
ATOM     11  C   UNL A   1     -21.105   1.014  27.682  0.00  0.00    +0.305 A 
ATOM     12  O   UNL A   1     -26.503  -0.247  28.187  0.00  0.00    -0.252 OA
ATOM     13  N   UNL A   1     -24.378  -0.231  29.015  0.00  0.00    -0.248 N 
ENDROOT
BRANCH  10  14
ATOM     14  C   UNL A   1     -25.688   1.614  26.461  0.00  0.00    +0.098 C 
ATOM     15  C   UNL A   1     -26.250   2.920  26.395  0.00  0.00    +0.091 C 
ATOM     16  C   UNL A   1     -27.438   3.091  25.645  0.00  0.00    +0.108 C 
ATOM     17  N   UNL A   1     -28.075   2.089  25.003  0.00  0.00    -0.208 NA
ATOM     18  C   UNL A   1     -27.543   0.849  25.079  0.00  0.00    +0.255 C 
ATOM     19  C   UNL A   1     -26.354   0.576  25.777  0.00  0.00    +0.207 C 
ATOM     20  F   UNL A   1     -25.860  -0.681  25.795  0.00  0.00    -0.198 F 
BRANCH  15  21
ATOM     21  C   UNL A   1     -25.642   4.093  27.123  0.00  0.00    +0.268 C 
ATOM     22  N   UNL A   1     -25.614   5.252  26.449  0.00  0.00    -0.200 NA
ATOM     23  C   UNL A   1     -25.026   6.479  26.963  0.00  0.00    +0.139 C 
ATOM     24  O   UNL A   1     -25.143   3.966  28.243  0.00  0.00    -0.268 OA
ENDBRANCH  15  21
BRANCH  18  25
ATOM     25  O   UNL A   1     -28.193  -0.208  24.477  0.00  0.00    -0.456 OA
BRANCH  25  26
ATOM     26  C   UNL A   1     -29.460   0.005  23.866  0.00  0.00    +0.243 C 
BRANCH  26  27
ATOM     27  C   UNL A   1     -30.065  -1.377  23.573  0.00  0.00    +0.229 C 
ATOM     28  O   UNL A   1     -30.729  -1.878  24.721  0.00  0.00    -0.216 OA
ENDBRANCH  26  27
ENDBRANCH  25  26
ENDBRANCH  18  25
ENDBRANCH  10  14
BRANCH   9  29
ATOM     29  O   UNL A   1     -23.064   2.507  25.050  0.00  0.00    -0.443 OA
ATOM     30  C   UNL A   1     -23.122   1.649  23.891  0.00  0.00    +0.256 C 
ENDBRANCH   9  29
BRANCH  13  31
ATOM     31  C   UNL A   1     -24.855  -1.012  30.143  0.00  0.00    +0.116 C 
BRANCH  31  32
ATOM     32  C   UNL A   1     -24.973  -2.505  29.788  0.00  0.00    -0.003 C 
ATOM     33  C   UNL A   1     -23.906  -3.173  29.146  0.00  0.00    -0.003 C 
ATOM     34  C   UNL A   1     -23.989  -4.549  28.853  0.00  0.00    -0.000 C 
ATOM     35  C   UNL A   1     -25.137  -5.280  29.205  0.00  0.00    -0.000 C 
ATOM     36  C   UNL A   1     -26.232  -4.611  29.784  0.00  0.00    -0.000 C 
ATOM     37  C   UNL A   1     -26.155  -3.232  30.065  0.00  0.00    -0.003 C 
ENDBRANCH  31  32
BRANCH  31  38
ATOM     38  C   UNL A   1     -25.387  -0.679  31.571  0.00  0.00    +0.095 C 
ATOM     39  C   UNL A   1     -25.189   0.773  32.028  0.00  0.00    +0.021 C 
ATOM     40  C   UNL A   1     -25.336   0.684  33.544  0.00  0.00    +0.020 C 
ATOM     41  C   UNL A   1     -24.829  -0.715  33.905  0.00  0.00    +0.089 C 
ATOM     42  N   UNL A   1     -24.758  -1.481  32.646  0.00  0.00    -0.217 NA
ENDBRANCH  31  38
ENDBRANCH  13  31
TORSDOF 9
