MODEL 2193
MODEL 1
REMARK VINA RESULT:    -5.279      0.000      0.000
REMARK INTER + INTRA:          -5.727
REMARK INTER:                  -5.588
REMARK INTRA:                  -0.140
REMARK UNBOUND:                -0.140
REMARK  Name = No_2193-gen_results/8p0m/2024-11-27-11-27-31/
REMARK  1 active torsions:
REMARK  status: ('A' for Active; 'I' for Inactive)
REMARK    1  A    between atoms: C_4  and  C_7
REMARK                            x       y       z     vdW  Elec       q    Type
REMARK                         _______ _______ _______ _____ _____    ______ ____
ROOT
ATOM      1  C   UNL A   1     -26.553  -3.913  29.919  0.00  0.00    -0.000 A 
ATOM      2  C   UNL A   1     -26.187  -4.869  29.669  0.00  0.00    -0.000 A 
ATOM      3  C   UNL A   1     -25.642  -2.779  29.695  0.00  0.00    -0.000 A 
ATOM      4  C   UNL A   1     -24.391  -2.973  29.041  0.00  0.00    -0.000 A 
ATOM      5  C   UNL A   1     -24.075  -4.269  28.718  0.00  0.00    -0.000 A 
ATOM      6  C   UNL A   1     -24.939  -5.276  28.970  0.00  0.00    -0.000 A 
ENDROOT
BRANCH   4   7
ATOM      7  C   UNL A   1     -23.495  -1.857  28.801  0.00  0.00    -0.005 C 
ATOM      8  C   UNL A   1     -23.004  -1.088  29.641  0.00  0.00    -0.026 C 
ATOM      9  C   UNL A   1     -21.952  -0.103  29.371  0.00  0.00    +0.031 C 
ENDBRANCH   4   7
TORSDOF 1
ENDMDL
ENDMDL
