MODEL 2194
MODEL 1
REMARK VINA RESULT:    -8.868      0.000      0.000
REMARK INTER + INTRA:         -13.891
REMARK INTER:                 -12.497
REMARK INTRA:                  -1.394
REMARK UNBOUND:                -1.394
REMARK  Name = No_2194-gen_results/8p0m/2024-11-27-11-27-31/
REMARK  7 active torsions:
REMARK  status: ('A' for Active; 'I' for Inactive)
REMARK    1  A    between atoms: C_1  and  O_19
REMARK    2  A    between atoms: C_3  and  C_7
REMARK    3  A    between atoms: C_6  and  C_13
REMARK    4  A    between atoms: C_9  and  O_16
REMARK    5  A    between atoms: O_19  and  C_20
REMARK    6  A    between atoms: C_20  and  C_21
REMARK    7  A    between atoms: C_20  and  C_29
REMARK                            x       y       z     vdW  Elec       q    Type
REMARK                         _______ _______ _______ _____ _____    ______ ____
ROOT
ATOM      1  C   UNL A   1     -23.978   0.144  27.530  0.00  0.00    +0.173 A 
ATOM      2  C   UNL A   1     -25.044   0.255  26.972  0.00  0.00    +0.174 A 
ATOM      3  C   UNL A   1     -25.312   1.224  26.006  0.00  0.00    +0.031 A 
ATOM      4  C   UNL A   1     -24.289   2.198  25.681  0.00  0.00    +0.003 A 
ATOM      5  C   UNL A   1     -23.082   2.045  26.362  0.00  0.00    +0.010 A 
ATOM      6  C   UNL A   1     -22.917   1.104  27.271  0.00  0.00    +0.116 A 
ATOM      7  F   UNL A   1     -26.093  -0.608  27.161  0.00  0.00    -0.201 F 
ENDROOT
BRANCH   3   8
ATOM      8  C   UNL A   1     -26.599   1.426  25.267  0.00  0.00    +0.005 A 
ATOM      9  C   UNL A   1     -27.096   0.501  24.495  0.00  0.00    +0.037 A 
ATOM     10  C   UNL A   1     -28.276   0.735  23.726  0.00  0.00    +0.139 A 
ATOM     11  C   UNL A   1     -28.851   1.979  23.620  0.00  0.00    +0.037 A 
ATOM     12  C   UNL A   1     -27.214   2.761  25.208  0.00  0.00    +0.000 A 
ATOM     13  C   UNL A   1     -28.350   2.984  24.396  0.00  0.00    +0.003 A 
BRANCH  10  14
ATOM     14  O   UNL A   1     -28.760  -0.313  22.978  0.00  0.00    -0.471 OA
ATOM     15  C   UNL A   1     -29.216  -1.412  23.700  0.00  0.00    +0.253 C 
ENDBRANCH  10  14
ENDBRANCH   3   8
BRANCH   6  16
ATOM     16  C   UNL A   1     -21.611   1.058  27.989  0.00  0.00    +0.391 C 
ATOM     17  O   UNL A   1     -20.864   1.873  27.802  0.00  0.00    -0.240 OA
ATOM     18  O   UNL A   1     -21.277  -0.043  28.552  0.00  0.00    -0.240 OA
ENDBRANCH   6  16
BRANCH   1  19
ATOM     19  O   UNL A   1     -23.668  -0.771  28.449  0.00  0.00    -0.463 OA
BRANCH  19  20
ATOM     20  C   UNL A   1     -24.599  -1.147  29.328  0.00  0.00    +0.264 C 
BRANCH  20  21
ATOM     21  C   UNL A   1     -24.344  -0.510  30.524  0.00  0.00    +0.270 C 
ATOM     22  O   UNL A   1     -23.330  -0.621  31.158  0.00  0.00    -0.271 OA
ATOM     23  N   UNL A   1     -25.345   0.316  31.022  0.00  0.00    -0.276 N 
ATOM     24  C   UNL A   1     -25.220   1.121  32.233  0.00  0.00    +0.093 C 
ATOM     25  C   UNL A   1     -26.553   0.521  30.277  0.00  0.00    +0.093 C 
ATOM     26  C   UNL A   1     -26.121   1.123  32.977  0.00  0.00    +0.020 C 
ATOM     27  C   UNL A   1     -27.758   0.741  31.177  0.00  0.00    +0.022 C 
ATOM     28  C   UNL A   1     -27.555   1.483  32.386  0.00  0.00    +0.004 C 
ATOM     29  C   UNL A   1     -26.170   1.017  34.424  0.00  0.00    +0.002 C 
ENDBRANCH  20  21
BRANCH  20  30
ATOM     30  C   UNL A   1     -24.768  -2.619  29.363  0.00  0.00    +0.026 A 
ATOM     31  C   UNL A   1     -23.814  -3.419  28.685  0.00  0.00    -0.000 A 
ATOM     32  C   UNL A   1     -24.084  -4.717  28.582  0.00  0.00    -0.000 A 
ATOM     33  C   UNL A   1     -25.308  -5.267  29.067  0.00  0.00    -0.000 A 
ATOM     34  C   UNL A   1     -26.252  -4.488  29.702  0.00  0.00    -0.000 A 
ATOM     35  C   UNL A   1     -25.949  -3.089  29.856  0.00  0.00    -0.000 A 
ENDBRANCH  20  30
ENDBRANCH  19  20
ENDBRANCH   1  19
TORSDOF 7
ENDMDL
ENDMDL
