REMARK  Name = outputs/IAG933/test6/raw/output_2195_IAG933_linker_design_.xyz
REMARK  9 active torsions:
REMARK  status: ('A' for Active; 'I' for Inactive)
REMARK    1  A    between atoms: C_1  and  C_2
REMARK    2  A    between atoms: C_1  and  C_8
REMARK    3  A    between atoms: C_1  and  S_39
REMARK    4  A    between atoms: C_13  and  C_40
REMARK    5  A    between atoms: C_14  and  C_15
REMARK    6  A    between atoms: C_21  and  O_22
REMARK    7  A    between atoms: O_22  and  C_23
REMARK    8  A    between atoms: C_23  and  C_24
REMARK    9  A    between atoms: S_39  and  C_42
REMARK                            x       y       z     vdW  Elec       q    Type
REMARK                         _______ _______ _______ _____ _____    ______ ____
ROOT
ATOM      1  O   UNL A   1     -20.591   0.582  28.245  0.00  0.00    -0.454 OA
ATOM      2  N   UNL A   1     -22.311  -0.559  29.140  0.00  0.00    -0.191 NA
ATOM      3  C   UNL A   1     -23.366   1.656  25.869  0.00  0.00    +0.317 C 
ATOM      4  F   UNL A   1     -23.265   0.857  24.781  0.00  0.00    -0.196 F 
ATOM      5  C   UNL A   1     -22.074   1.946  26.633  0.00  0.00    +0.282 C 
ATOM      6  C   UNL A   1     -21.062  -0.515  28.891  0.00  0.00    +0.323 C 
ATOM      7  F   UNL A   1     -21.203   1.879  25.604  0.00  0.00    -0.223 F 
ATOM      8  F   UNL A   1     -23.604   2.938  25.213  0.00  0.00    -0.196 F 
ATOM      9  C   UNL A   1     -21.766   1.018  27.758  0.00  0.00    +0.173 C 
ATOM     10  C   UNL A   1     -24.315   1.348  26.833  0.00  0.00    +0.044 C 
ATOM     11  C   UNL A   1     -22.818   0.449  28.340  0.00  0.00    +0.118 C 
ATOM     12  C   UNL A   1     -24.095   0.711  27.985  0.00  0.00    +0.121 C 
ENDROOT
BRANCH  10  13
ATOM     13  C   UNL A   1     -25.688   1.614  26.461  0.00  0.00    +0.095 C 
ATOM     14  C   UNL A   1     -26.250   2.920  26.395  0.00  0.00    +0.059 C 
ATOM     15  C   UNL A   1     -27.438   3.091  25.645  0.00  0.00    +0.102 C 
ATOM     16  N   UNL A   1     -28.075   2.089  25.003  0.00  0.00    -0.212 NA
ATOM     17  C   UNL A   1     -27.543   0.849  25.079  0.00  0.00    +0.234 C 
ATOM     18  C   UNL A   1     -26.354   0.576  25.777  0.00  0.00    +0.244 C 
ATOM     19  F   UNL A   1     -25.860  -0.681  25.795  0.00  0.00    -0.227 F 
BRANCH  14  20
ATOM     20  C   UNL A   1     -25.642   4.093  27.123  0.00  0.00    +0.263 C 
ATOM     21  N   UNL A   1     -25.614   5.252  26.449  0.00  0.00    -0.200 NA
ATOM     22  C   UNL A   1     -25.026   6.479  26.963  0.00  0.00    +0.139 C 
ATOM     23  O   UNL A   1     -25.143   3.966  28.243  0.00  0.00    -0.269 OA
ENDBRANCH  14  20
BRANCH  17  24
ATOM     24  O   UNL A   1     -28.193  -0.208  24.477  0.00  0.00    -0.459 OA
BRANCH  24  25
ATOM     25  C   UNL A   1     -29.460   0.005  23.866  0.00  0.00    +0.242 C 
BRANCH  25  26
ATOM     26  C   UNL A   1     -30.065  -1.377  23.573  0.00  0.00    +0.229 C 
ATOM     27  O   UNL A   1     -30.729  -1.878  24.721  0.00  0.00    -0.216 OA
ENDBRANCH  25  26
ENDBRANCH  24  25
ENDBRANCH  17  24
ENDBRANCH  10  13
BRANCH  12  30
ATOM     28  O   UNL A   1     -26.324  -0.705  28.151  0.00  0.00    -0.168 OA
ATOM     29  O   UNL A   1     -26.196   1.316  29.301  0.00  0.00    -0.168 OA
ATOM     30  S   UNL A   1     -25.409   0.159  28.931  0.00  0.00    +0.013 S 
BRANCH  30  31
ATOM     31  C   UNL A   1     -24.855  -1.012  30.143  0.00  0.00    +0.172 C 
BRANCH  31  32
ATOM     32  C   UNL A   1     -24.973  -2.505  29.788  0.00  0.00    +0.001 C 
ATOM     33  C   UNL A   1     -23.906  -3.173  29.146  0.00  0.00    -0.003 C 
ATOM     34  C   UNL A   1     -23.989  -4.549  28.853  0.00  0.00    -0.000 C 
ATOM     35  C   UNL A   1     -25.137  -5.280  29.205  0.00  0.00    -0.000 C 
ATOM     36  C   UNL A   1     -26.232  -4.611  29.784  0.00  0.00    -0.000 C 
ATOM     37  C   UNL A   1     -26.155  -3.232  30.065  0.00  0.00    -0.003 C 
ENDBRANCH  31  32
BRANCH  31  38
ATOM     38  C   UNL A   1     -25.387  -0.679  31.571  0.00  0.00    +0.099 C 
ATOM     39  C   UNL A   1     -25.189   0.773  32.028  0.00  0.00    +0.021 C 
ATOM     40  C   UNL A   1     -25.336   0.684  33.544  0.00  0.00    +0.020 C 
ATOM     41  C   UNL A   1     -24.829  -0.715  33.905  0.00  0.00    +0.089 C 
ATOM     42  N   UNL A   1     -24.758  -1.481  32.646  0.00  0.00    -0.217 NA
ENDBRANCH  31  38
ENDBRANCH  30  31
ENDBRANCH  12  30
TORSDOF 9
