MODEL 2195
MODEL 1
REMARK VINA RESULT:    -6.738      0.000      0.000
REMARK INTER + INTRA:         -11.177
REMARK INTER:                  -9.890
REMARK INTRA:                  -1.287
REMARK UNBOUND:                -1.287
REMARK  Name = No_2195-gen_results/8p0m/2024-11-27-11-27-31/
REMARK  8 active torsions:
REMARK  status: ('A' for Active; 'I' for Inactive)
REMARK    1  A    between atoms: C_2  and  C_13
REMARK    2  A    between atoms: C_13  and  O_14
REMARK    3  A    between atoms: O_14  and  C_16
REMARK    4  A    between atoms: C_16  and  C_17
REMARK    5  A    between atoms: C_21  and  O_23
REMARK    6  A    between atoms: O_23  and  C_24
REMARK    7  A    between atoms: C_24  and  C_25
REMARK    8  A    between atoms: C_25  and  O_26
REMARK                            x       y       z     vdW  Elec       q    Type
REMARK                         _______ _______ _______ _____ _____    ______ ____
ROOT
ATOM      1  C   UNL A   1     -29.746 -14.963  12.465  0.00  0.00    +0.342 C 
ATOM      2  O   UNL A   1     -29.904 -15.778  13.422  0.00  0.00    -0.245 OA
ENDROOT
BRANCH   1   4
ATOM      3  C   UNL A   1     -29.441 -15.863  10.313  0.00  0.00    +0.007 A 
ATOM      4  C   UNL A   1     -30.176 -15.380  10.893  0.00  0.00    +0.076 A 
ATOM      5  C   UNL A   1     -29.855 -16.106   8.926  0.00  0.00    +0.011 A 
ATOM      6  C   UNL A   1     -28.888 -16.588   7.921  0.00  0.00    +0.058 A 
ATOM      7  C   UNL A   1     -29.237 -17.248   6.843  0.00  0.00    +0.011 A 
ATOM      8  C   UNL A   1     -31.578 -15.149  10.680  0.00  0.00    +0.013 A 
ATOM      9  C   UNL A   1     -31.988 -15.392   9.451  0.00  0.00    +0.035 A 
ATOM     10  C   UNL A   1     -31.116 -15.847   8.488  0.00  0.00    +0.007 A 
ATOM     11  C   UNL A   1     -30.605 -17.121   6.367  0.00  0.00    +0.001 A 
ATOM     12  C   UNL A   1     -31.500 -16.401   7.216  0.00  0.00    +0.001 A 
ATOM     13 CL   UNL A   1     -27.215 -16.772   8.333  0.00  0.00    -0.082 Cl
ATOM     14 BR   UNL A   1     -33.825 -15.132   8.980  0.00  0.00    -0.049 Br
ENDBRANCH   1   4
BRANCH   1  15
ATOM     15  O   UNL A   1     -29.423 -13.847  12.579  0.00  0.00    -0.440 OA
BRANCH  15  16
ATOM     16  C   UNL A   1     -30.247 -12.839  12.807  0.00  0.00    +0.235 C 
BRANCH  16  17
ATOM     17  C   UNL A   1     -30.206 -11.776  11.797  0.00  0.00    +0.024 A 
ATOM     18  C   UNL A   1     -31.431 -11.174  11.552  0.00  0.00    -0.001 A 
ATOM     19  C   UNL A   1     -31.466 -10.067  10.631  0.00  0.00    +0.003 A 
ATOM     20  C   UNL A   1     -30.285  -9.767   9.877  0.00  0.00    +0.037 A 
ATOM     21  C   UNL A   1     -29.096 -10.511  10.090  0.00  0.00    +0.141 A 
ATOM     22  C   UNL A   1     -29.122 -11.564  11.016  0.00  0.00    +0.036 A 
BRANCH  21  23
ATOM     23  O   UNL A   1     -28.024 -10.201   9.366  0.00  0.00    -0.447 OA
BRANCH  23  24
ATOM     24  C   UNL A   1     -27.706  -9.019   9.070  0.00  0.00    +0.357 C 
ATOM     25  F   UNL A   1     -26.914  -8.625   9.899  0.00  0.00    -0.186 F 
BRANCH  24  26
ATOM     26  C   UNL A   1     -27.421  -8.815   7.756  0.00  0.00    +0.224 C 
BRANCH  26  27
ATOM     27  O   UNL A   1     -27.377  -7.581   7.517  0.00  0.00    -0.344 OA
ATOM     28  C   UNL A   1     -28.020  -7.120   6.369  0.00  0.00    +0.174 C 
ENDBRANCH  26  27
ENDBRANCH  24  26
ENDBRANCH  23  24
ENDBRANCH  21  23
ENDBRANCH  16  17
ENDBRANCH  15  16
ENDBRANCH   1  15
TORSDOF 8
ENDMDL
ENDMDL
