MODEL 2196
MODEL 1
REMARK VINA RESULT:    -6.759      0.000      0.000
REMARK INTER + INTRA:          -7.225
REMARK INTER:                  -7.154
REMARK INTRA:                  -0.071
REMARK UNBOUND:                -0.071
REMARK  Name = No_2196-gen_results/8p0m/2024-11-27-11-27-31/
REMARK  1 active torsions:
REMARK  status: ('A' for Active; 'I' for Inactive)
REMARK    1  A    between atoms: C_5  and  C_7
REMARK                            x       y       z     vdW  Elec       q    Type
REMARK                         _______ _______ _______ _____ _____    ______ ____
ROOT
ATOM      1  C   UNL A   1     -29.726 -11.281  27.846  0.00  0.00    -0.004 A 
ATOM      2  C   UNL A   1     -29.778 -11.191  29.051  0.00  0.00    -0.015 A 
ATOM      3  C   UNL A   1     -30.435 -10.192  29.748  0.00  0.00    +0.035 A 
ATOM      4  C   UNL A   1     -31.127  -9.211  28.978  0.00  0.00    +0.007 A 
ATOM      5  C   UNL A   1     -31.175  -9.426  27.648  0.00  0.00    +0.057 A 
ATOM      6  C   UNL A   1     -30.576 -10.477  27.083  0.00  0.00    +0.004 A 
ATOM      7  C   UNL A   1     -28.924 -12.151  29.997  0.00  0.00    +0.053 C 
ATOM      8  C   UNL A   1     -28.343 -11.737  31.099  0.00  0.00    -0.015 A 
ATOM      9  C   UNL A   1     -27.664 -12.606  32.016  0.00  0.00    -0.004 A 
ATOM     10  C   UNL A   1     -27.144 -12.112  33.242  0.00  0.00    -0.000 A 
ATOM     11  C   UNL A   1     -27.793 -11.069  33.899  0.00  0.00    +0.000 A 
ATOM     12  C   UNL A   1     -28.768 -10.299  33.197  0.00  0.00    +0.003 A 
ATOM     13  C   UNL A   1     -29.089 -10.608  31.835  0.00  0.00    +0.035 A 
ATOM     14  C   UNL A   1     -30.042  -9.831  31.055  0.00  0.00    +0.195 C 
ATOM     15  O   UNL A   1     -30.544  -8.795  31.680  0.00  0.00    -0.287 OA
ENDROOT
BRANCH   5  16
ATOM     16  C   UNL A   1     -31.939  -8.425  26.880  0.00  0.00    +0.284 C 
ATOM     17  N   UNL A   1     -31.419  -7.387  26.426  0.00  0.00    -0.084 NA
ATOM     18  O   UNL A   1     -33.115  -8.731  26.461  0.00  0.00    -0.267 OA
ENDBRANCH   5  16
TORSDOF 1
ENDMDL
ENDMDL
