REMARK  Name = outputs/IAG933/test6/raw/output_2196_IAG933_linker_design_.xyz
REMARK  15 active torsions:
REMARK  status: ('A' for Active; 'I' for Inactive)
REMARK    1  A    between atoms: C_1  and  C_2
REMARK    2  A    between atoms: C_1  and  C_8
REMARK    3  A    between atoms: C_1  and  C_47
REMARK    4  A    between atoms: C_13  and  C_40
REMARK    5  A    between atoms: C_14  and  C_15
REMARK    6  A    between atoms: C_21  and  O_22
REMARK    7  A    between atoms: O_22  and  C_23
REMARK    8  A    between atoms: C_23  and  C_24
REMARK    9  A    between atoms: N_32  and  C_42
REMARK   10  A    between atoms: N_32  and  C_46
REMARK   11  A    between atoms: C_37  and  C_45
REMARK   12  A    between atoms: C_37  and  C_47
REMARK   13  A    between atoms: C_38  and  C_44
REMARK   14  A    between atoms: C_41  and  C_42
REMARK   15  A    between atoms: C_45  and  N_48
REMARK                            x       y       z     vdW  Elec       q    Type
REMARK                         _______ _______ _______ _____ _____    ______ ____
ROOT
ATOM      1  C   UNL A   1     -23.199   0.506  29.003  0.00  0.00    +0.000 C 
ATOM      2  C   UNL A   1     -24.825   1.084  27.515  0.00  0.00    +0.008 C 
ATOM      3  C   UNL A   1     -23.385   1.559  27.776  0.00  0.00    +0.000 C 
ATOM      4  C   UNL A   1     -24.812   0.190  29.020  0.00  0.00    +0.007 C 
ENDROOT
BRANCH   2   5
ATOM      5  C   UNL A   1     -25.688   1.614  26.461  0.00  0.00    +0.070 C 
ATOM      6  C   UNL A   1     -26.250   2.920  26.395  0.00  0.00    +0.055 C 
ATOM      7  C   UNL A   1     -27.438   3.091  25.645  0.00  0.00    +0.102 C 
ATOM      8  N   UNL A   1     -28.075   2.089  25.003  0.00  0.00    -0.212 NA
ATOM      9  C   UNL A   1     -27.543   0.849  25.079  0.00  0.00    +0.234 C 
ATOM     10  C   UNL A   1     -26.354   0.576  25.777  0.00  0.00    +0.240 C 
ATOM     11  F   UNL A   1     -25.860  -0.681  25.795  0.00  0.00    -0.227 F 
BRANCH   6  12
ATOM     12  C   UNL A   1     -25.642   4.093  27.123  0.00  0.00    +0.262 C 
ATOM     13  N   UNL A   1     -25.614   5.252  26.449  0.00  0.00    -0.200 NA
ATOM     14  C   UNL A   1     -25.026   6.479  26.963  0.00  0.00    +0.139 C 
ATOM     15  O   UNL A   1     -25.143   3.966  28.243  0.00  0.00    -0.269 OA
ENDBRANCH   6  12
BRANCH   9  16
ATOM     16  O   UNL A   1     -28.193  -0.208  24.477  0.00  0.00    -0.459 OA
BRANCH  16  17
ATOM     17  C   UNL A   1     -29.460   0.005  23.866  0.00  0.00    +0.242 C 
BRANCH  17  18
ATOM     18  C   UNL A   1     -30.065  -1.377  23.573  0.00  0.00    +0.229 C 
ATOM     19  O   UNL A   1     -30.729  -1.878  24.721  0.00  0.00    -0.216 OA
ENDBRANCH  17  18
ENDBRANCH  16  17
ENDBRANCH   9  16
ENDBRANCH   2   5
BRANCH   3  22
ATOM     20  C   UNL A   1     -21.212   1.964  27.315  0.00  0.00    +0.000 C 
ATOM     21  C   UNL A   1     -22.671   1.982  25.257  0.00  0.00    +0.000 C 
ATOM     22  C   UNL A   1     -22.359   1.377  26.606  0.00  0.00    +0.000 C 
ENDBRANCH   3  22
BRANCH   4  23
ATOM     23  C   UNL A   1     -24.855  -1.012  30.143  0.00  0.00    +0.038 C 
BRANCH  23  24
ATOM     24  C   UNL A   1     -24.973  -2.505  29.788  0.00  0.00    -0.021 C 
ATOM     25  C   UNL A   1     -23.906  -3.173  29.146  0.00  0.00    -0.004 C 
ATOM     26  C   UNL A   1     -23.989  -4.549  28.853  0.00  0.00    -0.000 C 
ATOM     27  C   UNL A   1     -25.137  -5.280  29.205  0.00  0.00    -0.000 C 
ATOM     28  C   UNL A   1     -26.232  -4.611  29.784  0.00  0.00    -0.000 C 
ATOM     29  C   UNL A   1     -26.155  -3.232  30.065  0.00  0.00    -0.004 C 
ENDBRANCH  23  24
BRANCH  23  30
ATOM     30  C   UNL A   1     -25.387  -0.679  31.571  0.00  0.00    +0.077 C 
ATOM     31  C   UNL A   1     -25.189   0.773  32.028  0.00  0.00    +0.019 C 
ATOM     32  C   UNL A   1     -25.336   0.684  33.544  0.00  0.00    +0.020 C 
ATOM     33  C   UNL A   1     -24.829  -0.715  33.905  0.00  0.00    +0.089 C 
ATOM     34  N   UNL A   1     -24.758  -1.481  32.646  0.00  0.00    -0.219 NA
ENDBRANCH  23  30
ENDBRANCH   4  23
BRANCH   4  35
ATOM     35  C   UNL A   1     -26.390  -0.258  28.528  0.00  0.00    +0.022 C 
BRANCH  35  36
ATOM     36  C   UNL A   1     -27.599  -0.528  28.316  0.00  0.00    +0.098 C 
BRANCH  36  40
ATOM     37  O   UNL A   1     -28.945  -0.610  30.413  0.00  0.00    -0.420 OA
ATOM     38  O   UNL A   1     -30.029   0.459  27.270  0.00  0.00    -0.540 OA
ATOM     39  C   UNL A   1     -29.857   0.702  28.442  0.00  0.00    +0.085 C 
ATOM     40  N   UNL A   1     -28.841  -0.096  29.068  0.00  0.00    -0.283 N 
BRANCH  39  41
ATOM     41  C   UNL A   1     -30.416   1.785  29.187  0.00  0.00    +0.138 C 
BRANCH  41  42
ATOM     42  N   UNL A   1     -29.380   2.732  29.017  0.00  0.00    -0.212 NA
BRANCH  42  48
ATOM     43  O   UNL A   1     -30.576   5.265  28.920  0.00  0.00    -0.354 OA
ATOM     44  C   UNL A   1     -28.280   4.712  29.408  0.00  0.00    +0.050 C 
ATOM     45  C   UNL A   1     -30.075   3.905  30.952  0.00  0.00    +0.050 C 
ATOM     46  C   UNL A   1     -29.273   5.150  28.355  0.00  0.00    +0.144 C 
ATOM     47  C   UNL A   1     -31.101   4.463  29.997  0.00  0.00    +0.144 C 
ATOM     48  C   UNL A   1     -28.885   3.483  30.028  0.00  0.00    +0.078 C 
ENDBRANCH  42  48
ENDBRANCH  41  42
ENDBRANCH  39  41
ENDBRANCH  36  40
ENDBRANCH  35  36
ENDBRANCH   4  35
TORSDOF 15
