MODEL 2198
MODEL 1
REMARK VINA RESULT:    -6.630      0.000      0.000
REMARK INTER + INTRA:          -7.917
REMARK INTER:                  -7.405
REMARK INTRA:                  -0.512
REMARK UNBOUND:                -0.512
REMARK  Name = No_2198-gen_results/8p0m/2024-11-27-11-27-31/
REMARK  2 active torsions:
REMARK  status: ('A' for Active; 'I' for Inactive)
REMARK    1  A    between atoms: C_1  and  C_3
REMARK    2  A    between atoms: C_3  and  C_4
REMARK                            x       y       z     vdW  Elec       q    Type
REMARK                         _______ _______ _______ _____ _____    ______ ____
ROOT
ATOM      1  C   UNL A   1     -24.625  -1.039  29.073  0.00  0.00    +0.196 C 
ATOM      2  O   UNL A   1     -24.390  -0.615  30.226  0.00  0.00    -0.287 OA
ENDROOT
BRANCH   1   3
ATOM      3  C   UNL A   1     -24.401  -0.304  27.861  0.00  0.00    +0.039 A 
ATOM      4  C   UNL A   1     -23.772   0.538  27.937  0.00  0.00    +0.003 A 
ATOM      5  C   UNL A   1     -23.533   1.514  26.726  0.00  0.00    +0.000 A 
ATOM      6  C   UNL A   1     -24.204   1.132  25.568  0.00  0.00    +0.000 A 
ATOM      7  C   UNL A   1     -25.236   0.250  25.609  0.00  0.00    +0.000 A 
ATOM      8  C   UNL A   1     -25.481  -0.395  26.816  0.00  0.00    +0.003 A 
ENDBRANCH   1   3
BRANCH   1   9
ATOM      9  C   UNL A   1     -24.854  -2.498  29.045  0.00  0.00    +0.039 A 
ATOM     10  C   UNL A   1     -23.921  -3.374  28.621  0.00  0.00    +0.003 A 
ATOM     11  C   UNL A   1     -26.035  -3.105  29.599  0.00  0.00    +0.003 A 
ATOM     12  C   UNL A   1     -26.088  -4.522  29.639  0.00  0.00    +0.000 A 
ATOM     13  C   UNL A   1     -24.037  -4.775  28.531  0.00  0.00    +0.000 A 
ATOM     14  C   UNL A   1     -25.178  -5.292  29.124  0.00  0.00    +0.000 A 
ENDBRANCH   1   9
TORSDOF 2
ENDMDL
ENDMDL
