REMARK  Name = No_2198-gen_results/8p0m/2024-11-27-11-27-31/
REMARK  2 active torsions:
REMARK  status: ('A' for Active; 'I' for Inactive)
REMARK    1  A    between atoms: C_1  and  C_3
REMARK    2  A    between atoms: C_3  and  C_4
REMARK                            x       y       z     vdW  Elec       q    Type
REMARK                         _______ _______ _______ _____ _____    ______ ____
ROOT
ATOM      1  C   UNL A   1     -28.196   0.348  28.055  0.00  0.00    +0.196 C 
ATOM      2  O   UNL A   1     -29.143   1.159  28.152  0.00  0.00    -0.287 OA
ENDROOT
BRANCH   1   3
ATOM      3  C   UNL A   1     -28.016  -0.814  28.878  0.00  0.00    +0.039 A 
ATOM      4  C   UNL A   1     -28.469  -0.785  29.829  0.00  0.00    +0.003 A 
ATOM      5  C   UNL A   1     -28.256  -1.927  30.890  0.00  0.00    +0.000 A 
ATOM      6  C   UNL A   1     -27.449  -2.964  30.432  0.00  0.00    +0.000 A 
ATOM      7  C   UNL A   1     -26.641  -2.804  29.351  0.00  0.00    +0.000 A 
ATOM      8  C   UNL A   1     -26.783  -1.636  28.612  0.00  0.00    +0.003 A 
ENDBRANCH   1   3
BRANCH   1   9
ATOM      9  C   UNL A   1     -27.442   0.510  26.795  0.00  0.00    +0.039 A 
ATOM     10  C   UNL A   1     -27.843   1.333  25.806  0.00  0.00    +0.003 A 
ATOM     11  C   UNL A   1     -26.151  -0.090  26.586  0.00  0.00    +0.003 A 
ATOM     12  C   UNL A   1     -25.458   0.242  25.393  0.00  0.00    +0.000 A 
ATOM     13  C   UNL A   1     -27.219   1.548  24.561  0.00  0.00    +0.000 A 
ATOM     14  C   UNL A   1     -25.961   0.977  24.448  0.00  0.00    +0.000 A 
ENDBRANCH   1   9
TORSDOF 2
