MODEL 2199
MODEL 1
REMARK VINA RESULT:    -4.171      0.000      0.000
REMARK INTER + INTRA:          -4.171
REMARK INTER:                  -4.171
REMARK INTRA:                   0.000
REMARK UNBOUND:                 0.000
REMARK  Name = No_2199-gen_results/8p0m/2024-11-27-11-27-31/
REMARK  0 active torsions:
REMARK  status: ('A' for Active; 'I' for Inactive)
REMARK                            x       y       z     vdW  Elec       q    Type
REMARK                         _______ _______ _______ _____ _____    ______ ____
ROOT
ATOM      1  C   UNL A   1     -25.326  -5.257  29.281  0.00  0.00    +0.000 A 
ATOM      2  C   UNL A   1     -26.240  -4.570  29.674  0.00  0.00    +0.000 A 
ATOM      3  C   UNL A   1     -26.158  -3.199  29.821  0.00  0.00    +0.000 A 
ATOM      4  C   UNL A   1     -24.941  -2.561  29.451  0.00  0.00    +0.000 A 
ATOM      5  C   UNL A   1     -24.012  -3.348  28.858  0.00  0.00    +0.000 A 
ATOM      6  C   UNL A   1     -24.194  -4.647  28.722  0.00  0.00    +0.000 A 
ENDROOT
TORSDOF 0
ENDMDL
ENDMDL
