MODEL 219
MODEL 1
REMARK VINA RESULT:    -7.385      0.000      0.000
REMARK INTER + INTRA:         -11.066
REMARK INTER:                  -9.112
REMARK INTRA:                  -1.953
REMARK UNBOUND:                -1.953
REMARK  Name = No_219-gen_results/8p0m/2024-11-27-11-27-31/
REMARK  4 active torsions:
REMARK  status: ('A' for Active; 'I' for Inactive)
REMARK    1  A    between atoms: C_2  and  C_14
REMARK    2  A    between atoms: C_3  and  C_4
REMARK    3  A    between atoms: C_4  and  C_8
REMARK    4  A    between atoms: C_12  and  C_18
REMARK                            x       y       z     vdW  Elec       q    Type
REMARK                         _______ _______ _______ _____ _____    ______ ____
ROOT
ATOM      1  C   UNL A   1     -24.692  -2.687  29.366  0.00  0.00    +0.010 A 
ATOM      2  C   UNL A   1     -24.542  -4.001  28.954  0.00  0.00    +0.137 A 
ATOM      3  C   UNL A   1     -25.698  -4.895  29.201  0.00  0.00    +0.029 A 
ATOM      4  C   UNL A   1     -26.791  -4.456  29.868  0.00  0.00    +0.002 A 
ATOM      5  C   UNL A   1     -25.766  -2.293  30.126  0.00  0.00    -0.002 A 
ATOM      6  C   UNL A   1     -26.788  -3.152  30.381  0.00  0.00    -0.000 A 
ATOM      7  F   UNL A   1     -23.592  -4.548  28.253  0.00  0.00    -0.204 F 
ENDROOT
BRANCH   5   8
ATOM      8  C   UNL A   1     -25.808  -0.990  30.785  0.00  0.00    -0.000 A 
ATOM      9  C   UNL A   1     -26.588  -0.008  30.104  0.00  0.00    -0.000 A 
ATOM     10  C   UNL A   1     -26.605   1.320  30.654  0.00  0.00    -0.000 A 
ATOM     11  C   UNL A   1     -25.846   1.598  31.768  0.00  0.00    -0.000 A 
ATOM     12  C   UNL A   1     -25.122   0.602  32.418  0.00  0.00    -0.000 A 
ATOM     13  C   UNL A   1     -25.109  -0.700  31.880  0.00  0.00    -0.000 A 
ENDBRANCH   5   8
BRANCH   1  14
ATOM     14  C   UNL A   1     -23.453  -1.942  29.234  0.00  0.00    +0.055 C 
BRANCH  14  17
ATOM     15  C   UNL A   1     -24.432  -0.417  27.320  0.00  0.00    +0.003 A 
ATOM     16  C   UNL A   1     -24.282   0.516  26.854  0.00  0.00    +0.080 A 
ATOM     17  C   UNL A   1     -23.549  -0.696  28.516  0.00  0.00    -0.018 A 
ATOM     18  C   UNL A   1     -23.528   1.707  27.266  0.00  0.00    +0.007 A 
ATOM     19  C   UNL A   1     -22.718   1.540  28.368  0.00  0.00    -0.000 A 
ATOM     20  C   UNL A   1     -22.717   0.352  29.053  0.00  0.00    -0.004 A 
BRANCH  16  21
ATOM     21  C   UNL A   1     -25.176   0.824  25.578  0.00  0.00    +0.388 C 
ATOM     22  O   UNL A   1     -25.608   1.849  25.588  0.00  0.00    -0.241 OA
ATOM     23  O   UNL A   1     -25.070   0.051  24.499  0.00  0.00    -0.241 OA
ENDBRANCH  16  21
ENDBRANCH  14  17
ENDBRANCH   1  14
TORSDOF 4
ENDMDL
ENDMDL
