REMARK  Name = outputs/IAG933/test6/raw/output_22_IAG933_linker_design_.xyz
REMARK  10 active torsions:
REMARK  status: ('A' for Active; 'I' for Inactive)
REMARK    1  A    between atoms: C_1  and  C_2
REMARK    2  A    between atoms: C_1  and  C_8
REMARK    3  A    between atoms: C_1  and  C_43
REMARK    4  A    between atoms: C_13  and  N_35
REMARK    5  A    between atoms: C_14  and  C_15
REMARK    6  A    between atoms: C_21  and  O_22
REMARK    7  A    between atoms: O_22  and  C_23
REMARK    8  A    between atoms: C_23  and  C_24
REMARK    9  A    between atoms: C_34  and  C_43
REMARK   10  A    between atoms: C_40  and  C_41
REMARK                            x       y       z     vdW  Elec       q    Type
REMARK                         _______ _______ _______ _____ _____    ______ ____
ROOT
ATOM      1  F   UNL A   1     -20.044   1.633  27.650  0.00  0.00    -0.183 F 
ATOM      2  C   UNL A   1     -21.250   1.729  26.948  0.00  0.00    +0.357 C 
ATOM      3  C   UNL A   1     -22.866   2.099  25.760  0.00  0.00    +0.299 C 
ATOM      4  O   UNL A   1     -23.552   0.861  29.316  0.00  0.00    -0.460 OA
ATOM      5  C   UNL A   1     -23.542   1.546  26.783  0.00  0.00    +0.123 C 
ATOM      6  C   UNL A   1     -24.741   1.022  28.517  0.00  0.00    +0.279 C 
ATOM      7  N   UNL A   1     -24.638   1.370  27.243  0.00  0.00    -0.245 N 
ATOM      8  F   UNL A   1     -23.630   2.479  24.647  0.00  0.00    -0.162 F 
ATOM      9  O   UNL A   1     -21.530   2.246  25.782  0.00  0.00    -0.421 OA
ATOM     10  C   UNL A   1     -22.414   1.263  27.493  0.00  0.00    +0.102 C 
ATOM     11  C   UNL A   1     -22.433   0.529  28.650  0.00  0.00    +0.139 C 
ENDROOT
BRANCH   7  12
ATOM     12  C   UNL A   1     -25.688   1.614  26.461  0.00  0.00    +0.093 C 
ATOM     13  C   UNL A   1     -26.250   2.920  26.395  0.00  0.00    +0.090 C 
ATOM     14  C   UNL A   1     -27.438   3.091  25.645  0.00  0.00    +0.108 C 
ATOM     15  N   UNL A   1     -28.075   2.089  25.003  0.00  0.00    -0.208 NA
ATOM     16  C   UNL A   1     -27.543   0.849  25.079  0.00  0.00    +0.255 C 
ATOM     17  C   UNL A   1     -26.354   0.576  25.777  0.00  0.00    +0.207 C 
ATOM     18  F   UNL A   1     -25.860  -0.681  25.795  0.00  0.00    -0.198 F 
BRANCH  13  19
ATOM     19  C   UNL A   1     -25.642   4.093  27.123  0.00  0.00    +0.268 C 
ATOM     20  N   UNL A   1     -25.614   5.252  26.449  0.00  0.00    -0.200 NA
ATOM     21  C   UNL A   1     -25.026   6.479  26.963  0.00  0.00    +0.139 C 
ATOM     22  O   UNL A   1     -25.143   3.966  28.243  0.00  0.00    -0.268 OA
ENDBRANCH  13  19
BRANCH  16  23
ATOM     23  O   UNL A   1     -28.193  -0.208  24.477  0.00  0.00    -0.456 OA
BRANCH  23  24
ATOM     24  C   UNL A   1     -29.460   0.005  23.866  0.00  0.00    +0.243 C 
BRANCH  24  25
ATOM     25  C   UNL A   1     -30.065  -1.377  23.573  0.00  0.00    +0.229 C 
ATOM     26  O   UNL A   1     -30.729  -1.878  24.721  0.00  0.00    -0.216 OA
ENDBRANCH  24  25
ENDBRANCH  23  24
ENDBRANCH  16  23
ENDBRANCH   7  12
BRANCH  11  28
ATOM     27  N   UNL A   1     -21.912  -0.894  30.310  0.00  0.00    -0.125 NA
ATOM     28  C   UNL A   1     -21.367  -0.355  29.136  0.00  0.00    +0.148 C 
ATOM     29  C   UNL A   1     -20.183  -0.118  28.412  0.00  0.00    +0.029 C 
ENDBRANCH  11  28
BRANCH   6  31
ATOM     30  O   UNL A   1     -26.588  -0.607  28.363  0.00  0.00    -0.217 OA
ATOM     31  C   UNL A   1     -25.642  -0.038  29.232  0.00  0.00    +0.217 C 
BRANCH  31  32
ATOM     32  C   UNL A   1     -24.855  -1.012  30.143  0.00  0.00    +0.074 C 
BRANCH  32  33
ATOM     33  C   UNL A   1     -24.973  -2.505  29.788  0.00  0.00    -0.018 C 
ATOM     34  C   UNL A   1     -23.906  -3.173  29.146  0.00  0.00    -0.004 C 
ATOM     35  C   UNL A   1     -23.989  -4.549  28.853  0.00  0.00    -0.000 C 
ATOM     36  C   UNL A   1     -25.137  -5.280  29.205  0.00  0.00    -0.000 C 
ATOM     37  C   UNL A   1     -26.232  -4.611  29.784  0.00  0.00    -0.000 C 
ATOM     38  C   UNL A   1     -26.155  -3.232  30.065  0.00  0.00    -0.004 C 
ENDBRANCH  32  33
BRANCH  32  39
ATOM     39  C   UNL A   1     -25.387  -0.679  31.571  0.00  0.00    +0.080 C 
ATOM     40  C   UNL A   1     -25.189   0.773  32.028  0.00  0.00    +0.019 C 
ATOM     41  C   UNL A   1     -25.336   0.684  33.544  0.00  0.00    +0.020 C 
ATOM     42  C   UNL A   1     -24.829  -0.715  33.905  0.00  0.00    +0.089 C 
ATOM     43  N   UNL A   1     -24.758  -1.481  32.646  0.00  0.00    -0.219 NA
ENDBRANCH  32  39
ENDBRANCH  31  32
ENDBRANCH   6  31
TORSDOF 10
