MODEL 2201
MODEL 1
REMARK VINA RESULT:    -6.729      0.000      0.000
REMARK INTER + INTRA:          -7.958
REMARK INTER:                  -7.516
REMARK INTRA:                  -0.441
REMARK UNBOUND:                -0.441
REMARK  Name = No_2201-gen_results/8p0m/2024-11-27-11-27-31/
REMARK  2 active torsions:
REMARK  status: ('A' for Active; 'I' for Inactive)
REMARK    1  A    between atoms: C_3  and  C_4
REMARK    2  A    between atoms: C_4  and  C_8
REMARK                            x       y       z     vdW  Elec       q    Type
REMARK                         _______ _______ _______ _____ _____    ______ ____
ROOT
ATOM      1  C   UNL A   1     -24.353  -1.256  29.093  0.00  0.00    +0.053 C 
ENDROOT
BRANCH   1   4
ATOM      2  C   UNL A   1     -23.830  -3.741  28.561  0.00  0.00    -0.004 A 
ATOM      3  C   UNL A   1     -24.214  -4.714  28.689  0.00  0.00    -0.000 A 
ATOM      4  C   UNL A   1     -24.715  -2.690  29.064  0.00  0.00    -0.018 A 
ATOM      5  C   UNL A   1     -25.434  -5.272  29.257  0.00  0.00    -0.000 A 
ATOM      6  C   UNL A   1     -26.301  -4.310  29.732  0.00  0.00    -0.000 A 
ATOM      7  C   UNL A   1     -25.944  -3.014  29.696  0.00  0.00    -0.004 A 
ENDBRANCH   1   4
BRANCH   1   8
ATOM      8  C   UNL A   1     -23.558  -0.613  28.543  0.00  0.00    -0.018 A 
ATOM      9  C   UNL A   1     -22.234  -0.551  29.193  0.00  0.00    -0.004 A 
ATOM     10  C   UNL A   1     -21.332   0.374  28.457  0.00  0.00    -0.000 A 
ATOM     11  C   UNL A   1     -21.771   1.343  27.615  0.00  0.00    -0.000 A 
ATOM     12  C   UNL A   1     -23.079   1.344  27.214  0.00  0.00    -0.000 A 
ATOM     13  C   UNL A   1     -23.957   0.419  27.669  0.00  0.00    -0.004 A 
ENDBRANCH   1   8
TORSDOF 2
ENDMDL
ENDMDL
