MODEL 2202
MODEL 1
REMARK VINA RESULT:    -6.260      0.000      0.000
REMARK INTER + INTRA:          -7.380
REMARK INTER:                  -6.992
REMARK INTRA:                  -0.388
REMARK UNBOUND:                -0.388
REMARK  Name = No_2202-gen_results/8p0m/2024-11-27-11-27-31/
REMARK  2 active torsions:
REMARK  status: ('A' for Active; 'I' for Inactive)
REMARK    1  A    between atoms: C_2  and  C_5
REMARK    2  A    between atoms: C_5  and  N_8
REMARK                            x       y       z     vdW  Elec       q    Type
REMARK                         _______ _______ _______ _____ _____    ______ ____
ROOT
ATOM      1  C   UNL A   1     -24.407  -1.270  29.545  0.00  0.00    +0.101 C 
ENDROOT
BRANCH   1   2
ATOM      2  N   UNL A   1     -23.687  -0.491  28.897  0.00  0.00    -0.243 NA
ATOM      3  C   UNL A   1     -24.158   0.287  27.963  0.00  0.00    +0.215 C 
ATOM      4  C   UNL A   1     -22.447  -0.116  29.398  0.00  0.00    +0.076 C 
ATOM      5  C   UNL A   1     -21.602   0.485  28.501  0.00  0.00    +0.036 C 
ATOM      6  N   UNL A   1     -23.335   0.997  27.133  0.00  0.00    -0.189 NA
ATOM      7  C   UNL A   1     -22.158   1.372  27.554  0.00  0.00    +0.093 C 
ATOM      8 CL   UNL A   1     -25.788   0.055  27.343  0.00  0.00    -0.077 Cl
ENDBRANCH   1   2
BRANCH   1  10
ATOM      9  C   UNL A   1     -23.790  -3.354  28.803  0.00  0.00    -0.003 A 
ATOM     10  C   UNL A   1     -24.583  -2.824  29.252  0.00  0.00    -0.006 A 
ATOM     11  C   UNL A   1     -24.098  -4.768  28.555  0.00  0.00    -0.000 A 
ATOM     12  C   UNL A   1     -25.200  -5.354  29.025  0.00  0.00    -0.000 A 
ATOM     13  C   UNL A   1     -26.115  -4.561  29.647  0.00  0.00    -0.000 A 
ATOM     14  C   UNL A   1     -25.824  -3.249  29.786  0.00  0.00    -0.003 A 
ENDBRANCH   1  10
TORSDOF 2
ENDMDL
ENDMDL
