REMARK  Name = outputs/IAG933/test6/raw/output_2202_IAG933_linker_design_.xyz
REMARK  4 active torsions:
REMARK  status: ('A' for Active; 'I' for Inactive)
REMARK    1  A    between atoms: C_1  and  C_2
REMARK    2  A    between atoms: C_1  and  C_8
REMARK    3  A    between atoms: C_1  and  N_37
REMARK    4  A    between atoms: C_14  and  C_15
REMARK                            x       y       z     vdW  Elec       q    Type
REMARK                         _______ _______ _______ _____ _____    ______ ____
ROOT
ATOM      1  C   UNL A   1     -25.688   1.614  26.461  0.00  0.00    +0.040 C 
ATOM      2  C   UNL A   1     -26.250   2.920  26.395  0.00  0.00    +0.077 C 
ATOM      3  C   UNL A   1     -27.438   3.091  25.645  0.00  0.00    +0.107 C 
ATOM      4  N   UNL A   1     -28.075   2.089  25.003  0.00  0.00    -0.208 NA
ATOM      5  C   UNL A   1     -27.543   0.849  25.079  0.00  0.00    +0.253 C 
ATOM      6  O   UNL A   1     -28.193  -0.208  24.477  0.00  0.00    -0.456 OA
ATOM      7  C   UNL A   1     -29.460   0.005  23.866  0.00  0.00    +0.239 C 
ATOM      8  C   UNL A   1     -30.065  -1.377  23.573  0.00  0.00    +0.189 C 
ATOM      9  O   UNL A   1     -30.729  -1.878  24.721  0.00  0.00    -0.348 OA
ATOM     10  C   UNL A   1     -26.354   0.576  25.777  0.00  0.00    +0.193 C 
ATOM     11  F   UNL A   1     -25.860  -0.681  25.795  0.00  0.00    -0.199 F 
ATOM     12  C   UNL A   1     -24.369   0.553  28.282  0.00  0.00    +0.049 C 
ATOM     13 CL   UNL A   1     -23.179   1.549  24.431  0.00  0.00    -0.080 Cl
ATOM     14  C   UNL A   1     -22.016   1.351  26.841  0.00  0.00    +0.151 C 
ATOM     15  O   UNL A   1     -31.405  -4.250  28.766  0.00  0.00    -0.252 OA
ATOM     16  C   UNL A   1     -32.016  -2.084  25.006  0.00  0.00    +0.160 C 
ATOM     17  C   UNL A   1     -24.443   1.212  26.939  0.00  0.00    +0.029 C 
ATOM     18  C   UNL A   1     -23.027   0.453  28.881  0.00  0.00    +0.017 C 
ATOM     19  C   UNL A   1     -29.317   1.255  29.559  0.00  0.00    +0.184 C 
ATOM     20  O   UNL A   1     -32.806  -3.068  30.017  0.00  0.00    -0.252 OA
ATOM     21  N   UNL A   1     -25.457  -0.125  29.093  0.00  0.00    -0.304 N 
ATOM     22  C   UNL A   1     -21.854   0.875  28.162  0.00  0.00    +0.032 C 
ATOM     23  C   UNL A   1     -27.052   0.084  29.156  0.00  0.00    +0.094 C 
ATOM     24  C   UNL A   1     -31.884  -3.015  28.983  0.00  0.00    +0.448 C 
ATOM     25  F   UNL A   1     -21.010   1.830  26.137  0.00  0.00    -0.203 F 
ATOM     26  N   UNL A   1     -31.759  -2.244  27.742  0.00  0.00    -0.165 NA
ATOM     27  C   UNL A   1     -31.255  -1.641  28.891  0.00  0.00    +0.319 C 
ATOM     28  C   UNL A   1     -32.510  -1.945  26.421  0.00  0.00    +0.114 C 
ATOM     29  O   UNL A   1     -29.879  -0.962  29.097  0.00  0.00    -0.196 OA
ATOM     30  C   UNL A   1     -23.238   1.349  26.177  0.00  0.00    +0.086 C 
ATOM     31  O   UNL A   1     -29.656   0.193  28.575  0.00  0.00    -0.219 OA
ATOM     32  C   UNL A   1     -27.772   1.419  29.452  0.00  0.00    +0.057 C 
ENDROOT
BRANCH   2  33
ATOM     33  C   UNL A   1     -25.642   4.093  27.123  0.00  0.00    +0.266 C 
ATOM     34  N   UNL A   1     -25.614   5.252  26.449  0.00  0.00    -0.200 NA
ATOM     35  C   UNL A   1     -25.026   6.479  26.963  0.00  0.00    +0.139 C 
ATOM     36  O   UNL A   1     -25.143   3.966  28.243  0.00  0.00    -0.268 OA
ENDBRANCH   2  33
BRANCH  21  37
ATOM     37  C   UNL A   1     -24.855  -1.012  30.143  0.00  0.00    +0.111 C 
BRANCH  37  38
ATOM     38  C   UNL A   1     -24.973  -2.505  29.788  0.00  0.00    -0.003 C 
ATOM     39  C   UNL A   1     -23.906  -3.173  29.146  0.00  0.00    -0.003 C 
ATOM     40  C   UNL A   1     -23.989  -4.549  28.853  0.00  0.00    -0.000 C 
ATOM     41  C   UNL A   1     -25.137  -5.280  29.205  0.00  0.00    -0.000 C 
ATOM     42  C   UNL A   1     -26.232  -4.611  29.784  0.00  0.00    -0.000 C 
ATOM     43  C   UNL A   1     -26.155  -3.232  30.065  0.00  0.00    -0.003 C 
ENDBRANCH  37  38
BRANCH  37  44
ATOM     44  C   UNL A   1     -25.387  -0.679  31.571  0.00  0.00    +0.095 C 
ATOM     45  C   UNL A   1     -25.189   0.773  32.028  0.00  0.00    +0.021 C 
ATOM     46  C   UNL A   1     -25.336   0.684  33.544  0.00  0.00    +0.020 C 
ATOM     47  C   UNL A   1     -24.829  -0.715  33.905  0.00  0.00    +0.089 C 
ATOM     48  N   UNL A   1     -24.758  -1.481  32.646  0.00  0.00    -0.217 NA
ENDBRANCH  37  44
ENDBRANCH  21  37
TORSDOF 4
