MODEL 2203
MODEL 1
REMARK VINA RESULT:    -7.401      0.000      0.000
REMARK INTER + INTRA:          -8.597
REMARK INTER:                  -8.699
REMARK INTRA:                   0.102
REMARK UNBOUND:                 0.102
REMARK  Name = No_2203-gen_results/8p0m/2024-11-27-11-27-31/
REMARK  3 active torsions:
REMARK  status: ('A' for Active; 'I' for Inactive)
REMARK    1  A    between atoms: C_2  and  C_13
REMARK    2  A    between atoms: C_4  and  C_7
REMARK    3  A    between atoms: C_17  and  C_21
REMARK                            x       y       z     vdW  Elec       q    Type
REMARK                         _______ _______ _______ _____ _____    ______ ____
ROOT
ATOM      1  C   UNL A   1     -31.933  -9.403  10.225  0.00  0.00    +0.004 A 
ATOM      2  C   UNL A   1     -30.938  -9.544   9.910  0.00  0.00    +0.054 A 
ATOM      3  C   UNL A   1     -32.308  -7.982  10.580  0.00  0.00    +0.000 A 
ATOM      4  C   UNL A   1     -31.384  -6.943  10.339  0.00  0.00    +0.000 A 
ATOM      5  C   UNL A   1     -29.812  -8.652   9.548  0.00  0.00    +0.004 A 
ATOM      6  C   UNL A   1     -30.122  -7.335   9.855  0.00  0.00    +0.000 A 
ENDROOT
BRANCH   2   7
ATOM      7  C   UNL A   1     -30.511 -11.070   9.561  0.00  0.00    +0.249 C 
ATOM      8  O   UNL A   1     -30.563 -11.568   8.523  0.00  0.00    -0.270 OA
ATOM      9  N   UNL A   1     -30.171 -11.773  10.669  0.00  0.00    -0.276 N 
ATOM     10  C   UNL A   1     -29.875 -13.171  10.580  0.00  0.00    +0.105 C 
ATOM     11  C   UNL A   1     -30.163 -13.822  11.648  0.00  0.00    +0.123 C 
ATOM     12  C   UNL A   1     -30.412 -13.216  12.897  0.00  0.00    +0.015 C 
ATOM     13  C   UNL A   1     -30.688 -11.838  12.970  0.00  0.00    +0.022 C 
ATOM     14  C   UNL A   1     -30.626 -11.206  11.881  0.00  0.00    +0.094 C 
BRANCH  11  15
ATOM     15  C   UNL A   1     -29.777 -15.305  11.674  0.00  0.00    +0.366 C 
ATOM     16  O   UNL A   1     -29.115 -15.783  12.483  0.00  0.00    -0.246 OA
ATOM     17  O   UNL A   1     -30.053 -16.015  10.582  0.00  0.00    -0.246 OA
ENDBRANCH  11  15
ENDBRANCH   2   7
BRANCH   4  18
ATOM     18  C   UNL A   1     -31.675  -5.590  10.670  0.00  0.00    +0.000 A 
ATOM     19  C   UNL A   1     -32.157  -5.231  11.600  0.00  0.00    +0.000 A 
ATOM     20  C   UNL A   1     -32.566  -3.828  11.987  0.00  0.00    +0.000 A 
ATOM     21  C   UNL A   1     -32.264  -2.942  11.026  0.00  0.00    +0.000 A 
ATOM     22  C   UNL A   1     -31.413  -4.550   9.680  0.00  0.00    +0.000 A 
ATOM     23  C   UNL A   1     -31.701  -3.289   9.848  0.00  0.00    +0.000 A 
ENDBRANCH   4  18
TORSDOF 3
ENDMDL
ENDMDL
