MODEL 2205
MODEL 1
REMARK VINA RESULT:    -7.357      0.000      0.000
REMARK INTER + INTRA:          -9.318
REMARK INTER:                  -8.648
REMARK INTRA:                  -0.670
REMARK UNBOUND:                -0.670
REMARK  Name = No_2205-gen_results/8p0m/2024-11-27-11-27-31/
REMARK  3 active torsions:
REMARK  status: ('A' for Active; 'I' for Inactive)
REMARK    1  A    between atoms: C_1  and  C_2
REMARK    2  A    between atoms: C_10  and  C_14
REMARK    3  A    between atoms: C_19  and  C_21
REMARK                            x       y       z     vdW  Elec       q    Type
REMARK                         _______ _______ _______ _____ _____    ______ ____
ROOT
ATOM      1  C   UNL A   1     -26.135   0.857  26.220  0.00  0.00    +0.055 A 
ATOM      2  C   UNL A   1     -25.616  -0.100  27.085  0.00  0.00    +0.001 A 
ATOM      3  C   UNL A   1     -24.274  -0.063  27.735  0.00  0.00    -0.008 A 
ATOM      4  C   UNL A   1     -23.398   0.974  27.298  0.00  0.00    +0.051 A 
ATOM      5  C   UNL A   1     -23.924   1.899  26.375  0.00  0.00    +0.004 A 
ATOM      6  C   UNL A   1     -25.163   1.843  25.864  0.00  0.00    +0.005 A 
ATOM      7  C   UNL A   1     -22.082   1.009  27.883  0.00  0.00    +0.265 C 
ATOM      8  N   UNL A   1     -21.669   0.016  28.695  0.00  0.00    -0.201 NA
ATOM      9  O   UNL A   1     -21.256   1.852  27.435  0.00  0.00    -0.268 OA
ATOM     10  C   UNL A   1     -22.377  -0.977  29.215  0.00  0.00    +0.128 C 
ATOM     11  C   UNL A   1     -23.747  -1.131  28.666  0.00  0.00    +0.139 C 
ENDROOT
BRANCH   1  12
ATOM     12  C   UNL A   1     -27.243   0.738  25.750  0.00  0.00    +0.272 C 
ATOM     13  N   UNL A   1     -27.424   0.261  24.428  0.00  0.00    -0.134 NA
ATOM     14  O   UNL A   1     -28.225   0.386  26.515  0.00  0.00    -0.268 OA
ATOM     15  C   UNL A   1     -28.660  -0.092  23.772  0.00  0.00    +0.344 C 
ATOM     16  O   UNL A   1     -29.264   0.841  23.337  0.00  0.00    -0.264 OA
BRANCH  15  17
ATOM     17  C   UNL A   1     -28.687  -1.403  23.548  0.00  0.00    +0.472 C 
ATOM     18  F   UNL A   1     -29.737  -1.896  24.309  0.00  0.00    -0.162 F 
ATOM     19  F   UNL A   1     -28.995  -1.789  22.315  0.00  0.00    -0.162 F 
ATOM     20  F   UNL A   1     -27.564  -1.988  23.948  0.00  0.00    -0.162 F 
ENDBRANCH  15  17
ENDBRANCH   1  12
BRANCH  11  21
ATOM     21  C   UNL A   1     -24.596  -2.192  29.113  0.00  0.00    +0.403 C 
ATOM     22  F   UNL A   1     -25.619  -1.725  29.634  0.00  0.00    -0.170 F 
ATOM     23  F   UNL A   1     -23.944  -2.946  29.981  0.00  0.00    -0.170 F 
ATOM     24  F   UNL A   1     -25.000  -3.017  28.135  0.00  0.00    -0.170 F 
ENDBRANCH  11  21
TORSDOF 3
ENDMDL
ENDMDL
