REMARK  Name = outputs/IAG933/test6/raw/output_2206_IAG933_linker_design_.xyz
REMARK  14 active torsions:
REMARK  status: ('A' for Active; 'I' for Inactive)
REMARK    1  A    between atoms: C_1  and  C_2
REMARK    2  A    between atoms: C_1  and  C_8
REMARK    3  A    between atoms: C_9  and  N_42
REMARK    4  A    between atoms: C_13  and  O_28
REMARK    5  A    between atoms: C_14  and  C_15
REMARK    6  A    between atoms: C_21  and  O_22
REMARK    7  A    between atoms: O_22  and  C_23
REMARK    8  A    between atoms: C_23  and  C_24
REMARK    9  A    between atoms: O_28  and  C_31
REMARK   10  A    between atoms: C_32  and  O_39
REMARK   11  A    between atoms: C_36  and  C_38
REMARK   12  A    between atoms: C_36  and  O_39
REMARK   13  A    between atoms: C_36  and  N_42
REMARK   14  A    between atoms: C_38  and  C_40
REMARK                            x       y       z     vdW  Elec       q    Type
REMARK                         _______ _______ _______ _____ _____    ______ ____
ROOT
ATOM      1  C   UNL A   1     -22.933   1.553  29.562  0.00  0.00    +0.119 C 
ENDROOT
BRANCH   1   4
ATOM      2  C   UNL A   1     -23.466   1.648  27.048  0.00  0.00    +0.191 C 
ATOM      3  C   UNL A   1     -22.798   1.952  25.876  0.00  0.00    +0.262 C 
ATOM      4  C   UNL A   1     -22.468   1.656  28.068  0.00  0.00    +0.197 C 
ATOM      5  O   UNL A   1     -21.529   1.922  26.114  0.00  0.00    -0.165 OA
ATOM      6  O   UNL A   1     -21.302   1.728  27.478  0.00  0.00    -0.335 OA
BRANCH   2   7
ATOM      7  O   UNL A   1     -24.741   1.336  27.220  0.00  0.00    -0.450 OA
BRANCH   7   8
ATOM      8  C   UNL A   1     -25.688   1.614  26.461  0.00  0.00    +0.183 C 
ATOM      9  C   UNL A   1     -26.250   2.920  26.395  0.00  0.00    +0.111 C 
ATOM     10  C   UNL A   1     -27.438   3.091  25.645  0.00  0.00    +0.110 C 
ATOM     11  N   UNL A   1     -28.075   2.089  25.003  0.00  0.00    -0.208 NA
ATOM     12  C   UNL A   1     -27.543   0.849  25.079  0.00  0.00    +0.256 C 
ATOM     13  C   UNL A   1     -26.354   0.576  25.777  0.00  0.00    +0.227 C 
ATOM     14  F   UNL A   1     -25.860  -0.681  25.795  0.00  0.00    -0.196 F 
BRANCH   9  15
ATOM     15  C   UNL A   1     -25.642   4.093  27.123  0.00  0.00    +0.269 C 
ATOM     16  N   UNL A   1     -25.614   5.252  26.449  0.00  0.00    -0.200 NA
ATOM     17  C   UNL A   1     -25.026   6.479  26.963  0.00  0.00    +0.139 C 
ATOM     18  O   UNL A   1     -25.143   3.966  28.243  0.00  0.00    -0.268 OA
ENDBRANCH   9  15
BRANCH  12  19
ATOM     19  O   UNL A   1     -28.193  -0.208  24.477  0.00  0.00    -0.456 OA
BRANCH  19  20
ATOM     20  C   UNL A   1     -29.460   0.005  23.866  0.00  0.00    +0.243 C 
BRANCH  20  21
ATOM     21  C   UNL A   1     -30.065  -1.377  23.573  0.00  0.00    +0.229 C 
ATOM     22  O   UNL A   1     -30.729  -1.878  24.721  0.00  0.00    -0.216 OA
ENDBRANCH  20  21
ENDBRANCH  19  20
ENDBRANCH  12  19
ENDBRANCH   7   8
ENDBRANCH   2   7
ENDBRANCH   1   4
BRANCH   1  23
ATOM     23  C   UNL A   1     -23.999   2.427  30.464  0.00  0.00    +0.197 C 
BRANCH  23  24
ATOM     24  O   UNL A   1     -23.962   3.207  31.660  0.00  0.00    -0.342 OA
BRANCH  24  27
ATOM     25  C   UNL A   1     -26.923   5.379  32.215  0.00  0.00    +0.003 C 
ATOM     26  C   UNL A   1     -25.877   3.835  33.610  0.00  0.00    +0.027 C 
ATOM     27  C   UNL A   1     -25.264   3.677  32.158  0.00  0.00    +0.117 C 
ATOM     28  C   UNL A   1     -26.696   4.960  33.737  0.00  0.00    +0.003 C 
ATOM     29  C   UNL A   1     -26.341   4.308  31.245  0.00  0.00    +0.030 C 
ATOM     30  C   UNL A   1     -25.236   5.241  34.011  0.00  0.00    +0.003 C 
ENDBRANCH  24  27
ENDBRANCH  23  24
BRANCH  23  31
ATOM     31  N   UNL A   1     -25.158   1.513  30.749  0.00  0.00    -0.192 NA
BRANCH  31  33
ATOM     32  C   UNL A   1     -25.387  -0.679  31.571  0.00  0.00    +0.093 C 
ATOM     33  C   UNL A   1     -25.189   0.773  32.028  0.00  0.00    +0.093 C 
ATOM     34  C   UNL A   1     -25.336   0.684  33.544  0.00  0.00    +0.038 C 
ATOM     35  C   UNL A   1     -24.829  -0.715  33.905  0.00  0.00    +0.090 C 
ATOM     36  N   UNL A   1     -24.758  -1.481  32.646  0.00  0.00    -0.218 NA
BRANCH  32  37
ATOM     37  C   UNL A   1     -24.855  -1.012  30.143  0.00  0.00    +0.045 C 
BRANCH  37  38
ATOM     38  C   UNL A   1     -24.973  -2.505  29.788  0.00  0.00    -0.021 C 
ATOM     39  C   UNL A   1     -23.906  -3.173  29.146  0.00  0.00    -0.004 C 
ATOM     40  C   UNL A   1     -23.989  -4.549  28.853  0.00  0.00    -0.000 C 
ATOM     41  C   UNL A   1     -25.137  -5.280  29.205  0.00  0.00    -0.000 C 
ATOM     42  C   UNL A   1     -26.232  -4.611  29.784  0.00  0.00    -0.000 C 
ATOM     43  C   UNL A   1     -26.155  -3.232  30.065  0.00  0.00    -0.004 C 
ENDBRANCH  37  38
ENDBRANCH  32  37
ENDBRANCH  31  33
ENDBRANCH  23  31
ENDBRANCH   1  23
TORSDOF 14
