REMARK  Name = outputs/IAG933/test6/raw/output_2208_IAG933_linker_design_.xyz
REMARK  17 active torsions:
REMARK  status: ('A' for Active; 'I' for Inactive)
REMARK    1  A    between atoms: C_1  and  C_2
REMARK    2  A    between atoms: C_1  and  C_8
REMARK    3  A    between atoms: C_1  and  N_44
REMARK    4  A    between atoms: C_13  and  C_45
REMARK    5  A    between atoms: C_14  and  C_15
REMARK    6  A    between atoms: C_21  and  O_22
REMARK    7  A    between atoms: O_22  and  C_23
REMARK    8  A    between atoms: C_23  and  C_24
REMARK    9  A    between atoms: C_28  and  C_41
REMARK   10  A    between atoms: C_30  and  C_45
REMARK   11  A    between atoms: C_33  and  C_41
REMARK   12  A    between atoms: C_34  and  C_43
REMARK   13  A    between atoms: C_34  and  N_44
REMARK   14  A    between atoms: C_36  and  O_40
REMARK   15  A    between atoms: C_36  and  N_44
REMARK   16  A    between atoms: C_39  and  O_40
REMARK   17  A    between atoms: C_39  and  C_41
REMARK                            x       y       z     vdW  Elec       q    Type
REMARK                         _______ _______ _______ _____ _____    ______ ____
ROOT
ATOM      1  C   UNL A   1     -24.172   0.567  28.200  0.00  0.00    +0.098 C 
ATOM      2  C   UNL A   1     -24.373   1.358  27.056  0.00  0.00    +0.022 C 
ENDROOT
BRANCH   2   3
ATOM      3  C   UNL A   1     -25.688   1.614  26.461  0.00  0.00    +0.040 C 
ATOM      4  C   UNL A   1     -26.250   2.920  26.395  0.00  0.00    +0.077 C 
ATOM      5  C   UNL A   1     -27.438   3.091  25.645  0.00  0.00    +0.107 C 
ATOM      6  N   UNL A   1     -28.075   2.089  25.003  0.00  0.00    -0.208 NA
ATOM      7  C   UNL A   1     -27.543   0.849  25.079  0.00  0.00    +0.253 C 
ATOM      8  C   UNL A   1     -26.354   0.576  25.777  0.00  0.00    +0.193 C 
ATOM      9  F   UNL A   1     -25.860  -0.681  25.795  0.00  0.00    -0.199 F 
BRANCH   4  10
ATOM     10  C   UNL A   1     -25.642   4.093  27.123  0.00  0.00    +0.266 C 
ATOM     11  N   UNL A   1     -25.614   5.252  26.449  0.00  0.00    -0.200 NA
ATOM     12  C   UNL A   1     -25.026   6.479  26.963  0.00  0.00    +0.139 C 
ATOM     13  O   UNL A   1     -25.143   3.966  28.243  0.00  0.00    -0.268 OA
ENDBRANCH   4  10
BRANCH   7  14
ATOM     14  O   UNL A   1     -28.193  -0.208  24.477  0.00  0.00    -0.456 OA
BRANCH  14  15
ATOM     15  C   UNL A   1     -29.460   0.005  23.866  0.00  0.00    +0.243 C 
BRANCH  15  16
ATOM     16  C   UNL A   1     -30.065  -1.377  23.573  0.00  0.00    +0.229 C 
ATOM     17  O   UNL A   1     -30.729  -1.878  24.721  0.00  0.00    -0.216 OA
ENDBRANCH  15  16
ENDBRANCH  14  15
ENDBRANCH   7  14
ENDBRANCH   2   3
BRANCH   2  18
ATOM     18  C   UNL A   1     -23.357   1.981  26.356  0.00  0.00    +0.033 C 
ATOM     19  F   UNL A   1     -21.384   1.904  27.476  0.00  0.00    -0.202 F 
ATOM     20  C   UNL A   1     -22.046   2.088  26.749  0.00  0.00    +0.167 C 
ENDBRANCH   2  18
BRANCH   1  23
ATOM     21  N   UNL A   1     -21.822   1.120  27.950  0.00  0.00    -0.114 NA
ATOM     22  F   UNL A   1     -22.520  -0.254  29.620  0.00  0.00    -0.180 F 
ATOM     23  C   UNL A   1     -22.794   0.471  28.544  0.00  0.00    +0.255 C 
ENDBRANCH   1  23
BRANCH   1  24
ATOM     24  N   UNL A   1     -25.120  -0.136  28.964  0.00  0.00    -0.276 N 
BRANCH  24  25
ATOM     25  C   UNL A   1     -24.855  -1.012  30.143  0.00  0.00    +0.114 C 
BRANCH  25  26
ATOM     26  C   UNL A   1     -24.973  -2.505  29.788  0.00  0.00    -0.003 C 
ATOM     27  C   UNL A   1     -23.906  -3.173  29.146  0.00  0.00    -0.003 C 
ATOM     28  C   UNL A   1     -23.989  -4.549  28.853  0.00  0.00    -0.000 C 
ATOM     29  C   UNL A   1     -25.137  -5.280  29.205  0.00  0.00    -0.000 C 
ATOM     30  C   UNL A   1     -26.232  -4.611  29.784  0.00  0.00    -0.000 C 
ATOM     31  C   UNL A   1     -26.155  -3.232  30.065  0.00  0.00    -0.003 C 
ENDBRANCH  25  26
BRANCH  25  32
ATOM     32  C   UNL A   1     -25.387  -0.679  31.571  0.00  0.00    +0.095 C 
ATOM     33  C   UNL A   1     -25.189   0.773  32.028  0.00  0.00    +0.021 C 
ATOM     34  C   UNL A   1     -25.336   0.684  33.544  0.00  0.00    +0.020 C 
ATOM     35  C   UNL A   1     -24.829  -0.715  33.905  0.00  0.00    +0.089 C 
ATOM     36  N   UNL A   1     -24.758  -1.481  32.646  0.00  0.00    -0.217 NA
ENDBRANCH  25  32
ENDBRANCH  24  25
BRANCH  24  37
ATOM     37  C   UNL A   1     -26.437  -0.082  28.824  0.00  0.00    +0.241 C 
BRANCH  37  38
ATOM     38  O   UNL A   1     -27.627  -0.585  29.249  0.00  0.00    -0.334 OA
BRANCH  38  39
ATOM     39  C   UNL A   1     -28.573   0.452  29.330  0.00  0.00    +0.155 C 
BRANCH  39  40
ATOM     40  C   UNL A   1     -29.938  -0.090  29.671  0.00  0.00    +0.133 C 
BRANCH  40  41
ATOM     41  C   UNL A   1     -30.792  -0.098  28.373  0.00  0.00    +0.367 C 
ATOM     42  O   UNL A   1     -30.446  -0.888  27.438  0.00  0.00    -0.246 OA
ATOM     43  O   UNL A   1     -31.711   0.654  28.338  0.00  0.00    -0.246 OA
ENDBRANCH  40  41
BRANCH  40  44
ATOM     44  C   UNL A   1     -30.007  -0.638  31.083  0.00  0.00    +0.014 C 
ATOM     45  C   UNL A   1     -29.424   0.416  32.133  0.00  0.00    +0.001 C 
ENDBRANCH  40  44
ENDBRANCH  39  40
ENDBRANCH  38  39
ENDBRANCH  37  38
ENDBRANCH  24  37
ENDBRANCH   1  24
TORSDOF 17
