MODEL 2208
MODEL 1
REMARK VINA RESULT:    -6.934      0.000      0.000
REMARK INTER + INTRA:          -9.485
REMARK INTER:                  -8.555
REMARK INTRA:                  -0.930
REMARK UNBOUND:                -0.930
REMARK  Name = No_2208-gen_results/8p0m/2024-11-27-11-27-31/
REMARK  4 active torsions:
REMARK  status: ('A' for Active; 'I' for Inactive)
REMARK    1  A    between atoms: C_2  and  C_8
REMARK    2  A    between atoms: C_5  and  O_7
REMARK    3  A    between atoms: O_7  and  C_14
REMARK    4  A    between atoms: C_14  and  C_15
REMARK                            x       y       z     vdW  Elec       q    Type
REMARK                         _______ _______ _______ _____ _____    ______ ____
ROOT
ATOM      1  C   UNL A   1     -26.380  -0.199  24.591  0.00  0.00    +0.003 A 
ATOM      2  C   UNL A   1     -27.328   0.539  24.457  0.00  0.00    +0.000 A 
ATOM      3  C   UNL A   1     -27.386   1.850  24.898  0.00  0.00    +0.003 A 
ATOM      4  C   UNL A   1     -26.221   2.373  25.533  0.00  0.00    +0.037 A 
ATOM      5  C   UNL A   1     -25.135   1.573  25.531  0.00  0.00    +0.139 A 
ATOM      6  C   UNL A   1     -25.162   0.350  24.998  0.00  0.00    +0.037 A 
ENDROOT
BRANCH   2   7
ATOM      7  C   UNL A   1     -28.707   0.022  23.906  0.00  0.00    +0.000 A 
ATOM      8  C   UNL A   1     -28.956  -1.016  23.700  0.00  0.00    +0.000 A 
ATOM      9  C   UNL A   1     -30.004  -1.546  23.536  0.00  0.00    +0.000 A 
ATOM     10  C   UNL A   1     -31.259  -0.792  23.331  0.00  0.00    +0.000 A 
ATOM     11  C   UNL A   1     -31.061   0.581  23.598  0.00  0.00    +0.000 A 
ATOM     12  C   UNL A   1     -29.760   1.038  23.957  0.00  0.00    +0.000 A 
ENDBRANCH   2   7
BRANCH   5  13
ATOM     13  O   UNL A   1     -24.003   2.108  26.074  0.00  0.00    -0.471 OA
BRANCH  13  14
ATOM     14  C   UNL A   1     -23.586   2.183  27.079  0.00  0.00    +0.232 C 
BRANCH  14  15
ATOM     15  C   UNL A   1     -22.857   1.349  27.632  0.00  0.00    +0.021 A 
ATOM     16  C   UNL A   1     -21.477   1.401  27.483  0.00  0.00    -0.001 A 
ATOM     17  C   UNL A   1     -20.581   0.508  28.168  0.00  0.00    -0.000 A 
ATOM     18  C   UNL A   1     -21.214  -0.534  28.914  0.00  0.00    -0.000 A 
ATOM     19  C   UNL A   1     -22.561  -0.663  29.097  0.00  0.00    -0.000 A 
ATOM     20  C   UNL A   1     -23.394   0.306  28.485  0.00  0.00    -0.001 A 
ENDBRANCH  14  15
ENDBRANCH  13  14
ENDBRANCH   5  13
TORSDOF 4
ENDMDL
ENDMDL
