REMARK  Name = outputs/IAG933/test6/raw/output_2209_IAG933_linker_design_.xyz
REMARK  11 active torsions:
REMARK  status: ('A' for Active; 'I' for Inactive)
REMARK    1  A    between atoms: C_1  and  C_2
REMARK    2  A    between atoms: C_1  and  C_8
REMARK    3  A    between atoms: C_1  and  N_32
REMARK    4  A    between atoms: C_13  and  C_36
REMARK    5  A    between atoms: C_14  and  C_15
REMARK    6  A    between atoms: C_21  and  O_22
REMARK    7  A    between atoms: O_22  and  C_23
REMARK    8  A    between atoms: C_23  and  C_24
REMARK    9  A    between atoms: C_29  and  C_30
REMARK   10  A    between atoms: C_33  and  C_34
REMARK   11  A    between atoms: C_36  and  C_37
REMARK                            x       y       z     vdW  Elec       q    Type
REMARK                         _______ _______ _______ _____ _____    ______ ____
ROOT
ATOM      1  C   UNL A   1     -22.426   1.739  26.102  0.00  0.00    +0.186 C 
ATOM      2  O   UNL A   1     -21.201   1.798  26.609  0.00  0.00    -0.449 OA
ATOM      3  C   UNL A   1     -22.655   0.841  28.157  0.00  0.00    +0.128 C 
ATOM      4  C   UNL A   1     -23.380   1.313  27.008  0.00  0.00    +0.029 C 
ATOM      5  C   UNL A   1     -21.243   1.180  27.869  0.00  0.00    +0.187 C 
ENDROOT
BRANCH   3   8
ATOM      6  O   UNL A   1     -26.147   0.155  28.718  0.00  0.00    +0.020 OA
ATOM      7  N   UNL A   1     -24.755  -0.006  29.099  0.00  0.00    -0.053 N 
ATOM      8  C   UNL A   1     -23.251   0.194  29.216  0.00  0.00    +0.418 C 
ATOM      9  N   UNL A   1     -22.521  -0.284  30.179  0.00  0.00    +0.199 NA
BRANCH   7  10
ATOM     10  C   UNL A   1     -24.855  -1.012  30.143  0.00  0.00    +0.244 C 
BRANCH  10  11
ATOM     11  C   UNL A   1     -24.973  -2.505  29.788  0.00  0.00    +0.026 C 
ATOM     12  C   UNL A   1     -23.906  -3.173  29.146  0.00  0.00    -0.000 C 
ATOM     13  C   UNL A   1     -23.989  -4.549  28.853  0.00  0.00    -0.000 C 
ATOM     14  C   UNL A   1     -25.137  -5.280  29.205  0.00  0.00    -0.000 C 
ATOM     15  C   UNL A   1     -26.232  -4.611  29.784  0.00  0.00    -0.000 C 
ATOM     16  C   UNL A   1     -26.155  -3.232  30.065  0.00  0.00    -0.000 C 
ENDBRANCH  10  11
BRANCH  10  17
ATOM     17  C   UNL A   1     -25.387  -0.679  31.571  0.00  0.00    +0.125 C 
ATOM     18  C   UNL A   1     -25.189   0.773  32.028  0.00  0.00    +0.024 C 
ATOM     19  C   UNL A   1     -25.336   0.684  33.544  0.00  0.00    +0.020 C 
ATOM     20  C   UNL A   1     -24.829  -0.715  33.905  0.00  0.00    +0.089 C 
ATOM     21  N   UNL A   1     -24.758  -1.481  32.646  0.00  0.00    -0.215 NA
ENDBRANCH  10  17
ENDBRANCH   7  10
ENDBRANCH   3   8
BRANCH   1  22
ATOM     22  C   UNL A   1     -22.778   2.014  24.766  0.00  0.00    +0.374 C 
ATOM     23  F   UNL A   1     -22.136   2.985  24.280  0.00  0.00    -0.190 F 
ATOM     24  F   UNL A   1     -23.500   1.206  24.111  0.00  0.00    -0.190 F 
ENDBRANCH   1  22
BRANCH   4  25
ATOM     25  C   UNL A   1     -24.498   1.276  26.977  0.00  0.00    +0.059 C 
BRANCH  25  26
ATOM     26  C   UNL A   1     -25.688   1.614  26.461  0.00  0.00    +0.020 C 
ATOM     27  C   UNL A   1     -26.250   2.920  26.395  0.00  0.00    +0.073 C 
ATOM     28  C   UNL A   1     -27.438   3.091  25.645  0.00  0.00    +0.106 C 
ATOM     29  N   UNL A   1     -28.075   2.089  25.003  0.00  0.00    -0.208 NA
ATOM     30  C   UNL A   1     -27.543   0.849  25.079  0.00  0.00    +0.253 C 
ATOM     31  C   UNL A   1     -26.354   0.576  25.777  0.00  0.00    +0.189 C 
ATOM     32  F   UNL A   1     -25.860  -0.681  25.795  0.00  0.00    -0.200 F 
BRANCH  27  33
ATOM     33  C   UNL A   1     -25.642   4.093  27.123  0.00  0.00    +0.266 C 
ATOM     34  N   UNL A   1     -25.614   5.252  26.449  0.00  0.00    -0.200 NA
ATOM     35  C   UNL A   1     -25.026   6.479  26.963  0.00  0.00    +0.139 C 
ATOM     36  O   UNL A   1     -25.143   3.966  28.243  0.00  0.00    -0.268 OA
ENDBRANCH  27  33
BRANCH  30  37
ATOM     37  O   UNL A   1     -28.193  -0.208  24.477  0.00  0.00    -0.456 OA
BRANCH  37  38
ATOM     38  C   UNL A   1     -29.460   0.005  23.866  0.00  0.00    +0.243 C 
BRANCH  38  39
ATOM     39  C   UNL A   1     -30.065  -1.377  23.573  0.00  0.00    +0.229 C 
ATOM     40  O   UNL A   1     -30.729  -1.878  24.721  0.00  0.00    -0.216 OA
ENDBRANCH  38  39
ENDBRANCH  37  38
ENDBRANCH  30  37
ENDBRANCH  25  26
ENDBRANCH   4  25
TORSDOF 11
