MODEL 2209
MODEL 1
REMARK VINA RESULT:    -7.369      0.000      0.000
REMARK INTER + INTRA:          -8.014
REMARK INTER:                  -7.800
REMARK INTRA:                  -0.214
REMARK UNBOUND:                -0.214
REMARK  Name = No_2209-gen_results/8p0m/2024-11-27-11-27-31/
REMARK  1 active torsions:
REMARK  status: ('A' for Active; 'I' for Inactive)
REMARK    1  A    between atoms: C_4  and  C_11
REMARK                            x       y       z     vdW  Elec       q    Type
REMARK                         _______ _______ _______ _____ _____    ______ ____
ROOT
ATOM      1  C   UNL A   1     -25.768   0.296  25.972  0.00  0.00    +0.000 A 
ATOM      2  C   UNL A   1     -25.449  -0.492  26.831  0.00  0.00    +0.000 A 
ATOM      3  C   UNL A   1     -24.302  -0.359  27.613  0.00  0.00    +0.000 A 
ATOM      4  C   UNL A   1     -23.831  -1.275  28.670  0.00  0.00    +0.002 A 
ATOM      5  C   UNL A   1     -22.618  -1.127  29.431  0.00  0.00    +0.000 A 
ATOM      6  C   UNL A   1     -21.965   0.099  29.261  0.00  0.00    +0.000 A 
ATOM      7  C   UNL A   1     -24.788   1.384  25.634  0.00  0.00    +0.000 A 
ATOM      8  C   UNL A   1     -23.679   1.643  26.407  0.00  0.00    +0.000 A 
ATOM      9  C   UNL A   1     -23.344   0.761  27.418  0.00  0.00    +0.000 A 
ATOM     10  C   UNL A   1     -22.237   0.982  28.237  0.00  0.00    +0.000 A 
ENDROOT
BRANCH   4  11
ATOM     11  C   UNL A   1     -24.619  -2.507  28.999  0.00  0.00    +0.019 A 
ATOM     12  C   UNL A   1     -25.737  -2.355  29.611  0.00  0.00    +0.099 A 
ATOM     13  N   UNL A   1     -26.403  -3.460  30.008  0.00  0.00    -0.242 NA
ATOM     14  C   UNL A   1     -24.149  -3.763  28.656  0.00  0.00    +0.003 A 
ATOM     15  C   UNL A   1     -24.821  -4.912  28.936  0.00  0.00    +0.021 A 
ATOM     16  C   UNL A   1     -26.068  -4.696  29.582  0.00  0.00    +0.099 A 
ENDBRANCH   4  11
TORSDOF 1
ENDMDL
ENDMDL
