MODEL 2210
MODEL 1
REMARK VINA RESULT:    -8.566      0.000      0.000
REMARK INTER + INTRA:         -12.810
REMARK INTER:                 -11.570
REMARK INTRA:                  -1.240
REMARK UNBOUND:                -1.240
REMARK  Name = No_2210-gen_results/8p0m/2024-11-27-11-27-31/
REMARK  6 active torsions:
REMARK  status: ('A' for Active; 'I' for Inactive)
REMARK    1  A    between atoms: C_2  and  N_13
REMARK    2  A    between atoms: C_4  and  C_7
REMARK    3  A    between atoms: C_14  and  N_27
REMARK    4  A    between atoms: C_17  and  C_18
REMARK    5  A    between atoms: C_18  and  C_20
REMARK    6  A    between atoms: N_27  and  C_28
REMARK                            x       y       z     vdW  Elec       q    Type
REMARK                         _______ _______ _______ _____ _____    ______ ____
ROOT
ATOM      1  N   UNL A   1     -24.983   0.798  27.066  0.00  0.00    -0.292 N 
ATOM      2  C   UNL A   1     -23.811   1.350  26.712  0.00  0.00    +0.167 C 
ATOM      3  C   UNL A   1     -22.742   1.161  27.577  0.00  0.00    +0.043 C 
ATOM      4  C   UNL A   1     -24.976  -0.029  28.173  0.00  0.00    +0.100 C 
ATOM      5  C   UNL A   1     -24.093  -0.499  28.558  0.00  0.00    +0.082 C 
ATOM      6  C   UNL A   1     -22.814   0.142  28.509  0.00  0.00    +0.013 C 
ENDROOT
BRANCH   1   8
ATOM      7  C   UNL A   1     -26.974   1.627  26.671  0.00  0.00    +0.015 A 
ATOM      8  C   UNL A   1     -26.237   1.012  26.236  0.00  0.00    +0.049 A 
ATOM      9  C   UNL A   1     -28.203   1.868  25.823  0.00  0.00    +0.001 A 
ATOM     10  C   UNL A   1     -28.353   1.165  24.609  0.00  0.00    +0.000 A 
ATOM     11  C   UNL A   1     -26.161   0.150  25.035  0.00  0.00    +0.015 A 
ATOM     12  C   UNL A   1     -27.277   0.340  24.233  0.00  0.00    +0.001 A 
BRANCH  10  13
ATOM     13  C   UNL A   1     -29.480   1.364  23.762  0.00  0.00    +0.000 A 
ATOM     14  C   UNL A   1     -29.737   2.296  23.222  0.00  0.00    +0.000 A 
ATOM     15  C   UNL A   1     -30.948   2.606  22.372  0.00  0.00    +0.000 A 
ATOM     16  C   UNL A   1     -31.781   1.558  22.297  0.00  0.00    +0.000 A 
ATOM     17  C   UNL A   1     -30.465   0.295  23.636  0.00  0.00    +0.000 A 
ATOM     18  C   UNL A   1     -31.566   0.391  22.944  0.00  0.00    +0.000 A 
ENDBRANCH  10  13
ENDBRANCH   1   8
BRANCH   5  19
ATOM     19  C   UNL A   1     -24.178  -1.507  29.741  0.00  0.00    +0.174 C 
ATOM     20  O   UNL A   1     -23.719  -1.244  30.913  0.00  0.00    -0.291 OA
BRANCH  19  21
ATOM     21  C   UNL A   1     -24.625  -2.687  29.465  0.00  0.00    +0.035 A 
ATOM     22  C   UNL A   1     -25.775  -3.074  29.955  0.00  0.00    +0.003 A 
ATOM     23  C   UNL A   1     -26.273  -4.498  29.704  0.00  0.00    +0.000 A 
ATOM     24  C   UNL A   1     -25.416  -5.288  29.027  0.00  0.00    +0.000 A 
ATOM     25  C   UNL A   1     -24.199  -4.933  28.586  0.00  0.00    +0.000 A 
ATOM     26  C   UNL A   1     -23.790  -3.634  28.841  0.00  0.00    +0.003 A 
ENDBRANCH  19  21
ENDBRANCH   5  19
BRANCH   2  27
ATOM     27  N   UNL A   1     -23.997   2.328  25.739  0.00  0.00    -0.218 NA
BRANCH  27  28
ATOM     28  C   UNL A   1     -23.808   3.363  25.595  0.00  0.00    +0.082 C 
ATOM     29  C   UNL A   1     -24.557   4.474  26.118  0.00  0.00    +0.019 C 
ENDBRANCH  27  28
ENDBRANCH   2  27
TORSDOF 6
ENDMDL
ENDMDL
