REMARK  Name = No_2211-gen_results/8p0m/2024-11-27-11-27-31/
REMARK  2 active torsions:
REMARK  status: ('A' for Active; 'I' for Inactive)
REMARK    1  A    between atoms: C_2  and  C_3
REMARK    2  A    between atoms: C_5  and  C_6
REMARK                            x       y       z     vdW  Elec       q    Type
REMARK                         _______ _______ _______ _____ _____    ______ ____
ROOT
ATOM      1  C   UNL A   1     -27.190   0.246  29.527  0.00  0.00    +0.069 C 
ATOM      2  C   UNL A   1     -26.351   1.478  29.622  0.00  0.00    -0.020 C 
ENDROOT
BRANCH   1   4
ATOM      3  O   UNL A   1     -28.123  -1.335  28.487  0.00  0.00    -0.254 OA
ATOM      4  C   UNL A   1     -27.481  -0.404  28.709  0.00  0.00    +0.333 C 
ATOM      5  F   UNL A   1     -26.565  -0.395  27.617  0.00  0.00    -0.159 F 
ENDBRANCH   1   4
BRANCH   2   6
ATOM      6  C   UNL A   1     -25.492   1.498  28.398  0.00  0.00    +0.026 C 
ATOM      7  C   UNL A   1     -24.477   2.570  28.231  0.00  0.00    +0.005 C 
ENDBRANCH   2   6
TORSDOF 2
