MODEL 2211
MODEL 1
REMARK VINA RESULT:    -3.781      0.000      0.000
REMARK INTER + INTRA:          -4.262
REMARK INTER:                  -4.223
REMARK INTRA:                  -0.040
REMARK UNBOUND:                -0.040
REMARK  Name = No_2211-gen_results/8p0m/2024-11-27-11-27-31/
REMARK  2 active torsions:
REMARK  status: ('A' for Active; 'I' for Inactive)
REMARK    1  A    between atoms: C_2  and  C_3
REMARK    2  A    between atoms: C_5  and  C_6
REMARK                            x       y       z     vdW  Elec       q    Type
REMARK                         _______ _______ _______ _____ _____    ______ ____
ROOT
ATOM      1  C   UNL A   1     -28.131 -10.999  33.232  0.00  0.00    +0.069 C 
ATOM      2  C   UNL A   1     -28.967 -10.788  32.012  0.00  0.00    -0.020 C 
ENDROOT
BRANCH   1   4
ATOM      3  O   UNL A   1     -27.487 -12.538  34.523  0.00  0.00    -0.254 OA
ATOM      4  C   UNL A   1     -27.554 -11.834  33.613  0.00  0.00    +0.333 C 
ATOM      5  F   UNL A   1     -26.246 -11.929  33.054  0.00  0.00    -0.159 F 
ENDBRANCH   1   4
BRANCH   2   6
ATOM      6  C   UNL A   1     -28.541 -11.827  31.025  0.00  0.00    +0.026 C 
ATOM      7  C   UNL A   1     -28.880 -11.658  29.588  0.00  0.00    +0.005 C 
ENDBRANCH   2   6
TORSDOF 2
ENDMDL
ENDMDL
