MODEL 2212
MODEL 1
REMARK VINA RESULT:    -5.487      0.000      0.000
REMARK INTER + INTRA:          -5.931
REMARK INTER:                  -5.808
REMARK INTRA:                  -0.123
REMARK UNBOUND:                -0.123
REMARK  Name = No_2212-gen_results/8p0m/2024-11-27-11-27-31/
REMARK  1 active torsions:
REMARK  status: ('A' for Active; 'I' for Inactive)
REMARK    1  A    between atoms: C_2  and  C_7
REMARK                            x       y       z     vdW  Elec       q    Type
REMARK                         _______ _______ _______ _____ _____    ______ ____
ROOT
ATOM      1  C   UNL A   1     -24.215  -3.650  28.874  0.00  0.00    +0.034 A 
ATOM      2  C   UNL A   1     -24.564  -2.726  29.242  0.00  0.00    +0.074 A 
ATOM      3  C   UNL A   1     -25.078  -4.820  29.105  0.00  0.00    +0.140 A 
ATOM      4  C   UNL A   1     -26.376  -4.662  29.671  0.00  0.00    +0.030 A 
ATOM      5  C   UNL A   1     -25.872  -2.289  29.803  0.00  0.00    +0.004 A 
ATOM      6  C   UNL A   1     -26.696  -3.348  30.041  0.00  0.00    +0.002 A 
ATOM      7  F   UNL A   1     -24.786  -6.094  28.789  0.00  0.00    -0.204 F 
ENDROOT
BRANCH   2   8
ATOM      8  C   UNL A   1     -23.667  -1.431  28.995  0.00  0.00    +0.419 C 
ATOM      9  F   UNL A   1     -24.041  -0.777  27.914  0.00  0.00    -0.166 F 
ATOM     10  F   UNL A   1     -22.373  -1.777  28.931  0.00  0.00    -0.166 F 
ATOM     11  F   UNL A   1     -23.820  -0.680  30.055  0.00  0.00    -0.166 F 
ENDBRANCH   2   8
TORSDOF 1
ENDMDL
ENDMDL
