REMARK  Name = No_2212-gen_results/8p0m/2024-11-27-11-27-31/
REMARK  1 active torsions:
REMARK  status: ('A' for Active; 'I' for Inactive)
REMARK    1  A    between atoms: C_2  and  C_7
REMARK                            x       y       z     vdW  Elec       q    Type
REMARK                         _______ _______ _______ _____ _____    ______ ____
ROOT
ATOM      1  C   UNL A   1     -28.016  -0.814  28.878  0.00  0.00    +0.034 A 
ATOM      2  C   UNL A   1     -28.469  -0.785  29.829  0.00  0.00    +0.074 A 
ATOM      3  C   UNL A   1     -26.546  -0.876  28.850  0.00  0.00    +0.140 A 
ATOM      4  C   UNL A   1     -25.804  -1.032  30.057  0.00  0.00    +0.030 A 
ATOM      5  C   UNL A   1     -27.944  -0.987  31.207  0.00  0.00    +0.004 A 
ATOM      6  C   UNL A   1     -26.582  -1.039  31.223  0.00  0.00    +0.002 A 
ATOM      7  F   UNL A   1     -25.772  -0.841  27.750  0.00  0.00    -0.204 F 
ENDROOT
BRANCH   2   8
ATOM      8  C   UNL A   1     -30.061  -0.737  29.902  0.00  0.00    +0.419 C 
ATOM      9  F   UNL A   1     -30.483   0.116  30.813  0.00  0.00    -0.166 F 
ATOM     10  F   UNL A   1     -30.546  -1.967  30.127  0.00  0.00    -0.166 F 
ATOM     11  F   UNL A   1     -30.465  -0.368  28.714  0.00  0.00    -0.166 F 
ENDBRANCH   2   8
TORSDOF 1
