MODEL 2213
MODEL 1
REMARK VINA RESULT:    -6.273      0.000      0.000
REMARK INTER + INTRA:          -8.876
REMARK INTER:                  -8.106
REMARK INTRA:                  -0.770
REMARK UNBOUND:                -0.770
REMARK  Name = No_2213-gen_results/8p0m/2024-11-27-11-27-31/
REMARK  5 active torsions:
REMARK  status: ('A' for Active; 'I' for Inactive)
REMARK    1  A    between atoms: C_2  and  C_9
REMARK    2  A    between atoms: C_4  and  O_7
REMARK    3  A    between atoms: O_7  and  C_8
REMARK    4  A    between atoms: C_8  and  C_12
REMARK    5  A    between atoms: C_12  and  C_13
REMARK                            x       y       z     vdW  Elec       q    Type
REMARK                         _______ _______ _______ _____ _____    ______ ____
ROOT
ATOM      1  C   UNL A   1     -13.663   2.709  37.249  0.00  0.00    +0.010 A 
ATOM      2  C   UNL A   1     -14.186   2.814  36.340  0.00  0.00    +0.080 A 
ATOM      3  C   UNL A   1     -12.298   2.065  37.143  0.00  0.00    +0.037 A 
ATOM      4  C   UNL A   1     -11.764   1.786  35.868  0.00  0.00    +0.139 A 
ATOM      5  C   UNL A   1     -13.853   2.642  34.908  0.00  0.00    +0.010 A 
ATOM      6  C   UNL A   1     -12.602   2.057  34.770  0.00  0.00    +0.037 A 
ENDROOT
BRANCH   2   7
ATOM      7  C   UNL A   1     -15.659   3.510  36.417  0.00  0.00    +0.388 C 
ATOM      8  O   UNL A   1     -16.268   3.670  37.362  0.00  0.00    -0.241 OA
ATOM      9  O   UNL A   1     -16.139   3.790  35.249  0.00  0.00    -0.241 OA
ENDBRANCH   2   7
BRANCH   4  10
ATOM     10  O   UNL A   1     -10.602   1.189  35.736  0.00  0.00    -0.475 OA
BRANCH  10  11
ATOM     11  C   UNL A   1      -9.850   0.786  36.650  0.00  0.00    +0.210 C 
BRANCH  11  12
ATOM     12  C   UNL A   1      -9.906  -0.708  36.893  0.00  0.00    +0.074 C 
BRANCH  12  13
ATOM     13  C   UNL A   1     -10.676  -1.283  37.897  0.00  0.00    -0.018 A 
ATOM     14  C   UNL A   1     -11.582  -2.331  37.639  0.00  0.00    -0.004 A 
ATOM     15  C   UNL A   1     -12.237  -2.739  38.706  0.00  0.00    -0.000 A 
ATOM     16  C   UNL A   1     -12.061  -2.255  40.016  0.00  0.00    -0.000 A 
ATOM     17  C   UNL A   1     -11.250  -1.118  40.155  0.00  0.00    -0.000 A 
ATOM     18  C   UNL A   1     -10.536  -0.666  39.139  0.00  0.00    -0.004 A 
ENDBRANCH  12  13
ENDBRANCH  11  12
ENDBRANCH  10  11
ENDBRANCH   4  10
TORSDOF 5
ENDMDL
ENDMDL
