MODEL 2214
MODEL 1
REMARK VINA RESULT:    -4.646      0.000      0.000
REMARK INTER + INTRA:          -4.646
REMARK INTER:                  -4.646
REMARK INTRA:                   0.000
REMARK UNBOUND:                 0.000
REMARK  Name = No_2214-gen_results/8p0m/2024-11-27-11-27-31/
REMARK  0 active torsions:
REMARK  status: ('A' for Active; 'I' for Inactive)
REMARK                            x       y       z     vdW  Elec       q    Type
REMARK                         _______ _______ _______ _____ _____    ______ ____
ROOT
ATOM      1  C   UNL A   1     -26.022  -1.918  30.099  0.00  0.00    +0.043 A 
ATOM      2  C   UNL A   1     -25.148  -1.409  29.806  0.00  0.00    +0.151 A 
ATOM      3  C   UNL A   1     -26.060  -3.392  29.760  0.00  0.00    +0.070 A 
ATOM      4  C   UNL A   1     -24.910  -4.008  29.224  0.00  0.00    +0.069 A 
ATOM      5  C   UNL A   1     -23.824  -1.808  29.277  0.00  0.00    +0.086 A 
ATOM      6  C   UNL A   1     -23.819  -3.159  28.960  0.00  0.00    +0.026 A 
ATOM      7  F   UNL A   1     -25.279   0.015  30.106  0.00  0.00    -0.203 F 
ATOM      8 CL   UNL A   1     -24.895  -5.635  28.834  0.00  0.00    -0.081 Cl
ATOM      9 CL   UNL A   1     -27.385  -4.455  30.070  0.00  0.00    -0.081 Cl
ATOM     10 CL   UNL A   1     -22.499  -0.793  28.932  0.00  0.00    -0.080 Cl
ENDROOT
TORSDOF 0
ENDMDL
ENDMDL
