REMARK  Name = outputs/IAG933/test6/raw/output_2215_IAG933_linker_design_.xyz
REMARK  13 active torsions:
REMARK  status: ('A' for Active; 'I' for Inactive)
REMARK    1  A    between atoms: C_1  and  C_2
REMARK    2  A    between atoms: C_1  and  C_8
REMARK    3  A    between atoms: C_1  and  N_46
REMARK    4  A    between atoms: C_13  and  C_37
REMARK    5  A    between atoms: C_14  and  C_15
REMARK    6  A    between atoms: C_21  and  O_22
REMARK    7  A    between atoms: O_22  and  C_23
REMARK    8  A    between atoms: C_23  and  C_24
REMARK    9  A    between atoms: C_30  and  C_32
REMARK   10  A    between atoms: C_30  and  C_38
REMARK   11  A    between atoms: C_32  and  C_34
REMARK   12  A    between atoms: C_33  and  C_39
REMARK   13  A    between atoms: C_43  and  N_46
REMARK                            x       y       z     vdW  Elec       q    Type
REMARK                         _______ _______ _______ _____ _____    ______ ____
ROOT
ATOM      1  N   UNL A   1     -22.984   0.305  28.910  0.00  0.00    -0.035 NA
ATOM      2  C   UNL A   1     -24.236   0.559  28.367  0.00  0.00    +0.337 C 
ATOM      3  C   UNL A   1     -23.178   1.814  26.613  0.00  0.00    +0.069 C 
ATOM      4  C   UNL A   1     -24.401   1.298  27.123  0.00  0.00    +0.097 C 
ATOM      5  C   UNL A   1     -21.933   1.613  27.229  0.00  0.00    +0.062 C 
ATOM      6  C   UNL A   1     -21.814   0.876  28.400  0.00  0.00    +0.237 C 
ATOM      7 CL   UNL A   1     -23.221   2.697  25.159  0.00  0.00    -0.082 Cl
ATOM      8  N   UNL A   1     -25.370  -0.154  29.054  0.00  0.00    -0.124 N 
ENDROOT
BRANCH   4   9
ATOM      9  C   UNL A   1     -25.688   1.614  26.461  0.00  0.00    +0.046 C 
ATOM     10  C   UNL A   1     -26.250   2.920  26.395  0.00  0.00    +0.077 C 
ATOM     11  C   UNL A   1     -27.438   3.091  25.645  0.00  0.00    +0.107 C 
ATOM     12  N   UNL A   1     -28.075   2.089  25.003  0.00  0.00    -0.208 NA
ATOM     13  C   UNL A   1     -27.543   0.849  25.079  0.00  0.00    +0.253 C 
ATOM     14  C   UNL A   1     -26.354   0.576  25.777  0.00  0.00    +0.193 C 
ATOM     15  F   UNL A   1     -25.860  -0.681  25.795  0.00  0.00    -0.199 F 
BRANCH  10  16
ATOM     16  C   UNL A   1     -25.642   4.093  27.123  0.00  0.00    +0.266 C 
ATOM     17  N   UNL A   1     -25.614   5.252  26.449  0.00  0.00    -0.200 NA
ATOM     18  C   UNL A   1     -25.026   6.479  26.963  0.00  0.00    +0.139 C 
ATOM     19  O   UNL A   1     -25.143   3.966  28.243  0.00  0.00    -0.268 OA
ENDBRANCH  10  16
BRANCH  13  20
ATOM     20  O   UNL A   1     -28.193  -0.208  24.477  0.00  0.00    -0.456 OA
BRANCH  20  21
ATOM     21  C   UNL A   1     -29.460   0.005  23.866  0.00  0.00    +0.243 C 
BRANCH  21  22
ATOM     22  C   UNL A   1     -30.065  -1.377  23.573  0.00  0.00    +0.229 C 
ATOM     23  O   UNL A   1     -30.729  -1.878  24.721  0.00  0.00    -0.216 OA
ENDBRANCH  21  22
ENDBRANCH  20  21
ENDBRANCH  13  20
ENDBRANCH   4   9
BRANCH   8  25
ATOM     24  C   UNL A   1     -28.020   0.382  28.728  0.00  0.00    -0.044 C 
ATOM     25  C   UNL A   1     -26.863  -0.126  28.785  0.00  0.00    +0.114 C 
BRANCH  24  28
ATOM     26  C   UNL A   1     -30.004   3.504  28.314  0.00  0.00    +0.143 C 
ATOM     27  C   UNL A   1     -30.256   1.125  27.742  0.00  0.00    +0.155 C 
ATOM     28  C   UNL A   1     -29.278   1.227  28.955  0.00  0.00    +0.100 C 
ATOM     29  C   UNL A   1     -29.259   2.674  29.350  0.00  0.00    +0.044 C 
ATOM     30  O   UNL A   1     -30.711   2.442  27.451  0.00  0.00    -0.353 OA
BRANCH  29  31
ATOM     31  C   UNL A   1     -27.988   3.199  30.005  0.00  0.00    +0.005 C 
BRANCH  31  32
ATOM     32  C   UNL A   1     -28.324   4.494  30.762  0.00  0.00    +0.021 C 
BRANCH  32  33
ATOM     33  C   UNL A   1     -28.252   4.282  32.252  0.00  0.00    +0.109 C 
ATOM     34  N   UNL A   1     -27.096   4.980  32.767  0.00  0.00    -0.131 NA
ENDBRANCH  32  33
ENDBRANCH  31  32
ENDBRANCH  29  31
ENDBRANCH  24  28
ENDBRANCH   8  25
BRANCH   8  35
ATOM     35  C   UNL A   1     -24.855  -1.012  30.143  0.00  0.00    +0.212 C 
BRANCH  35  36
ATOM     36  C   UNL A   1     -24.973  -2.505  29.788  0.00  0.00    +0.022 C 
ATOM     37  C   UNL A   1     -23.906  -3.173  29.146  0.00  0.00    -0.000 C 
ATOM     38  C   UNL A   1     -23.989  -4.549  28.853  0.00  0.00    -0.000 C 
ATOM     39  C   UNL A   1     -25.137  -5.280  29.205  0.00  0.00    -0.000 C 
ATOM     40  C   UNL A   1     -26.232  -4.611  29.784  0.00  0.00    -0.000 C 
ATOM     41  C   UNL A   1     -26.155  -3.232  30.065  0.00  0.00    -0.000 C 
ENDBRANCH  35  36
BRANCH  35  42
ATOM     42  C   UNL A   1     -25.387  -0.679  31.571  0.00  0.00    +0.121 C 
ATOM     43  C   UNL A   1     -25.189   0.773  32.028  0.00  0.00    +0.023 C 
ATOM     44  C   UNL A   1     -25.336   0.684  33.544  0.00  0.00    +0.020 C 
ATOM     45  C   UNL A   1     -24.829  -0.715  33.905  0.00  0.00    +0.089 C 
ATOM     46  N   UNL A   1     -24.758  -1.481  32.646  0.00  0.00    -0.215 NA
ENDBRANCH  35  42
ENDBRANCH   8  35
TORSDOF 13
