MODEL 2217
MODEL 1
REMARK VINA RESULT:    -4.303      0.000      0.000
REMARK INTER + INTRA:          -4.303
REMARK INTER:                  -4.303
REMARK INTRA:                   0.000
REMARK UNBOUND:                 0.000
REMARK  Name = No_2217-gen_results/8p0m/2024-11-27-11-27-31/
REMARK  0 active torsions:
REMARK  status: ('A' for Active; 'I' for Inactive)
REMARK                            x       y       z     vdW  Elec       q    Type
REMARK                         _______ _______ _______ _____ _____    ______ ____
ROOT
ATOM      1  C   UNL A   1     -25.542  -2.560  29.716  0.00  0.00    +0.007 A 
ATOM      2  C   UNL A   1     -24.433  -2.747  29.273  0.00  0.00    +0.035 A 
ATOM      3  C   UNL A   1     -24.025  -4.014  28.870  0.00  0.00    +0.007 A 
ATOM      4  C   UNL A   1     -24.896  -5.153  29.013  0.00  0.00    +0.001 A 
ATOM      5  C   UNL A   1     -26.151  -4.851  29.556  0.00  0.00    +0.000 A 
ATOM      6  C   UNL A   1     -26.482  -3.638  29.937  0.00  0.00    +0.001 A 
ATOM      7 BR   UNL A   1     -23.144  -1.393  29.052  0.00  0.00    -0.049 Br
ENDROOT
TORSDOF 0
ENDMDL
ENDMDL
