REMARK  Name = No_2218-gen_results/8p0m/2024-11-27-11-27-31/
REMARK  1 active torsions:
REMARK  status: ('A' for Active; 'I' for Inactive)
REMARK    1  A    between atoms: C_4  and  C_11
REMARK                            x       y       z     vdW  Elec       q    Type
REMARK                         _______ _______ _______ _____ _____    ______ ____
ROOT
ATOM      1  C   UNL A   1     -28.016  -0.814  28.878  0.00  0.00    +0.006 A 
ATOM      2  C   UNL A   1     -28.469  -0.785  29.829  0.00  0.00    +0.069 A 
ATOM      3  C   UNL A   1     -26.546  -0.876  28.850  0.00  0.00    +0.004 A 
ATOM      4  C   UNL A   1     -25.804  -1.032  30.057  0.00  0.00    +0.073 A 
ATOM      5  C   UNL A   1     -27.944  -0.987  31.207  0.00  0.00    +0.071 A 
ATOM      6  C   UNL A   1     -26.582  -1.039  31.223  0.00  0.00    +0.020 A 
ATOM      7  C   UNL A   1     -30.061  -0.737  29.902  0.00  0.00    +0.251 C 
ATOM      8  O   UNL A   1     -30.552  -0.277  29.011  0.00  0.00    -0.270 OA
ATOM      9  N   UNL A   1     -30.743  -1.289  30.994  0.00  0.00    -0.260 N 
ATOM     10  C   UNL A   1     -32.171  -1.260  30.975  0.00  0.00    +0.095 C 
ATOM     11  C   UNL A   1     -32.794  -1.827  31.655  0.00  0.00    +0.022 C 
ATOM     12  C   UNL A   1     -32.173  -2.631  32.786  0.00  0.00    +0.005 C 
ATOM     13  C   UNL A   1     -30.765  -2.711  32.841  0.00  0.00    +0.042 C 
ATOM     14  C   UNL A   1     -30.059  -2.123  31.903  0.00  0.00    +0.169 C 
ATOM     15  N   UNL A   1     -28.687  -2.047  32.052  0.00  0.00    -0.219 NA
ENDROOT
BRANCH   4  16
ATOM     16  C   UNL A   1     -24.369  -1.088  30.088  0.00  0.00    +0.419 C 
ATOM     17  F   UNL A   1     -23.869   0.069  30.370  0.00  0.00    -0.166 F 
ATOM     18  F   UNL A   1     -23.817  -1.402  28.882  0.00  0.00    -0.166 F 
ATOM     19  F   UNL A   1     -23.884  -1.975  31.018  0.00  0.00    -0.166 F 
ENDBRANCH   4  16
TORSDOF 1
