MODEL 2218
MODEL 1
REMARK VINA RESULT:    -6.902      0.000      0.000
REMARK INTER + INTRA:          -7.465
REMARK INTER:                  -7.305
REMARK INTRA:                  -0.160
REMARK UNBOUND:                -0.160
REMARK  Name = No_2218-gen_results/8p0m/2024-11-27-11-27-31/
REMARK  1 active torsions:
REMARK  status: ('A' for Active; 'I' for Inactive)
REMARK    1  A    between atoms: C_4  and  C_11
REMARK                            x       y       z     vdW  Elec       q    Type
REMARK                         _______ _______ _______ _____ _____    ______ ____
ROOT
ATOM      1  C   UNL A   1     -23.604   2.393  26.874  0.00  0.00    +0.006 A 
ATOM      2  C   UNL A   1     -24.556   1.949  26.793  0.00  0.00    +0.069 A 
ATOM      3  C   UNL A   1     -22.601   1.661  27.664  0.00  0.00    +0.004 A 
ATOM      4  C   UNL A   1     -22.883   0.357  28.164  0.00  0.00    +0.073 A 
ATOM      5  C   UNL A   1     -25.081   0.605  27.160  0.00  0.00    +0.071 A 
ATOM      6  C   UNL A   1     -24.182  -0.100  27.903  0.00  0.00    +0.020 A 
ATOM      7  C   UNL A   1     -25.665   2.701  25.929  0.00  0.00    +0.251 C 
ATOM      8  O   UNL A   1     -25.534   3.808  25.869  0.00  0.00    -0.270 OA
ATOM      9  N   UNL A   1     -26.672   1.979  25.275  0.00  0.00    -0.260 N 
ATOM     10  C   UNL A   1     -27.605   2.707  24.474  0.00  0.00    +0.095 C 
ATOM     11  C   UNL A   1     -28.288   2.244  23.774  0.00  0.00    +0.022 C 
ATOM     12  C   UNL A   1     -28.383   0.730  23.672  0.00  0.00    +0.005 C 
ATOM     13  C   UNL A   1     -27.471  -0.039  24.426  0.00  0.00    +0.042 C 
ATOM     14  C   UNL A   1     -26.565   0.578  25.149  0.00  0.00    +0.169 C 
ATOM     15  N   UNL A   1     -25.792  -0.163  26.022  0.00  0.00    -0.219 NA
ENDROOT
BRANCH   4  16
ATOM     16  C   UNL A   1     -21.944  -0.397  28.948  0.00  0.00    +0.419 C 
ATOM     17  F   UNL A   1     -21.904   0.040  30.163  0.00  0.00    -0.166 F 
ATOM     18  F   UNL A   1     -20.659  -0.277  28.511  0.00  0.00    -0.166 F 
ATOM     19  F   UNL A   1     -22.246  -1.735  29.011  0.00  0.00    -0.166 F 
ENDBRANCH   4  16
TORSDOF 1
ENDMDL
ENDMDL
