MODEL 2219
MODEL 1
REMARK VINA RESULT:    -6.454      0.000      0.000
REMARK INTER + INTRA:          -8.087
REMARK INTER:                  -7.586
REMARK INTRA:                  -0.501
REMARK UNBOUND:                -0.501
REMARK  Name = No_2219-gen_results/8p0m/2024-11-27-11-27-31/
REMARK  3 active torsions:
REMARK  status: ('A' for Active; 'I' for Inactive)
REMARK    1  A    between atoms: C_3  and  O_7
REMARK    2  A    between atoms: O_7  and  C_8
REMARK    3  A    between atoms: C_10  and  C_14
REMARK                            x       y       z     vdW  Elec       q    Type
REMARK                         _______ _______ _______ _____ _____    ______ ____
ROOT
ATOM      1  C   UNL A   1     -22.698  -0.248  29.439  0.00  0.00    +0.145 A 
ATOM      2  C   UNL A   1     -23.496   0.715  28.734  0.00  0.00    +0.044 A 
ATOM      3  C   UNL A   1     -22.859   1.435  27.737  0.00  0.00    +0.083 A 
ATOM      4  C   UNL A   1     -21.460   1.356  27.569  0.00  0.00    +0.007 A 
ATOM      5  C   UNL A   1     -20.761   0.385  28.209  0.00  0.00    +0.003 A 
ATOM      6  C   UNL A   1     -21.411  -0.386  29.169  0.00  0.00    +0.037 A 
ENDROOT
BRANCH   3   7
ATOM      7  C   UNL A   1     -23.614   2.554  27.006  0.00  0.00    +0.388 C 
ATOM      8  O   UNL A   1     -23.424   2.617  25.740  0.00  0.00    -0.241 OA
ATOM      9  O   UNL A   1     -24.229   3.479  27.666  0.00  0.00    -0.241 OA
ENDBRANCH   3   7
BRANCH   1  10
ATOM     10  O   UNL A   1     -23.366  -0.922  30.482  0.00  0.00    -0.454 OA
BRANCH  10  13
ATOM     11  C   UNL A   1     -23.762  -2.917  29.157  0.00  0.00    +0.037 A 
ATOM     12  C   UNL A   1     -24.398  -3.727  28.937  0.00  0.00    +0.003 A 
ATOM     13  C   UNL A   1     -24.261  -1.958  30.102  0.00  0.00    +0.145 A 
ATOM     14  C   UNL A   1     -25.515  -1.975  30.564  0.00  0.00    +0.037 A 
ATOM     15  C   UNL A   1     -25.791  -3.938  29.303  0.00  0.00    +0.000 A 
ATOM     16  C   UNL A   1     -26.275  -3.048  30.159  0.00  0.00    +0.003 A 
ENDBRANCH  10  13
ENDBRANCH   1  10
TORSDOF 3
ENDMDL
ENDMDL
