MODEL 221
MODEL 1
REMARK VINA RESULT:    -5.203      0.000      0.000
REMARK INTER + INTRA:          -5.665
REMARK INTER:                  -5.507
REMARK INTRA:                  -0.158
REMARK UNBOUND:                -0.158
REMARK  Name = No_221-gen_results/8p0m/2024-11-27-11-27-31/
REMARK  1 active torsions:
REMARK  status: ('A' for Active; 'I' for Inactive)
REMARK    1  A    between atoms: C_5  and  C_8
REMARK                            x       y       z     vdW  Elec       q    Type
REMARK                         _______ _______ _______ _____ _____    ______ ____
ROOT
ATOM      1  F   UNL A   1     -24.936  -6.378  28.533  0.00  0.00    -0.204 F 
ATOM      2  C   UNL A   1     -24.918  -5.194  28.892  0.00  0.00    +0.140 A 
ATOM      3  C   UNL A   1     -24.016  -4.456  28.606  0.00  0.00    +0.030 A 
ATOM      4  C   UNL A   1     -23.877  -3.034  28.895  0.00  0.00    +0.006 A 
ATOM      5  C   UNL A   1     -25.023  -2.489  29.624  0.00  0.00    +0.072 A 
ATOM      6  C   UNL A   1     -26.074  -3.356  29.894  0.00  0.00    +0.006 A 
ATOM      7  C   UNL A   1     -26.070  -4.658  29.556  0.00  0.00    +0.030 A 
ENDROOT
BRANCH   5   8
ATOM      8  C   UNL A   1     -25.006  -1.099  29.995  0.00  0.00    +0.419 C 
ATOM      9  F   UNL A   1     -26.013  -0.464  29.439  0.00  0.00    -0.166 F 
ATOM     10  F   UNL A   1     -25.281  -0.982  31.335  0.00  0.00    -0.166 F 
ATOM     11  F   UNL A   1     -23.837  -0.543  29.745  0.00  0.00    -0.166 F 
ENDBRANCH   5   8
TORSDOF 1
ENDMDL
ENDMDL
