MODEL 2220
MODEL 1
REMARK VINA RESULT:    -6.692      0.000      0.000
REMARK INTER + INTRA:          -8.270
REMARK INTER:                  -7.865
REMARK INTRA:                  -0.405
REMARK UNBOUND:                -0.405
REMARK  Name = No_2220-gen_results/8p0m/2024-11-27-11-27-31/
REMARK  3 active torsions:
REMARK  status: ('A' for Active; 'I' for Inactive)
REMARK    1  A    between atoms: N_1  and  C_2
REMARK    2  A    between atoms: N_1  and  C_3
REMARK    3  A    between atoms: C_2  and  C_9
REMARK                            x       y       z     vdW  Elec       q    Type
REMARK                         _______ _______ _______ _____ _____    ______ ____
ROOT
ATOM      1  N   UNL A   1     -23.630  -0.825  29.213  0.00  0.00    -0.233 NA
ENDROOT
BRANCH   1   2
ATOM      2  C   UNL A   1     -23.337  -0.003  28.181  0.00  0.00    +0.066 A 
ATOM      3  C   UNL A   1     -24.284   0.328  27.190  0.00  0.00    +0.016 A 
ATOM      4  C   UNL A   1     -24.065   1.305  26.206  0.00  0.00    +0.001 A 
ATOM      5  C   UNL A   1     -22.887   2.069  26.256  0.00  0.00    +0.000 A 
ATOM      6  C   UNL A   1     -22.207   0.937  28.078  0.00  0.00    +0.016 A 
ATOM      7  C   UNL A   1     -21.980   1.829  27.162  0.00  0.00    +0.001 A 
ENDBRANCH   1   2
BRANCH   1   8
ATOM      8  C   UNL A   1     -23.595  -1.881  28.911  0.00  0.00    +0.139 C 
BRANCH   8   9
ATOM      9  C   UNL A   1     -24.242  -2.794  29.063  0.00  0.00    -0.001 A 
ATOM     10  C   UNL A   1     -25.675  -2.655  29.522  0.00  0.00    -0.003 A 
ATOM     11  C   UNL A   1     -26.474  -3.598  29.942  0.00  0.00    -0.000 A 
ATOM     12  C   UNL A   1     -26.216  -4.863  29.574  0.00  0.00    -0.000 A 
ATOM     13  C   UNL A   1     -24.992  -5.191  29.013  0.00  0.00    -0.000 A 
ATOM     14  C   UNL A   1     -24.030  -4.247  28.775  0.00  0.00    -0.003 A 
ENDBRANCH   8   9
ENDBRANCH   1   8
TORSDOF 3
ENDMDL
ENDMDL
