REMARK  Name = outputs/IAG933/test6/raw/output_2221_IAG933_linker_design_.xyz
REMARK  16 active torsions:
REMARK  status: ('A' for Active; 'I' for Inactive)
REMARK    1  A    between atoms: C_1  and  C_2
REMARK    2  A    between atoms: C_1  and  C_8
REMARK    3  A    between atoms: C_1  and  C_30
REMARK    4  A    between atoms: C_9  and  C_38
REMARK    5  A    between atoms: C_13  and  C_47
REMARK    6  A    between atoms: C_14  and  C_15
REMARK    7  A    between atoms: C_21  and  O_22
REMARK    8  A    between atoms: O_22  and  C_23
REMARK    9  A    between atoms: C_23  and  C_24
REMARK   10  A    between atoms: C_28  and  C_29
REMARK   11  A    between atoms: C_28  and  O_46
REMARK   12  A    between atoms: C_33  and  C_35
REMARK   13  A    between atoms: C_33  and  C_36
REMARK   14  A    between atoms: C_33  and  C_47
REMARK   15  A    between atoms: N_37  and  C_38
REMARK   16  A    between atoms: C_40  and  O_46
REMARK                            x       y       z     vdW  Elec       q    Type
REMARK                         _______ _______ _______ _____ _____    ______ ____
ROOT
ATOM      1  C   UNL A   1     -25.099   0.136  29.088  0.00  0.00    +0.253 C 
ATOM      2  C   UNL A   1     -23.503   1.375  28.969  0.00  0.00    +0.253 C 
ATOM      3  O   UNL A   1     -22.417   1.592  29.180  0.00  0.00    -0.273 OA
ATOM      4  N   UNL A   1     -24.647   1.353  29.645  0.00  0.00    -0.144 NA
ATOM      5  O   UNL A   1     -25.423  -0.753  27.989  0.00  0.00    -0.273 OA
ENDROOT
BRANCH   1   6
ATOM      6  C   UNL A   1     -24.855  -1.012  30.143  0.00  0.00    +0.117 C 
BRANCH   6   7
ATOM      7  C   UNL A   1     -24.973  -2.505  29.788  0.00  0.00    -0.013 C 
ATOM      8  C   UNL A   1     -23.906  -3.173  29.146  0.00  0.00    -0.004 C 
ATOM      9  C   UNL A   1     -23.989  -4.549  28.853  0.00  0.00    -0.000 C 
ATOM     10  C   UNL A   1     -25.137  -5.280  29.205  0.00  0.00    -0.000 C 
ATOM     11  C   UNL A   1     -26.232  -4.611  29.784  0.00  0.00    -0.000 C 
ATOM     12  C   UNL A   1     -26.155  -3.232  30.065  0.00  0.00    -0.004 C 
ENDBRANCH   6   7
BRANCH   6  13
ATOM     13  C   UNL A   1     -25.387  -0.679  31.571  0.00  0.00    +0.087 C 
ATOM     14  C   UNL A   1     -25.189   0.773  32.028  0.00  0.00    +0.034 C 
ATOM     15  C   UNL A   1     -25.336   0.684  33.544  0.00  0.00    +0.022 C 
ATOM     16  C   UNL A   1     -24.829  -0.715  33.905  0.00  0.00    +0.089 C 
ATOM     17  N   UNL A   1     -24.758  -1.481  32.646  0.00  0.00    -0.219 NA
BRANCH  14  18
ATOM     18  C   UNL A   1     -25.986   2.054  31.677  0.00  0.00    +0.074 C 
BRANCH  18  21
ATOM     19  C   UNL A   1     -26.329   4.534  31.383  0.00  0.00    +0.132 C 
ATOM     20  O   UNL A   1     -24.648   5.977  32.394  0.00  0.00    -0.351 OA
ATOM     21  N   UNL A   1     -25.477   3.453  31.996  0.00  0.00    -0.267 NA
ATOM     22  C   UNL A   1     -25.270   3.869  33.457  0.00  0.00    +0.105 C 
ATOM     23  C   UNL A   1     -25.097   5.328  33.550  0.00  0.00    +0.160 C 
ATOM     24  C   UNL A   1     -25.355   5.645  31.132  0.00  0.00    +0.162 C 
BRANCH  19  25
ATOM     25  C   UNL A   1     -27.508   4.752  32.184  0.00  0.00    +0.227 C 
BRANCH  25  26
ATOM     26  O   UNL A   1     -27.846   6.184  32.194  0.00  0.00    -0.439 OA
BRANCH  26  28
ATOM     27  O   UNL A   1     -27.316   7.726  30.784  0.00  0.00    -0.237 OA
ATOM     28  C   UNL A   1     -27.582   7.146  31.857  0.00  0.00    +0.418 C 
ENDBRANCH  26  28
ENDBRANCH  25  26
ENDBRANCH  19  25
ENDBRANCH  18  21
ENDBRANCH  14  18
ENDBRANCH   6  13
ENDBRANCH   1   6
BRANCH   2  29
ATOM     29  C   UNL A   1     -23.553   1.148  27.681  0.00  0.00    +0.149 C 
BRANCH  29  31
ATOM     30  F   UNL A   1     -21.154   1.977  27.331  0.00  0.00    -0.198 F 
ATOM     31  C   UNL A   1     -22.500   1.947  27.002  0.00  0.00    +0.327 C 
ATOM     32  F   UNL A   1     -22.919   2.866  26.206  0.00  0.00    -0.198 F 
ENDBRANCH  29  31
BRANCH  29  33
ATOM     33  C   UNL A   1     -24.634   1.308  27.162  0.00  0.00    +0.044 C 
BRANCH  33  34
ATOM     34  C   UNL A   1     -25.688   1.614  26.461  0.00  0.00    +0.017 C 
ATOM     35  C   UNL A   1     -26.250   2.920  26.395  0.00  0.00    +0.073 C 
ATOM     36  C   UNL A   1     -27.438   3.091  25.645  0.00  0.00    +0.106 C 
ATOM     37  N   UNL A   1     -28.075   2.089  25.003  0.00  0.00    -0.208 NA
ATOM     38  C   UNL A   1     -27.543   0.849  25.079  0.00  0.00    +0.253 C 
ATOM     39  C   UNL A   1     -26.354   0.576  25.777  0.00  0.00    +0.189 C 
ATOM     40  F   UNL A   1     -25.860  -0.681  25.795  0.00  0.00    -0.200 F 
BRANCH  35  41
ATOM     41  C   UNL A   1     -25.642   4.093  27.123  0.00  0.00    +0.266 C 
ATOM     42  N   UNL A   1     -25.614   5.252  26.449  0.00  0.00    -0.200 NA
ATOM     43  C   UNL A   1     -25.026   6.479  26.963  0.00  0.00    +0.139 C 
ATOM     44  O   UNL A   1     -25.143   3.966  28.243  0.00  0.00    -0.268 OA
ENDBRANCH  35  41
BRANCH  38  45
ATOM     45  O   UNL A   1     -28.193  -0.208  24.477  0.00  0.00    -0.456 OA
BRANCH  45  46
ATOM     46  C   UNL A   1     -29.460   0.005  23.866  0.00  0.00    +0.243 C 
BRANCH  46  47
ATOM     47  C   UNL A   1     -30.065  -1.377  23.573  0.00  0.00    +0.229 C 
ATOM     48  O   UNL A   1     -30.729  -1.878  24.721  0.00  0.00    -0.216 OA
ENDBRANCH  46  47
ENDBRANCH  45  46
ENDBRANCH  38  45
ENDBRANCH  33  34
ENDBRANCH  29  33
ENDBRANCH   2  29
TORSDOF 16
