REMARK  Name = No_2222-gen_results/8p0m/2024-11-27-11-27-31/
REMARK  7 active torsions:
REMARK  status: ('A' for Active; 'I' for Inactive)
REMARK    1  A    between atoms: C_1  and  C_2
REMARK    2  A    between atoms: C_5  and  C_13
REMARK    3  A    between atoms: N_8  and  C_17
REMARK    4  A    between atoms: C_10  and  C_29
REMARK    5  A    between atoms: C_19  and  C_26
REMARK    6  A    between atoms: C_21  and  C_23
REMARK    7  A    between atoms: C_24  and  C_25
REMARK                            x       y       z     vdW  Elec       q    Type
REMARK                         _______ _______ _______ _____ _____    ______ ____
ROOT
ATOM      1  C   UNL A   1     -28.016  -0.814  28.878  0.00  0.00    +0.095 C 
ATOM      2  N   UNL A   1     -29.170  -0.298  28.947  0.00  0.00    -0.305 N 
ATOM      3  C   UNL A   1     -29.811   0.155  29.859  0.00  0.00    +0.097 C 
ATOM      4  C   UNL A   1     -29.583   0.117  30.954  0.00  0.00    +0.087 C 
ATOM      5  C   UNL A   1     -28.680  -0.788  31.457  0.00  0.00    +0.009 C 
ATOM      6  C   UNL A   1     -27.844  -1.500  30.626  0.00  0.00    +0.025 C 
ENDROOT
BRANCH   1   7
ATOM      7  C   UNL A   1     -27.064  -0.119  28.608  0.00  0.00    -0.004 A 
ATOM      8  C   UNL A   1     -26.929   1.171  29.008  0.00  0.00    -0.003 A 
ATOM      9  C   UNL A   1     -25.770   2.034  28.688  0.00  0.00    +0.004 A 
ATOM     10  C   UNL A   1     -24.714   1.443  27.919  0.00  0.00    +0.071 A 
ATOM     11  C   UNL A   1     -24.859   0.078  27.584  0.00  0.00    +0.004 A 
ATOM     12  C   UNL A   1     -25.965  -0.661  27.916  0.00  0.00    -0.003 A 
BRANCH  10  13
ATOM     13  C   UNL A   1     -23.490   2.124  27.566  0.00  0.00    +0.419 C 
ATOM     14  F   UNL A   1     -23.353   2.630  26.522  0.00  0.00    -0.166 F 
ATOM     15  F   UNL A   1     -22.355   1.168  27.660  0.00  0.00    -0.166 F 
ATOM     16  F   UNL A   1     -23.159   3.014  28.609  0.00  0.00    -0.166 F 
ENDBRANCH  10  13
ENDBRANCH   1   7
BRANCH   2  17
ATOM     17  C   UNL A   1     -29.546  -0.022  27.488  0.00  0.00    +0.048 A 
ATOM     18  C   UNL A   1     -30.913  -0.048  27.171  0.00  0.00    +0.021 A 
ATOM     19  C   UNL A   1     -31.181   0.153  25.871  0.00  0.00    +0.081 A 
ATOM     20  C   UNL A   1     -30.202   0.380  24.889  0.00  0.00    +0.007 A 
ATOM     21  C   UNL A   1     -28.877   0.428  25.250  0.00  0.00    +0.001 A 
ATOM     22  C   UNL A   1     -28.558   0.266  26.580  0.00  0.00    +0.015 A 
BRANCH  19  23
ATOM     23  C   UNL A   1     -32.628   0.041  25.442  0.00  0.00    +0.388 C 
ATOM     24  O   UNL A   1     -33.360   0.784  25.871  0.00  0.00    -0.241 OA
ATOM     25  O   UNL A   1     -32.783  -0.633  24.321  0.00  0.00    -0.241 OA
ENDBRANCH  19  23
BRANCH  21  26
ATOM     26  C   UNL A   1     -27.829   0.757  24.242  0.00  0.00    -0.004 C 
ATOM     27  C   UNL A   1     -26.568   1.039  24.869  0.00  0.00    -0.026 C 
BRANCH  27  28
ATOM     28  C   UNL A   1     -25.462   0.933  24.059  0.00  0.00    +0.026 C 
ATOM     29  C   UNL A   1     -24.127   1.232  24.777  0.00  0.00    +0.005 C 
ENDBRANCH  27  28
ENDBRANCH  21  26
ENDBRANCH   2  17
BRANCH   4  30
ATOM     30  C   UNL A   1     -30.539   0.658  32.071  0.00  0.00    +0.320 C 
ATOM     31  F   UNL A   1     -30.459   0.330  33.168  0.00  0.00    -0.198 F 
ATOM     32  F   UNL A   1     -31.489   1.427  31.691  0.00  0.00    -0.198 F 
ENDBRANCH   4  30
TORSDOF 7
