MODEL 2222
MODEL 1
REMARK VINA RESULT:    -7.326      0.000      0.000
REMARK INTER + INTRA:         -11.310
REMARK INTER:                 -10.324
REMARK INTRA:                  -0.985
REMARK UNBOUND:                -0.985
REMARK  Name = No_2222-gen_results/8p0m/2024-11-27-11-27-31/
REMARK  7 active torsions:
REMARK  status: ('A' for Active; 'I' for Inactive)
REMARK    1  A    between atoms: C_1  and  C_2
REMARK    2  A    between atoms: C_5  and  C_13
REMARK    3  A    between atoms: N_8  and  C_17
REMARK    4  A    between atoms: C_10  and  C_29
REMARK    5  A    between atoms: C_19  and  C_26
REMARK    6  A    between atoms: C_21  and  C_23
REMARK    7  A    between atoms: C_24  and  C_25
REMARK                            x       y       z     vdW  Elec       q    Type
REMARK                         _______ _______ _______ _____ _____    ______ ____
ROOT
ATOM      1  C   UNL A   1     -24.582   1.840  26.410  0.00  0.00    +0.095 C 
ATOM      2  N   UNL A   1     -24.713   2.435  27.520  0.00  0.00    -0.305 N 
ATOM      3  C   UNL A   1     -24.906   3.586  27.814  0.00  0.00    +0.097 C 
ATOM      4  C   UNL A   1     -24.891   4.484  27.147  0.00  0.00    +0.087 C 
ATOM      5  C   UNL A   1     -24.288   4.440  25.913  0.00  0.00    +0.009 C 
ATOM      6  C   UNL A   1     -23.906   3.244  25.348  0.00  0.00    +0.025 C 
ENDROOT
BRANCH   1   7
ATOM      7  C   UNL A   1     -25.548   1.344  25.878  0.00  0.00    -0.004 A 
ATOM      8  C   UNL A   1     -26.795   1.878  25.921  0.00  0.00    -0.003 A 
ATOM      9  C   UNL A   1     -27.987   1.284  25.274  0.00  0.00    +0.004 A 
ATOM     10  C   UNL A   1     -27.788   0.072  24.536  0.00  0.00    +0.071 A 
ATOM     11  C   UNL A   1     -26.463  -0.413  24.454  0.00  0.00    +0.004 A 
ATOM     12  C   UNL A   1     -25.405   0.192  25.082  0.00  0.00    -0.003 A 
BRANCH  10  13
ATOM     13  C   UNL A   1     -28.828  -0.609  23.800  0.00  0.00    +0.419 C 
ATOM     14  F   UNL A   1     -29.397  -0.086  22.923  0.00  0.00    -0.166 F 
ATOM     15  F   UNL A   1     -29.904  -1.017  24.741  0.00  0.00    -0.166 F 
ATOM     16  F   UNL A   1     -28.342  -1.873  23.407  0.00  0.00    -0.166 F 
ENDBRANCH  10  13
ENDBRANCH   1   7
BRANCH   2  17
ATOM     17  C   UNL A   1     -24.924   1.303  28.530  0.00  0.00    +0.048 A 
ATOM     18  C   UNL A   1     -25.869   1.528  29.543  0.00  0.00    +0.021 A 
ATOM     19  C   UNL A   1     -25.978   0.523  30.427  0.00  0.00    +0.081 A 
ATOM     20  C   UNL A   1     -25.232  -0.666  30.367  0.00  0.00    +0.007 A 
ATOM     21  C   UNL A   1     -24.340  -0.856  29.340  0.00  0.00    +0.001 A 
ATOM     22  C   UNL A   1     -24.223   0.132  28.387  0.00  0.00    +0.015 A 
BRANCH  19  23
ATOM     23  C   UNL A   1     -26.908   0.739  31.602  0.00  0.00    +0.388 C 
ATOM     24  O   UNL A   1     -27.653  -0.075  31.836  0.00  0.00    -0.241 OA
ATOM     25  O   UNL A   1     -26.467   1.646  32.449  0.00  0.00    -0.241 OA
ENDBRANCH  19  23
BRANCH  21  26
ATOM     26  C   UNL A   1     -23.604  -2.145  29.205  0.00  0.00    -0.004 C 
ATOM     27  C   UNL A   1     -24.492  -3.269  29.307  0.00  0.00    -0.026 C 
BRANCH  27  28
ATOM     28  C   UNL A   1     -24.020  -4.451  28.785  0.00  0.00    +0.026 C 
ATOM     29  C   UNL A   1     -24.993  -5.640  28.946  0.00  0.00    +0.005 C 
ENDBRANCH  27  28
ENDBRANCH  21  26
ENDBRANCH   2  17
BRANCH   4  30
ATOM     30  C   UNL A   1     -25.061   5.958  27.652  0.00  0.00    +0.320 C 
ATOM     31  F   UNL A   1     -24.795   6.869  27.006  0.00  0.00    -0.198 F 
ATOM     32  F   UNL A   1     -25.430   6.109  28.868  0.00  0.00    -0.198 F 
ENDBRANCH   4  30
TORSDOF 7
ENDMDL
ENDMDL
