MODEL 2223
MODEL 1
REMARK VINA RESULT:    -4.493      0.000      0.000
REMARK INTER + INTRA:          -4.493
REMARK INTER:                  -4.493
REMARK INTRA:                   0.000
REMARK UNBOUND:                 0.000
REMARK  Name = No_2223-gen_results/8p0m/2024-11-27-11-27-31/
REMARK  0 active torsions:
REMARK  status: ('A' for Active; 'I' for Inactive)
REMARK                            x       y       z     vdW  Elec       q    Type
REMARK                         _______ _______ _______ _____ _____    ______ ____
ROOT
ATOM      1  C   UNL A   1      -9.233  -9.200  20.091  0.00  0.00    +0.011 A 
ATOM      2  C   UNL A   1      -8.227  -9.858  19.959  0.00  0.00    +0.058 A 
ATOM      3  C   UNL A   1      -8.030 -10.653  18.835  0.00  0.00    +0.011 A 
ATOM      4  C   UNL A   1      -9.041 -10.755  17.814  0.00  0.00    +0.001 A 
ATOM      5  C   UNL A   1     -10.182  -9.980  18.058  0.00  0.00    +0.000 A 
ATOM      6  C   UNL A   1     -10.326  -9.257  19.146  0.00  0.00    +0.001 A 
ATOM      7 CL   UNL A   1      -6.946  -9.895  21.095  0.00  0.00    -0.082 Cl
ENDROOT
TORSDOF 0
ENDMDL
ENDMDL
