REMARK  Name = outputs/IAG933/test6/raw/output_2225_IAG933_linker_design_.xyz
REMARK  12 active torsions:
REMARK  status: ('A' for Active; 'I' for Inactive)
REMARK    1  A    between atoms: C_1  and  C_2
REMARK    2  A    between atoms: C_1  and  C_8
REMARK    3  A    between atoms: C_1  and  C_28
REMARK    4  A    between atoms: C_13  and  N_29
REMARK    5  A    between atoms: C_14  and  C_15
REMARK    6  A    between atoms: C_21  and  O_22
REMARK    7  A    between atoms: O_22  and  C_23
REMARK    8  A    between atoms: C_23  and  C_24
REMARK    9  A    between atoms: C_28  and  C_37
REMARK   10  A    between atoms: C_28  and  N_46
REMARK   11  A    between atoms: N_38  and  C_42
REMARK   12  A    between atoms: C_41  and  N_46
REMARK                            x       y       z     vdW  Elec       q    Type
REMARK                         _______ _______ _______ _____ _____    ______ ____
ROOT
ATOM      1  C   UNL A   1     -25.192  -0.165  28.908  0.00  0.00    +0.144 C 
ENDROOT
BRANCH   1   6
ATOM      2  N   UNL A   1     -24.398   1.377  27.115  0.00  0.00    -0.269 N 
ATOM      3  C   UNL A   1     -22.120   1.437  27.863  0.00  0.00    +0.181 C 
ATOM      4  C   UNL A   1     -23.189   2.164  26.848  0.00  0.00    +0.185 C 
ATOM      5 CL   UNL A   1     -22.343   2.316  25.291  0.00  0.00    -0.090 Cl
ATOM      6  C   UNL A   1     -24.312   0.886  28.503  0.00  0.00    +0.214 C 
ATOM      7  O   UNL A   1     -22.837   0.293  28.393  0.00  0.00    -0.333 OA
BRANCH   2   8
ATOM      8  C   UNL A   1     -25.688   1.614  26.461  0.00  0.00    +0.089 C 
ATOM      9  C   UNL A   1     -26.250   2.920  26.395  0.00  0.00    +0.090 C 
ATOM     10  C   UNL A   1     -27.438   3.091  25.645  0.00  0.00    +0.108 C 
ATOM     11  N   UNL A   1     -28.075   2.089  25.003  0.00  0.00    -0.208 NA
ATOM     12  C   UNL A   1     -27.543   0.849  25.079  0.00  0.00    +0.255 C 
ATOM     13  C   UNL A   1     -26.354   0.576  25.777  0.00  0.00    +0.206 C 
ATOM     14  F   UNL A   1     -25.860  -0.681  25.795  0.00  0.00    -0.198 F 
BRANCH   9  15
ATOM     15  C   UNL A   1     -25.642   4.093  27.123  0.00  0.00    +0.268 C 
ATOM     16  N   UNL A   1     -25.614   5.252  26.449  0.00  0.00    -0.200 NA
ATOM     17  C   UNL A   1     -25.026   6.479  26.963  0.00  0.00    +0.139 C 
ATOM     18  O   UNL A   1     -25.143   3.966  28.243  0.00  0.00    -0.268 OA
ENDBRANCH   9  15
BRANCH  12  19
ATOM     19  O   UNL A   1     -28.193  -0.208  24.477  0.00  0.00    -0.456 OA
BRANCH  19  20
ATOM     20  C   UNL A   1     -29.460   0.005  23.866  0.00  0.00    +0.243 C 
BRANCH  20  21
ATOM     21  C   UNL A   1     -30.065  -1.377  23.573  0.00  0.00    +0.229 C 
ATOM     22  O   UNL A   1     -30.729  -1.878  24.721  0.00  0.00    -0.216 OA
ENDBRANCH  20  21
ENDBRANCH  19  20
ENDBRANCH  12  19
ENDBRANCH   2   8
ENDBRANCH   1   6
BRANCH   1  23
ATOM     23  C   UNL A   1     -24.855  -1.012  30.143  0.00  0.00    +0.062 C 
BRANCH  23  24
ATOM     24  C   UNL A   1     -24.973  -2.505  29.788  0.00  0.00    -0.019 C 
ATOM     25  C   UNL A   1     -23.906  -3.173  29.146  0.00  0.00    -0.004 C 
ATOM     26  C   UNL A   1     -23.989  -4.549  28.853  0.00  0.00    -0.000 C 
ATOM     27  C   UNL A   1     -25.137  -5.280  29.205  0.00  0.00    -0.000 C 
ATOM     28  C   UNL A   1     -26.232  -4.611  29.784  0.00  0.00    -0.000 C 
ATOM     29  C   UNL A   1     -26.155  -3.232  30.065  0.00  0.00    -0.004 C 
ENDBRANCH  23  24
BRANCH  23  30
ATOM     30  C   UNL A   1     -25.387  -0.679  31.571  0.00  0.00    +0.079 C 
ATOM     31  C   UNL A   1     -25.189   0.773  32.028  0.00  0.00    +0.019 C 
ATOM     32  C   UNL A   1     -25.336   0.684  33.544  0.00  0.00    +0.020 C 
ATOM     33  C   UNL A   1     -24.829  -0.715  33.905  0.00  0.00    +0.089 C 
ATOM     34  N   UNL A   1     -24.758  -1.481  32.646  0.00  0.00    -0.219 NA
ENDBRANCH  23  30
ENDBRANCH   1  23
BRANCH   1  35
ATOM     35  N   UNL A   1     -26.609   0.263  29.247  0.00  0.00    -0.234 NA
BRANCH  35  41
ATOM     36  C   UNL A   1     -28.992  -0.015  28.751  0.00  0.00    -0.028 C 
ATOM     37  C   UNL A   1     -28.834   1.312  29.217  0.00  0.00    +0.027 C 
ATOM     38  C   UNL A   1     -31.581   0.932  30.168  0.00  0.00    +0.048 C 
ATOM     39  C   UNL A   1     -31.386  -0.008  29.121  0.00  0.00    +0.008 C 
ATOM     40  C   UNL A   1     -29.362   2.157  30.158  0.00  0.00    +0.052 C 
ATOM     41  C   UNL A   1     -27.750  -0.617  28.847  0.00  0.00    +0.072 C 
ATOM     42  C   UNL A   1     -30.672   2.151  30.881  0.00  0.00    +0.186 C 
ATOM     43  C   UNL A   1     -30.227  -0.601  28.523  0.00  0.00    +0.024 C 
ATOM     44  O   UNL A   1     -30.006   2.572  32.265  0.00  0.00    -0.208 OA
BRANCH  42  45
ATOM     45  N   UNL A   1     -31.543   2.874  31.200  0.00  0.00    -0.191 NA
ATOM     46  C   UNL A   1     -32.306   3.384  32.333  0.00  0.00    +0.110 C 
ENDBRANCH  42  45
ENDBRANCH  35  41
ENDBRANCH   1  35
TORSDOF 12
