MODEL 2226
MODEL 1
REMARK VINA RESULT:    -5.005      0.000      0.000
REMARK INTER + INTRA:          -5.005
REMARK INTER:                  -5.005
REMARK INTRA:                   0.000
REMARK UNBOUND:                 0.000
REMARK  Name = No_2226-gen_results/8p0m/2024-11-27-11-27-31/
REMARK  0 active torsions:
REMARK  status: ('A' for Active; 'I' for Inactive)
REMARK                            x       y       z     vdW  Elec       q    Type
REMARK                         _______ _______ _______ _____ _____    ______ ____
ROOT
ATOM      1  C   UNL A   1     -10.537  -9.283  19.186  0.00  0.00    +0.042 A 
ATOM      2  C   UNL A   1      -9.804  -9.087  20.127  0.00  0.00    +0.003 A 
ATOM      3  C   UNL A   1      -8.509  -9.592  20.146  0.00  0.00    +0.000 A 
ATOM      4  C   UNL A   1      -8.015 -10.404  19.063  0.00  0.00    +0.003 A 
ATOM      5  C   UNL A   1      -8.937 -10.600  18.027  0.00  0.00    +0.042 A 
ATOM      6  C   UNL A   1     -10.157 -10.115  18.066  0.00  0.00    +0.196 A 
ATOM      7  O   UNL A   1     -11.003 -10.384  17.035  0.00  0.00    -0.287 OA
ENDROOT
TORSDOF 0
ENDMDL
ENDMDL
