MODEL 2227
MODEL 1
REMARK VINA RESULT:    -6.626      0.000      0.000
REMARK INTER + INTRA:          -7.529
REMARK INTER:                  -7.401
REMARK INTRA:                  -0.128
REMARK UNBOUND:                -0.128
REMARK  Name = No_2227-gen_results/8p0m/2024-11-27-11-27-31/
REMARK  2 active torsions:
REMARK  status: ('A' for Active; 'I' for Inactive)
REMARK    1  A    between atoms: C_2  and  C_14
REMARK    2  A    between atoms: C_9  and  C_11
REMARK                            x       y       z     vdW  Elec       q    Type
REMARK                         _______ _______ _______ _____ _____    ______ ____
ROOT
ATOM      1  C   UNL A   1     -30.974  -9.645  29.367  0.00  0.00    +0.007 A 
ATOM      2  C   UNL A   1     -31.013 -10.135  28.435  0.00  0.00    +0.080 A 
ATOM      3  C   UNL A   1     -29.983 -10.212  30.359  0.00  0.00    +0.000 A 
ATOM      4  C   UNL A   1     -29.839  -9.822  31.739  0.00  0.00    +0.000 A 
ATOM      5  C   UNL A   1     -30.134 -11.137  27.817  0.00  0.00    +0.007 A 
ATOM      6  C   UNL A   1     -29.185 -11.684  28.653  0.00  0.00    +0.000 A 
ATOM      7  C   UNL A   1     -29.048 -11.226  29.939  0.00  0.00    +0.000 A 
ATOM      8  C   UNL A   1     -29.191 -10.662  32.662  0.00  0.00    +0.005 A 
ATOM      9  C   UNL A   1     -28.250 -11.602  32.175  0.00  0.00    +0.057 A 
ATOM     10  C   UNL A   1     -28.239 -11.948  30.892  0.00  0.00    +0.005 A 
ENDROOT
BRANCH   9  11
ATOM     11  C   UNL A   1     -27.435 -12.332  33.188  0.00  0.00    +0.284 C 
ATOM     12  N   UNL A   1     -27.579 -12.256  34.467  0.00  0.00    -0.084 NA
ATOM     13  O   UNL A   1     -26.435 -12.980  32.727  0.00  0.00    -0.267 OA
ENDBRANCH   9  11
BRANCH   2  14
ATOM     14  C   UNL A   1     -31.993  -9.514  27.336  0.00  0.00    +0.388 C 
ATOM     15  O   UNL A   1     -31.628  -8.368  26.754  0.00  0.00    -0.241 OA
ATOM     16  O   UNL A   1     -32.728 -10.267  26.730  0.00  0.00    -0.241 OA
ENDBRANCH   2  14
TORSDOF 2
ENDMDL
ENDMDL
