MODEL 2228
MODEL 1
REMARK VINA RESULT:    -6.022      0.000      0.000
REMARK INTER + INTRA:          -6.567
REMARK INTER:                  -6.374
REMARK INTRA:                  -0.193
REMARK UNBOUND:                -0.193
REMARK  Name = No_2228-gen_results/8p0m/2024-11-27-11-27-31/
REMARK  1 active torsions:
REMARK  status: ('A' for Active; 'I' for Inactive)
REMARK    1  A    between atoms: C_4  and  C_11
REMARK                            x       y       z     vdW  Elec       q    Type
REMARK                         _______ _______ _______ _____ _____    ______ ____
ROOT
ATOM      1  C   UNL A   1     -25.449  -1.321  28.306  0.00  0.00    -0.000 A 
ATOM      2  C   UNL A   1     -25.000  -0.397  27.668  0.00  0.00    -0.000 A 
ATOM      3  C   UNL A   1     -23.683   0.017  27.832  0.00  0.00    +0.004 A 
ATOM      4  C   UNL A   1     -23.018   1.143  27.116  0.00  0.00    +0.071 A 
ATOM      5  C   UNL A   1     -21.658   1.569  27.313  0.00  0.00    +0.004 A 
ATOM      6  C   UNL A   1     -24.667  -1.906  29.406  0.00  0.00    -0.000 A 
ATOM      7  C   UNL A   1     -23.339  -1.605  29.585  0.00  0.00    -0.000 A 
ATOM      8  C   UNL A   1     -22.767  -0.571  28.825  0.00  0.00    -0.000 A 
ATOM      9  C   UNL A   1     -20.930   0.718  28.221  0.00  0.00    -0.000 A 
ATOM     10  C   UNL A   1     -21.426  -0.227  28.957  0.00  0.00    -0.000 A 
ENDROOT
BRANCH   4  11
ATOM     11  C   UNL A   1     -23.760   1.915  26.080  0.00  0.00    +0.419 C 
ATOM     12  F   UNL A   1     -24.705   2.471  26.543  0.00  0.00    -0.166 F 
ATOM     13  F   UNL A   1     -24.105   1.046  25.123  0.00  0.00    -0.166 F 
ATOM     14  F   UNL A   1     -22.963   2.872  25.521  0.00  0.00    -0.166 F 
ENDBRANCH   4  11
TORSDOF 1
ENDMDL
ENDMDL
