REMARK  Name = No_2229-gen_results/8p0m/2024-11-27-11-27-31/
REMARK  6 active torsions:
REMARK  status: ('A' for Active; 'I' for Inactive)
REMARK    1  A    between atoms: N_1  and  C_2
REMARK    2  A    between atoms: N_1  and  C_8
REMARK    3  A    between atoms: C_3  and  C_20
REMARK    4  A    between atoms: C_5  and  C_18
REMARK    5  A    between atoms: C_13  and  C_21
REMARK    6  A    between atoms: N_22  and  C_23
REMARK                            x       y       z     vdW  Elec       q    Type
REMARK                         _______ _______ _______ _____ _____    ______ ____
ROOT
ATOM      1  C   UNL A   1     -26.966  -0.472  28.771  0.00  0.00    +0.074 A 
ATOM      2  C   UNL A   1     -25.929  -1.020  29.506  0.00  0.00    +0.057 A 
ATOM      3  C   UNL A   1     -24.584  -0.444  29.660  0.00  0.00    +0.003 A 
ATOM      4  C   UNL A   1     -24.361   0.779  28.969  0.00  0.00    +0.011 A 
ATOM      5  C   UNL A   1     -25.424   1.303  28.183  0.00  0.00    -0.000 A 
ATOM      6  C   UNL A   1     -26.640   0.711  28.078  0.00  0.00    +0.015 A 
ATOM      7  C   UNL A   1     -27.629   1.322  27.231  0.00  0.00    +0.001 A 
ATOM      8  C   UNL A   1     -27.412   2.353  26.597  0.00  0.00    +0.000 A 
ATOM      9  C   UNL A   1     -26.084   2.946  26.578  0.00  0.00    -0.000 A 
ATOM     10  C   UNL A   1     -25.064   2.478  27.403  0.00  0.00    -0.000 A 
ENDROOT
BRANCH   4  11
ATOM     11  C   UNL A   1     -23.017   1.367  28.962  0.00  0.00    +0.209 C 
ATOM     12  O   UNL A   1     -22.077   0.730  28.428  0.00  0.00    -0.215 OA
ENDBRANCH   4  11
BRANCH   2  13
ATOM     13  C   UNL A   1     -26.056  -2.275  30.315  0.00  0.00    +0.235 C 
ATOM     14  O   UNL A   1     -25.407  -3.267  29.807  0.00  0.00    -0.283 OA
ENDBRANCH   2  13
BRANCH   1  15
ATOM     15  N   UNL A   1     -28.054  -1.050  28.725  0.00  0.00    -0.212 NA
BRANCH  15  16
ATOM     16  C   UNL A   1     -29.000  -0.622  29.685  0.00  0.00    +0.071 A 
ATOM     17  C   UNL A   1     -30.055  -0.746  29.787  0.00  0.00    +0.017 A 
ATOM     18  C   UNL A   1     -30.946  -0.291  30.841  0.00  0.00    +0.002 A 
ATOM     19  C   UNL A   1     -30.315   0.387  31.885  0.00  0.00    +0.005 A 
ATOM     20  C   UNL A   1     -28.316   0.108  30.924  0.00  0.00    +0.021 A 
ATOM     21  C   UNL A   1     -29.038   0.513  31.940  0.00  0.00    +0.057 A 
BRANCH  21  22
ATOM     22  C   UNL A   1     -28.352   1.234  33.065  0.00  0.00    +0.269 C 
ATOM     23  N   UNL A   1     -27.622   1.925  33.147  0.00  0.00    -0.173 NA
ATOM     24  O   UNL A   1     -28.706   0.582  34.240  0.00  0.00    -0.268 OA
BRANCH  23  25
ATOM     25  C   UNL A   1     -27.127   2.605  32.181  0.00  0.00    +0.101 C 
ATOM     26  C   UNL A   1     -25.962   3.423  32.377  0.00  0.00    +0.086 C 
ATOM     27 CL   UNL A   1     -25.831   5.025  32.347  0.00  0.00    -0.080 Cl
ENDBRANCH  23  25
ENDBRANCH  21  22
ENDBRANCH  15  16
ENDBRANCH   1  15
TORSDOF 6
