MODEL 2229
MODEL 1
REMARK VINA RESULT:    -7.560      0.000      0.000
REMARK INTER + INTRA:         -10.793
REMARK INTER:                 -10.212
REMARK INTRA:                  -0.581
REMARK UNBOUND:                -0.581
REMARK  Name = No_2229-gen_results/8p0m/2024-11-27-11-27-31/
REMARK  6 active torsions:
REMARK  status: ('A' for Active; 'I' for Inactive)
REMARK    1  A    between atoms: N_1  and  C_2
REMARK    2  A    between atoms: N_1  and  C_8
REMARK    3  A    between atoms: C_3  and  C_20
REMARK    4  A    between atoms: C_5  and  C_18
REMARK    5  A    between atoms: C_13  and  C_21
REMARK    6  A    between atoms: N_22  and  C_23
REMARK                            x       y       z     vdW  Elec       q    Type
REMARK                         _______ _______ _______ _____ _____    ______ ____
ROOT
ATOM      1  C   UNL A   1     -23.691  -0.864  30.016  0.00  0.00    +0.074 A 
ATOM      2  C   UNL A   1     -24.370   0.110  30.728  0.00  0.00    +0.057 A 
ATOM      3  C   UNL A   1     -25.708  -0.033  31.323  0.00  0.00    +0.003 A 
ATOM      4  C   UNL A   1     -26.335  -1.293  31.117  0.00  0.00    +0.011 A 
ATOM      5  C   UNL A   1     -25.641  -2.265  30.345  0.00  0.00    -0.000 A 
ATOM      6  C   UNL A   1     -24.409  -2.060  29.816  0.00  0.00    +0.015 A 
ATOM      7  C   UNL A   1     -23.818  -3.109  29.030  0.00  0.00    +0.001 A 
ATOM      8  C   UNL A   1     -24.388  -4.177  28.815  0.00  0.00    +0.000 A 
ATOM      9  C   UNL A   1     -25.760  -4.386  29.251  0.00  0.00    -0.000 A 
ATOM     10  C   UNL A   1     -26.413  -3.467  30.069  0.00  0.00    -0.000 A 
ENDROOT
BRANCH   4  11
ATOM     11  C   UNL A   1     -27.718  -1.490  31.566  0.00  0.00    +0.209 C 
ATOM     12  O   UNL A   1     -28.641  -0.870  30.984  0.00  0.00    -0.215 OA
ENDBRANCH   4  11
BRANCH   2  13
ATOM     13  C   UNL A   1     -23.795   1.455  31.052  0.00  0.00    +0.235 C 
ATOM     14  O   UNL A   1     -24.434   2.422  30.486  0.00  0.00    -0.283 OA
ENDBRANCH   2  13
BRANCH   1  15
ATOM     15  N   UNL A   1     -22.566  -0.624  29.572  0.00  0.00    -0.212 NA
BRANCH  15  16
ATOM     16  C   UNL A   1     -22.530   0.301  28.503  0.00  0.00    +0.071 A 
ATOM     17  C   UNL A   1     -21.782   0.961  28.124  0.00  0.00    +0.017 A 
ATOM     18  C   UNL A   1     -21.829   1.860  26.983  0.00  0.00    +0.002 A 
ATOM     19  C   UNL A   1     -23.026   1.831  26.266  0.00  0.00    +0.005 A 
ATOM     20  C   UNL A   1     -23.857   0.260  27.623  0.00  0.00    +0.021 A 
ATOM     21  C   UNL A   1     -23.968   1.005  26.551  0.00  0.00    +0.057 A 
BRANCH  21  22
ATOM     22  C   UNL A   1     -25.256   0.962  25.778  0.00  0.00    +0.269 C 
ATOM     23  N   UNL A   1     -26.177   1.359  25.879  0.00  0.00    -0.173 NA
ATOM     24  O   UNL A   1     -25.133  -0.057  24.842  0.00  0.00    -0.268 OA
BRANCH  23  25
ATOM     25  C   UNL A   1     -26.507   2.276  26.710  0.00  0.00    +0.101 C 
ATOM     26  C   UNL A   1     -26.257   3.661  26.417  0.00  0.00    +0.086 C 
ATOM     27 CL   UNL A   1     -25.233   4.678  27.124  0.00  0.00    -0.080 Cl
ENDBRANCH  23  25
ENDBRANCH  21  22
ENDBRANCH  15  16
ENDBRANCH   1  15
TORSDOF 6
ENDMDL
ENDMDL
