MODEL 222
MODEL 1
REMARK VINA RESULT:    -5.877      0.000      0.000
REMARK INTER + INTRA:          -7.122
REMARK INTER:                  -6.907
REMARK INTRA:                  -0.215
REMARK UNBOUND:                -0.215
REMARK  Name = No_222-gen_results/8p0m/2024-11-27-11-27-31/
REMARK  3 active torsions:
REMARK  status: ('A' for Active; 'I' for Inactive)
REMARK    1  A    between atoms: C_3  and  C_10
REMARK    2  A    between atoms: C_5  and  C_6
REMARK    3  A    between atoms: C_11  and  C_12
REMARK                            x       y       z     vdW  Elec       q    Type
REMARK                         _______ _______ _______ _____ _____    ______ ____
ROOT
ATOM      1  C   UNL A   1     -29.696  -9.717  32.297  0.00  0.00    +0.000 A 
ATOM      2  C   UNL A   1     -29.939 -10.005  31.149  0.00  0.00    -0.000 A 
ATOM      3  C   UNL A   1     -29.306 -11.002  30.426  0.00  0.00    -0.000 A 
ATOM      4  C   UNL A   1     -28.309 -11.763  31.105  0.00  0.00    +0.007 A 
ATOM      5  C   UNL A   1     -28.171 -11.530  32.421  0.00  0.00    +0.080 A 
ATOM      6  C   UNL A   1     -28.815 -10.530  33.019  0.00  0.00    +0.007 A 
ENDROOT
BRANCH   5   7
ATOM      7  C   UNL A   1     -27.235 -12.354  33.100  0.00  0.00    +0.388 C 
ATOM      8  O   UNL A   1     -26.385 -12.865  32.536  0.00  0.00    -0.241 OA
ATOM      9  O   UNL A   1     -27.160 -12.334  34.407  0.00  0.00    -0.241 OA
ENDBRANCH   5   7
BRANCH   3  10
ATOM     10  C   UNL A   1     -29.547 -11.174  28.923  0.00  0.00    -0.003 C 
ATOM     11  C   UNL A   1     -29.089 -12.270  28.311  0.00  0.00    -0.006 C 
BRANCH  11  12
ATOM     12  C   UNL A   1     -29.272 -12.353  26.843  0.00  0.00    +0.135 C 
ATOM     13  N   UNL A   1     -29.742 -11.318  26.133  0.00  0.00    -0.126 NA
ENDBRANCH  11  12
ENDBRANCH   3  10
TORSDOF 3
ENDMDL
ENDMDL
