MODEL 2231
MODEL 1
REMARK VINA RESULT:    -6.624      0.000      0.000
REMARK INTER + INTRA:          -7.324
REMARK INTER:                  -7.011
REMARK INTRA:                  -0.313
REMARK UNBOUND:                -0.313
REMARK  Name = No_2231-gen_results/8p0m/2024-11-27-11-27-31/
REMARK  1 active torsions:
REMARK  status: ('A' for Active; 'I' for Inactive)
REMARK    1  A    between atoms: C_3  and  C_8
REMARK                            x       y       z     vdW  Elec       q    Type
REMARK                         _______ _______ _______ _____ _____    ______ ____
ROOT
ATOM      1  C   UNL A   1     -24.240  -4.889  28.569  0.00  0.00    +0.003 A 
ATOM      2  C   UNL A   1     -23.842  -3.749  28.623  0.00  0.00    +0.000 A 
ATOM      3  C   UNL A   1     -24.562  -2.676  29.120  0.00  0.00    +0.003 A 
ATOM      4  C   UNL A   1     -25.863  -2.950  29.634  0.00  0.00    +0.042 A 
ATOM      5  C   UNL A   1     -26.218  -4.243  29.709  0.00  0.00    +0.196 A 
ATOM      6  C   UNL A   1     -25.453  -5.195  29.255  0.00  0.00    +0.042 A 
ATOM      7  O   UNL A   1     -27.450  -4.484  30.254  0.00  0.00    -0.287 OA
ENDROOT
BRANCH   3   8
ATOM      8  C   UNL A   1     -24.072  -1.242  29.021  0.00  0.00    +0.000 A 
ATOM      9  C   UNL A   1     -22.636  -1.077  29.225  0.00  0.00    +0.000 A 
ATOM     10  C   UNL A   1     -22.094   0.119  28.672  0.00  0.00    +0.000 A 
ATOM     11  C   UNL A   1     -22.909   1.163  28.270  0.00  0.00    +0.000 A 
ATOM     12  C   UNL A   1     -24.294  -0.384  27.764  0.00  0.00    +0.000 A 
ATOM     13  C   UNL A   1     -23.992   0.736  27.504  0.00  0.00    +0.000 A 
ENDBRANCH   3   8
TORSDOF 1
ENDMDL
ENDMDL
