REMARK  Name = outputs/IAG933/test6/raw/output_2232_IAG933_linker_design_.xyz
REMARK  12 active torsions:
REMARK  status: ('A' for Active; 'I' for Inactive)
REMARK    1  A    between atoms: C_1  and  C_2
REMARK    2  A    between atoms: C_1  and  C_8
REMARK    3  A    between atoms: C_9  and  C_30
REMARK    4  A    between atoms: C_13  and  C_34
REMARK    5  A    between atoms: C_14  and  C_15
REMARK    6  A    between atoms: C_21  and  O_22
REMARK    7  A    between atoms: O_22  and  C_23
REMARK    8  A    between atoms: C_23  and  C_24
REMARK    9  A    between atoms: C_30  and  N_31
REMARK   10  A    between atoms: C_30  and  C_40
REMARK   11  A    between atoms: N_31  and  C_35
REMARK   12  A    between atoms: C_32  and  C_40
REMARK                            x       y       z     vdW  Elec       q    Type
REMARK                         _______ _______ _______ _____ _____    ______ ____
ROOT
ATOM      1  C   UNL A   1     -25.504   1.853  31.018  0.00  0.00    +0.110 C 
ENDROOT
BRANCH   1   3
ATOM      2  C   UNL A   1     -25.387  -0.679  31.571  0.00  0.00    +0.079 C 
ATOM      3  C   UNL A   1     -25.189   0.773  32.028  0.00  0.00    +0.037 C 
ATOM      4  C   UNL A   1     -25.336   0.684  33.544  0.00  0.00    +0.022 C 
ATOM      5  C   UNL A   1     -24.829  -0.715  33.905  0.00  0.00    +0.089 C 
ATOM      6  N   UNL A   1     -24.758  -1.481  32.646  0.00  0.00    -0.219 NA
BRANCH   2   7
ATOM      7  C   UNL A   1     -24.855  -1.012  30.143  0.00  0.00    +0.044 C 
BRANCH   7   8
ATOM      8  C   UNL A   1     -24.973  -2.505  29.788  0.00  0.00    -0.021 C 
ATOM      9  C   UNL A   1     -23.906  -3.173  29.146  0.00  0.00    -0.004 C 
ATOM     10  C   UNL A   1     -23.989  -4.549  28.853  0.00  0.00    -0.000 C 
ATOM     11  C   UNL A   1     -25.137  -5.280  29.205  0.00  0.00    -0.000 C 
ATOM     12  C   UNL A   1     -26.232  -4.611  29.784  0.00  0.00    -0.000 C 
ATOM     13  C   UNL A   1     -26.155  -3.232  30.065  0.00  0.00    -0.004 C 
ENDBRANCH   7   8
ENDBRANCH   2   7
ENDBRANCH   1   3
BRANCH   1  15
ATOM     14  O   UNL A   1     -25.316   3.582  31.904  0.00  0.00    -0.215 OA
ATOM     15  C   UNL A   1     -26.432   2.975  31.373  0.00  0.00    +0.203 C 
BRANCH  15  18
ATOM     16  N   UNL A   1     -28.857   2.819  31.859  0.00  0.00    -0.307 N 
ATOM     17  C   UNL A   1     -28.010   1.715  29.811  0.00  0.00    -0.013 C 
ATOM     18  C   UNL A   1     -27.785   2.485  31.076  0.00  0.00    +0.052 C 
ATOM     19  C   UNL A   1     -30.570   2.106  30.209  0.00  0.00    +0.026 C 
ATOM     20  C   UNL A   1     -29.473   1.320  29.526  0.00  0.00    +0.029 C 
ATOM     21  C   UNL A   1     -30.165   2.201  31.651  0.00  0.00    +0.091 C 
ATOM     22  C   UNL A   1     -28.397   2.838  33.238  0.00  0.00    +0.112 C 
ENDBRANCH  15  18
ENDBRANCH   1  15
BRANCH   1  23
ATOM     23  N   UNL A   1     -25.031   1.506  29.579  0.00  0.00    -0.217 NA
BRANCH  23  25
ATOM     24  C   UNL A   1     -24.435   1.384  27.059  0.00  0.00    +0.041 C 
ATOM     25  C   UNL A   1     -23.891   1.586  28.570  0.00  0.00    +0.077 C 
ATOM     26  C   UNL A   1     -23.238   1.757  26.133  0.00  0.00    +0.006 C 
ATOM     27  C   UNL A   1     -22.547   1.288  28.500  0.00  0.00    +0.018 C 
ATOM     28  C   UNL A   1     -22.088   1.885  27.184  0.00  0.00    +0.002 C 
BRANCH  24  29
ATOM     29  C   UNL A   1     -25.688   1.614  26.461  0.00  0.00    +0.017 C 
ATOM     30  C   UNL A   1     -26.250   2.920  26.395  0.00  0.00    +0.073 C 
ATOM     31  C   UNL A   1     -27.438   3.091  25.645  0.00  0.00    +0.106 C 
ATOM     32  N   UNL A   1     -28.075   2.089  25.003  0.00  0.00    -0.208 NA
ATOM     33  C   UNL A   1     -27.543   0.849  25.079  0.00  0.00    +0.253 C 
ATOM     34  C   UNL A   1     -26.354   0.576  25.777  0.00  0.00    +0.189 C 
ATOM     35  F   UNL A   1     -25.860  -0.681  25.795  0.00  0.00    -0.200 F 
BRANCH  30  36
ATOM     36  C   UNL A   1     -25.642   4.093  27.123  0.00  0.00    +0.266 C 
ATOM     37  N   UNL A   1     -25.614   5.252  26.449  0.00  0.00    -0.200 NA
ATOM     38  C   UNL A   1     -25.026   6.479  26.963  0.00  0.00    +0.139 C 
ATOM     39  O   UNL A   1     -25.143   3.966  28.243  0.00  0.00    -0.268 OA
ENDBRANCH  30  36
BRANCH  33  40
ATOM     40  O   UNL A   1     -28.193  -0.208  24.477  0.00  0.00    -0.456 OA
BRANCH  40  41
ATOM     41  C   UNL A   1     -29.460   0.005  23.866  0.00  0.00    +0.243 C 
BRANCH  41  42
ATOM     42  C   UNL A   1     -30.065  -1.377  23.573  0.00  0.00    +0.229 C 
ATOM     43  O   UNL A   1     -30.729  -1.878  24.721  0.00  0.00    -0.216 OA
ENDBRANCH  41  42
ENDBRANCH  40  41
ENDBRANCH  33  40
ENDBRANCH  24  29
ENDBRANCH  23  25
ENDBRANCH   1  23
TORSDOF 12
