MODEL 2232
MODEL 1
REMARK VINA RESULT:    -8.295      0.000      0.000
REMARK INTER + INTRA:         -17.675
REMARK INTER:                 -13.145
REMARK INTRA:                  -4.530
REMARK UNBOUND:                -4.530
REMARK  Name = No_2232-gen_results/8p0m/2024-11-27-11-27-31/
REMARK  10 active torsions:
REMARK  status: ('A' for Active; 'I' for Inactive)
REMARK    1  A    between atoms: C_3  and  C_7
REMARK    2  A    between atoms: C_7  and  C_8
REMARK    3  A    between atoms: C_7  and  C_9
REMARK    4  A    between atoms: C_9  and  C_10
REMARK    5  A    between atoms: C_14  and  C_24
REMARK    6  A    between atoms: C_17  and  C_18
REMARK    7  A    between atoms: C_18  and  C_19
REMARK    8  A    between atoms: C_24  and  C_25
REMARK    9  A    between atoms: C_24  and  C_31
REMARK   10  A    between atoms: C_32  and  C_33
REMARK                            x       y       z     vdW  Elec       q    Type
REMARK                         _______ _______ _______ _____ _____    ______ ____
ROOT
ATOM      1  C   UNL A   1     -23.329   1.159  27.181  0.00  0.00    -0.022 A 
ATOM      2  C   UNL A   1     -21.948   1.209  27.477  0.00  0.00    -0.004 A 
ATOM      3  C   UNL A   1     -21.446   0.432  28.545  0.00  0.00    -0.001 A 
ATOM      4  C   UNL A   1     -22.313  -0.264  29.331  0.00  0.00    -0.004 A 
ATOM      5  C   UNL A   1     -23.690  -0.278  29.043  0.00  0.00    -0.015 A 
ATOM      6  C   UNL A   1     -24.192   0.375  28.007  0.00  0.00    -0.008 A 
ENDROOT
BRANCH   1   7
ATOM      7  C   UNL A   1     -23.733   1.965  26.170  0.00  0.00    +0.030 C 
ATOM      8  C   UNL A   1     -22.855   2.401  25.161  0.00  0.00    +0.005 C 
BRANCH   7   9
ATOM      9  C   UNL A   1     -25.034   2.462  26.111  0.00  0.00    +0.048 C 
BRANCH   9  12
ATOM     10  C   UNL A   1     -26.133   0.421  25.067  0.00  0.00    -0.004 A 
ATOM     11  C   UNL A   1     -26.894  -0.012  24.482  0.00  0.00    -0.000 A 
ATOM     12  C   UNL A   1     -26.159   1.821  25.251  0.00  0.00    -0.018 A 
ATOM     13  C   UNL A   1     -27.024   2.490  24.893  0.00  0.00    -0.004 A 
ATOM     14  C   UNL A   1     -28.078   0.620  23.898  0.00  0.00    -0.000 A 
ATOM     15  C   UNL A   1     -28.119   1.955  24.125  0.00  0.00    -0.000 A 
ENDBRANCH   9  12
BRANCH   9  16
ATOM     16  C   UNL A   1     -25.341   3.723  26.717  0.00  0.00    -0.026 C 
ATOM     17  C   UNL A   1     -26.318   3.764  27.714  0.00  0.00    -0.026 C 
BRANCH  17  18
ATOM     18  C   UNL A   1     -25.830   3.669  28.983  0.00  0.00    +0.050 C 
BRANCH  18  19
ATOM     19  C   UNL A   1     -26.611   3.060  30.023  0.00  0.00    -0.012 C 
ATOM     20  C   UNL A   1     -26.859   3.810  31.129  0.00  0.00    +0.139 C 
ATOM     21  C   UNL A   1     -27.138   1.741  29.794  0.00  0.00    +0.029 C 
ATOM     22  N   UNL A   1     -27.241   3.778  32.067  0.00  0.00    -0.116 NA
ATOM     23 CL   UNL A   1     -26.055   5.519  30.975  0.00  0.00    -0.063 Cl
ENDBRANCH  18  19
ENDBRANCH  17  18
ENDBRANCH   9  16
ENDBRANCH   7   9
ENDBRANCH   1   7
BRANCH   5  24
ATOM     24  C   UNL A   1     -24.526  -1.193  29.936  0.00  0.00    +0.063 C 
BRANCH  24  25
ATOM     25  C   UNL A   1     -24.641  -2.505  29.568  0.00  0.00    -0.015 A 
ATOM     26  C   UNL A   1     -23.799  -3.205  28.940  0.00  0.00    -0.004 A 
ATOM     27  C   UNL A   1     -24.020  -4.604  28.558  0.00  0.00    -0.000 A 
ATOM     28  C   UNL A   1     -25.212  -5.158  28.974  0.00  0.00    -0.000 A 
ATOM     29  C   UNL A   1     -25.922  -3.181  29.984  0.00  0.00    -0.004 A 
ATOM     30  C   UNL A   1     -26.148  -4.503  29.682  0.00  0.00    -0.000 A 
ENDBRANCH  24  25
BRANCH  24  31
ATOM     31  C   UNL A   1     -24.318  -0.841  31.399  0.00  0.00    -0.036 C 
ATOM     32  C   UNL A   1     -25.139  -0.224  31.977  0.00  0.00    -0.008 C 
ATOM     33  C   UNL A   1     -23.378  -1.544  32.277  0.00  0.00    +0.027 C 
BRANCH  32  34
ATOM     34  C   UNL A   1     -25.149  -0.020  33.406  0.00  0.00    -0.001 C 
ATOM     35  C   UNL A   1     -26.038   0.954  33.850  0.00  0.00    -0.000 C 
ENDBRANCH  32  34
ENDBRANCH  24  31
ENDBRANCH   5  24
TORSDOF 10
ENDMDL
ENDMDL
