MODEL 2233
MODEL 1
REMARK VINA RESULT:    -6.030      0.000      0.000
REMARK INTER + INTRA:          -9.402
REMARK INTER:                  -7.792
REMARK INTRA:                  -1.610
REMARK UNBOUND:                -1.610
REMARK  Name = No_2233-gen_results/8p0m/2024-11-27-11-27-31/
REMARK  6 active torsions:
REMARK  status: ('A' for Active; 'I' for Inactive)
REMARK    1  A    between atoms: C_3  and  C_4
REMARK    2  A    between atoms: C_4  and  N_8
REMARK    3  A    between atoms: C_4  and  O_17
REMARK    4  A    between atoms: N_8  and  C_9
REMARK    5  A    between atoms: C_9  and  C_10
REMARK    6  A    between atoms: C_10  and  C_11
REMARK                            x       y       z     vdW  Elec       q    Type
REMARK                         _______ _______ _______ _____ _____    ______ ____
ROOT
ATOM      1  N   UNL A   1     -30.268 -13.713  13.085  0.00  0.00    -0.186 NA
ENDROOT
BRANCH   1   2
ATOM      2  C   UNL A   1     -29.689 -14.670  12.454  0.00  0.00    +0.233 C 
BRANCH   2   5
ATOM      3  C   UNL A   1     -31.742 -15.022  10.907  0.00  0.00    -0.001 A 
ATOM      4  C   UNL A   1     -32.000 -15.290   9.921  0.00  0.00    -0.000 A 
ATOM      5  C   UNL A   1     -30.307 -15.096  11.178  0.00  0.00    +0.023 A 
ATOM      6  C   UNL A   1     -31.259 -15.724   8.745  0.00  0.00    -0.000 A 
ATOM      7  C   UNL A   1     -29.900 -15.819   8.965  0.00  0.00    -0.000 A 
ATOM      8  C   UNL A   1     -29.391 -15.461  10.158  0.00  0.00    -0.001 A 
ENDBRANCH   2   5
BRANCH   2   9
ATOM      9  O   UNL A   1     -29.062 -15.581  12.975  0.00  0.00    -0.244 OA
ATOM     10 CL   UNL A   1     -29.728 -15.439  13.150  0.00  0.00    +0.064 Cl
ENDBRANCH   2   9
ENDBRANCH   1   2
BRANCH   1  11
ATOM     11  C   UNL A   1     -30.053 -12.446  12.778  0.00  0.00    +0.096 C 
BRANCH  11  12
ATOM     12  C   UNL A   1     -30.717 -11.645  12.280  0.00  0.00    +0.048 C 
BRANCH  12  13
ATOM     13  C   UNL A   1     -30.752 -11.316  10.953  0.00  0.00    +0.007 A 
ATOM     14  C   UNL A   1     -29.836 -11.840   9.962  0.00  0.00    -0.002 A 
ATOM     15  C   UNL A   1     -30.224 -11.861   8.621  0.00  0.00    -0.000 A 
ATOM     16  C   UNL A   1     -31.456 -11.307   8.276  0.00  0.00    +0.002 A 
ATOM     17  C   UNL A   1     -32.341 -10.722   9.198  0.00  0.00    +0.029 A 
ATOM     18  C   UNL A   1     -32.033 -10.919  10.532  0.00  0.00    +0.136 A 
ATOM     19  F   UNL A   1     -32.809 -12.094  10.617  0.00  0.00    -0.204 F 
ENDBRANCH  12  13
ENDBRANCH  11  12
ENDBRANCH   1  11
TORSDOF 6
ENDMDL
ENDMDL
