MODEL 2234
MODEL 1
REMARK VINA RESULT:    -5.066      0.000      0.000
REMARK INTER + INTRA:          -6.730
REMARK INTER:                  -6.250
REMARK INTRA:                  -0.480
REMARK UNBOUND:                -0.480
REMARK  Name = No_2234-gen_results/8p0m/2024-11-27-11-27-31/
REMARK  4 active torsions:
REMARK  status: ('A' for Active; 'I' for Inactive)
REMARK    1  A    between atoms: C_5  and  C_7
REMARK    2  A    between atoms: C_7  and  C_9
REMARK    3  A    between atoms: C_9  and  N_11
REMARK    4  A    between atoms: N_11  and  C_12
REMARK                            x       y       z     vdW  Elec       q    Type
REMARK                         _______ _______ _______ _____ _____    ______ ____
ROOT
ATOM      1  C   UNL A   1     -29.876 -16.075   8.705  0.00  0.00    +0.011 A 
ATOM      2  C   UNL A   1     -31.029 -15.853   8.419  0.00  0.00    +0.058 A 
ATOM      3  C   UNL A   1     -31.972 -15.417   9.330  0.00  0.00    +0.011 A 
ATOM      4  C   UNL A   1     -31.548 -15.181  10.667  0.00  0.00    -0.002 A 
ATOM      5  C   UNL A   1     -30.218 -15.279  10.896  0.00  0.00    -0.003 A 
ATOM      6  C   UNL A   1     -29.381 -15.665   9.952  0.00  0.00    -0.002 A 
ATOM      7 CL   UNL A   1     -31.697 -16.276   6.789  0.00  0.00    -0.082 Cl
ENDROOT
BRANCH   5   8
ATOM      8  C   UNL A   1     -29.793 -15.001  12.284  0.00  0.00    +0.136 C 
ATOM      9  N   UNL A   1     -29.005 -15.716  12.909  0.00  0.00    -0.126 NA
BRANCH   8  10
ATOM     10  C   UNL A   1     -30.167 -13.727  12.863  0.00  0.00    +0.136 C 
BRANCH  10  11
ATOM     11  N   UNL A   1     -29.646 -12.644  12.611  0.00  0.00    -0.234 NA
BRANCH  11  12
ATOM     12  C   UNL A   1     -29.583 -11.842  11.974  0.00  0.00    +0.080 C 
ATOM     13  C   UNL A   1     -29.136 -11.676  10.565  0.00  0.00    +0.019 C 
ENDBRANCH  11  12
ENDBRANCH  10  11
ENDBRANCH   8  10
ENDBRANCH   5   8
TORSDOF 4
ENDMDL
ENDMDL
