REMARK  Name = outputs/IAG933/test6/raw/output_2236_IAG933_linker_design_.xyz
REMARK  12 active torsions:
REMARK  status: ('A' for Active; 'I' for Inactive)
REMARK    1  A    between atoms: C_1  and  C_2
REMARK    2  A    between atoms: C_1  and  C_8
REMARK    3  A    between atoms: C_1  and  C_36
REMARK    4  A    between atoms: C_9  and  C_37
REMARK    5  A    between atoms: C_13  and  C_40
REMARK    6  A    between atoms: C_14  and  C_15
REMARK    7  A    between atoms: C_21  and  O_22
REMARK    8  A    between atoms: O_22  and  C_23
REMARK    9  A    between atoms: C_23  and  C_24
REMARK   10  A    between atoms: O_28  and  C_41
REMARK   11  A    between atoms: C_32  and  C_35
REMARK   12  A    between atoms: C_32  and  C_36
REMARK                            x       y       z     vdW  Elec       q    Type
REMARK                         _______ _______ _______ _____ _____    ______ ____
ROOT
ATOM      1  C   UNL A   1     -22.247   1.700  27.177  0.00  0.00    +0.268 A 
ATOM      2  O   UNL A   1     -21.002   1.989  27.050  0.00  0.00    -0.280 OA
ATOM      3  O   UNL A   1     -20.917   1.415  28.322  0.00  0.00    -0.283 OA
ATOM      4  C   UNL A   1     -24.603   1.240  28.473  0.00  0.00    +0.041 C 
ATOM      5  C   UNL A   1     -23.408   1.023  29.154  0.00  0.00    +0.048 C 
ATOM      6  C   UNL A   1     -22.204   1.276  28.437  0.00  0.00    +0.237 A 
ATOM      7  C   UNL A   1     -24.583   1.498  27.117  0.00  0.00    +0.043 C 
ATOM      8  C   UNL A   1     -23.403   1.712  26.529  0.00  0.00    +0.181 C 
ENDROOT
BRANCH   7   9
ATOM      9  C   UNL A   1     -25.688   1.614  26.461  0.00  0.00    +0.041 C 
ATOM     10  C   UNL A   1     -26.250   2.920  26.395  0.00  0.00    +0.077 C 
ATOM     11  C   UNL A   1     -27.438   3.091  25.645  0.00  0.00    +0.107 C 
ATOM     12  N   UNL A   1     -28.075   2.089  25.003  0.00  0.00    -0.208 NA
ATOM     13  C   UNL A   1     -27.543   0.849  25.079  0.00  0.00    +0.253 C 
ATOM     14  C   UNL A   1     -26.354   0.576  25.777  0.00  0.00    +0.193 C 
ATOM     15  F   UNL A   1     -25.860  -0.681  25.795  0.00  0.00    -0.199 F 
BRANCH  10  16
ATOM     16  C   UNL A   1     -25.642   4.093  27.123  0.00  0.00    +0.266 C 
ATOM     17  N   UNL A   1     -25.614   5.252  26.449  0.00  0.00    -0.200 NA
ATOM     18  C   UNL A   1     -25.026   6.479  26.963  0.00  0.00    +0.139 C 
ATOM     19  O   UNL A   1     -25.143   3.966  28.243  0.00  0.00    -0.268 OA
ENDBRANCH  10  16
BRANCH  13  20
ATOM     20  O   UNL A   1     -28.193  -0.208  24.477  0.00  0.00    -0.456 OA
BRANCH  20  21
ATOM     21  C   UNL A   1     -29.460   0.005  23.866  0.00  0.00    +0.243 C 
BRANCH  21  22
ATOM     22  C   UNL A   1     -30.065  -1.377  23.573  0.00  0.00    +0.229 C 
ATOM     23  O   UNL A   1     -30.729  -1.878  24.721  0.00  0.00    -0.216 OA
ENDBRANCH  21  22
ENDBRANCH  20  21
ENDBRANCH  13  20
ENDBRANCH   7   9
BRANCH   8  24
ATOM     24  O   UNL A   1     -23.450   2.138  25.269  0.00  0.00    -0.468 OA
ATOM     25  C   UNL A   1     -22.287   2.610  24.655  0.00  0.00    +0.253 C 
ENDBRANCH   8  24
BRANCH   4  27
ATOM     26  O   UNL A   1     -26.667   1.916  29.586  0.00  0.00    -0.291 OA
ATOM     27  C   UNL A   1     -25.932   1.038  29.064  0.00  0.00    +0.174 C 
BRANCH  27  28
ATOM     28  C   UNL A   1     -26.081  -0.435  29.400  0.00  0.00    +0.075 C 
BRANCH  28  29
ATOM     29  C   UNL A   1     -24.855  -1.012  30.143  0.00  0.00    +0.046 C 
BRANCH  29  30
ATOM     30  C   UNL A   1     -24.973  -2.505  29.788  0.00  0.00    -0.021 C 
ATOM     31  C   UNL A   1     -23.906  -3.173  29.146  0.00  0.00    -0.004 C 
ATOM     32  C   UNL A   1     -23.989  -4.549  28.853  0.00  0.00    -0.000 C 
ATOM     33  C   UNL A   1     -25.137  -5.280  29.205  0.00  0.00    -0.000 C 
ATOM     34  C   UNL A   1     -26.232  -4.611  29.784  0.00  0.00    -0.000 C 
ATOM     35  C   UNL A   1     -26.155  -3.232  30.065  0.00  0.00    -0.004 C 
ENDBRANCH  29  30
BRANCH  29  36
ATOM     36  C   UNL A   1     -25.387  -0.679  31.571  0.00  0.00    +0.080 C 
ATOM     37  C   UNL A   1     -25.189   0.773  32.028  0.00  0.00    +0.051 C 
ATOM     38  C   UNL A   1     -25.336   0.684  33.544  0.00  0.00    +0.023 C 
ATOM     39  C   UNL A   1     -24.829  -0.715  33.905  0.00  0.00    +0.089 C 
ATOM     40  N   UNL A   1     -24.758  -1.481  32.646  0.00  0.00    -0.219 NA
BRANCH  37  41
ATOM     41  C   UNL A   1     -24.964   2.185  31.608  0.00  0.00    +0.183 C 
ATOM     42  O   UNL A   1     -26.088   3.025  31.821  0.00  0.00    -0.220 OA
ENDBRANCH  37  41
ENDBRANCH  29  36
ENDBRANCH  28  29
ENDBRANCH  27  28
ENDBRANCH   4  27
TORSDOF 12
