MODEL 2236
MODEL 1
REMARK VINA RESULT:    -6.324      0.000      0.000
REMARK INTER + INTRA:          -6.946
REMARK INTER:                  -6.694
REMARK INTRA:                  -0.252
REMARK UNBOUND:                -0.252
REMARK  Name = No_2236-gen_results/8p0m/2024-11-27-11-27-31/
REMARK  1 active torsions:
REMARK  status: ('A' for Active; 'I' for Inactive)
REMARK    1  A    between atoms: C_4  and  C_11
REMARK                            x       y       z     vdW  Elec       q    Type
REMARK                         _______ _______ _______ _____ _____    ______ ____
ROOT
ATOM      1  C   UNL A   1     -25.550   0.398  25.810  0.00  0.00    -0.000 A 
ATOM      2  C   UNL A   1     -25.387  -0.470  26.637  0.00  0.00    -0.000 A 
ATOM      3  C   UNL A   1     -24.355  -0.391  27.566  0.00  0.00    -0.000 A 
ATOM      4  C   UNL A   1     -24.045  -1.395  28.624  0.00  0.00    -0.000 A 
ATOM      5  C   UNL A   1     -22.960  -1.305  29.565  0.00  0.00    -0.000 A 
ATOM      6  C   UNL A   1     -22.352  -0.020  29.568  0.00  0.00    -0.000 A 
ATOM      7  C   UNL A   1     -24.539   1.474  25.661  0.00  0.00    +0.000 A 
ATOM      8  C   UNL A   1     -23.545   1.658  26.596  0.00  0.00    -0.000 A 
ATOM      9  C   UNL A   1     -23.364   0.701  27.587  0.00  0.00    -0.000 A 
ATOM     10  C   UNL A   1     -22.411   0.854  28.602  0.00  0.00    -0.000 A 
ENDROOT
BRANCH   4  11
ATOM     11  C   UNL A   1     -24.881  -2.626  28.761  0.00  0.00    -0.005 C 
ATOM     12  C   UNL A   1     -24.219  -3.835  28.840  0.00  0.00    -0.026 C 
ATOM     13  C   UNL A   1     -25.007  -5.005  29.059  0.00  0.00    +0.031 C 
ENDBRANCH   4  11
TORSDOF 1
ENDMDL
ENDMDL
