REMARK  Name = outputs/IAG933/test6/raw/output_2237_IAG933_linker_design_.xyz
REMARK  10 active torsions:
REMARK  status: ('A' for Active; 'I' for Inactive)
REMARK    1  A    between atoms: C_1  and  C_2
REMARK    2  A    between atoms: C_1  and  C_8
REMARK    3  A    between atoms: C_9  and  C_45
REMARK    4  A    between atoms: C_13  and  C_31
REMARK    5  A    between atoms: C_14  and  C_15
REMARK    6  A    between atoms: C_21  and  O_22
REMARK    7  A    between atoms: O_22  and  C_23
REMARK    8  A    between atoms: C_23  and  C_24
REMARK    9  A    between atoms: C_36  and  C_45
REMARK   10  A    between atoms: C_44  and  C_45
REMARK                            x       y       z     vdW  Elec       q    Type
REMARK                         _______ _______ _______ _____ _____    ______ ____
ROOT
ATOM      1  C   UNL A   1     -21.991   0.077  28.858  0.00  0.00    +0.254 C 
ATOM      2  C   UNL A   1     -24.427   1.212  27.090  0.00  0.00    +0.272 C 
ATOM      3  F   UNL A   1     -21.014   1.811  25.786  0.00  0.00    -0.234 F 
ATOM      4  C   UNL A   1     -24.125   1.530  29.831  0.00  0.00    +0.334 C 
ATOM      5  C   UNL A   1     -21.839   0.475  27.587  0.00  0.00    +0.093 C 
ATOM      6  C   UNL A   1     -23.310   1.827  26.200  0.00  0.00    +0.237 C 
ATOM      7  N   UNL A   1     -24.531   1.200  28.591  0.00  0.00    -0.063 NA
ATOM      8  O   UNL A   1     -23.215   1.445  24.783  0.00  0.00    -0.215 OA
ATOM      9  N   UNL A   1     -22.877   0.677  30.171  0.00  0.00    -0.035 NA
ATOM     10  C   UNL A   1     -21.982   1.715  26.720  0.00  0.00    +0.200 C 
ENDROOT
BRANCH   2  11
ATOM     11  C   UNL A   1     -25.688   1.614  26.461  0.00  0.00    +0.067 C 
ATOM     12  C   UNL A   1     -26.250   2.920  26.395  0.00  0.00    +0.077 C 
ATOM     13  C   UNL A   1     -27.438   3.091  25.645  0.00  0.00    +0.106 C 
ATOM     14  N   UNL A   1     -28.075   2.089  25.003  0.00  0.00    -0.208 NA
ATOM     15  C   UNL A   1     -27.543   0.849  25.079  0.00  0.00    +0.253 C 
ATOM     16  C   UNL A   1     -26.354   0.576  25.777  0.00  0.00    +0.193 C 
ATOM     17  F   UNL A   1     -25.860  -0.681  25.795  0.00  0.00    -0.199 F 
BRANCH  12  18
ATOM     18  C   UNL A   1     -25.642   4.093  27.123  0.00  0.00    +0.266 C 
ATOM     19  N   UNL A   1     -25.614   5.252  26.449  0.00  0.00    -0.200 NA
ATOM     20  C   UNL A   1     -25.026   6.479  26.963  0.00  0.00    +0.139 C 
ATOM     21  O   UNL A   1     -25.143   3.966  28.243  0.00  0.00    -0.268 OA
ENDBRANCH  12  18
BRANCH  15  22
ATOM     22  O   UNL A   1     -28.193  -0.208  24.477  0.00  0.00    -0.456 OA
BRANCH  22  23
ATOM     23  C   UNL A   1     -29.460   0.005  23.866  0.00  0.00    +0.243 C 
BRANCH  23  24
ATOM     24  C   UNL A   1     -30.065  -1.377  23.573  0.00  0.00    +0.229 C 
ATOM     25  O   UNL A   1     -30.729  -1.878  24.721  0.00  0.00    -0.216 OA
ENDBRANCH  23  24
ENDBRANCH  22  23
ENDBRANCH  15  22
ENDBRANCH   2  11
BRANCH   4  26
ATOM     26  C   UNL A   1     -25.231   1.791  30.874  0.00  0.00    +0.137 C 
BRANCH  26  33
ATOM     27  C   UNL A   1     -25.038   3.746  32.658  0.00  0.00    +0.049 C 
ATOM     28  C   UNL A   1     -27.240   5.060  31.733  0.00  0.00    +0.144 C 
ATOM     29  C   UNL A   1     -26.851   5.303  33.226  0.00  0.00    +0.051 C 
ATOM     30  C   UNL A   1     -26.018   4.188  33.765  0.00  0.00    +0.097 C 
ATOM     31  O   UNL A   1     -26.593   4.036  30.867  0.00  0.00    -0.355 OA
ATOM     32  N   UNL A   1     -25.327   4.398  34.991  0.00  0.00    -0.133 NA
ATOM     33  C   UNL A   1     -25.827   3.093  31.543  0.00  0.00    +0.128 C 
ENDBRANCH  26  33
BRANCH  26  35
ATOM     34  C   UNL A   1     -25.387  -0.679  31.571  0.00  0.00    +0.078 C 
ATOM     35  C   UNL A   1     -25.189   0.773  32.028  0.00  0.00    +0.032 C 
ATOM     36  C   UNL A   1     -25.336   0.684  33.544  0.00  0.00    +0.021 C 
ATOM     37  C   UNL A   1     -24.829  -0.715  33.905  0.00  0.00    +0.089 C 
ATOM     38  N   UNL A   1     -24.758  -1.481  32.646  0.00  0.00    -0.219 NA
BRANCH  34  39
ATOM     39  C   UNL A   1     -24.855  -1.012  30.143  0.00  0.00    +0.044 C 
BRANCH  39  40
ATOM     40  C   UNL A   1     -24.973  -2.505  29.788  0.00  0.00    -0.021 C 
ATOM     41  C   UNL A   1     -23.906  -3.173  29.146  0.00  0.00    -0.004 C 
ATOM     42  C   UNL A   1     -23.989  -4.549  28.853  0.00  0.00    -0.000 C 
ATOM     43  C   UNL A   1     -25.137  -5.280  29.205  0.00  0.00    -0.000 C 
ATOM     44  C   UNL A   1     -26.232  -4.611  29.784  0.00  0.00    -0.000 C 
ATOM     45  C   UNL A   1     -26.155  -3.232  30.065  0.00  0.00    -0.004 C 
ENDBRANCH  39  40
ENDBRANCH  34  39
ENDBRANCH  26  35
ENDBRANCH   4  26
TORSDOF 10
