MODEL 2238
MODEL 1
REMARK VINA RESULT:    -3.956      0.000      0.000
REMARK INTER + INTRA:          -4.629
REMARK INTER:                  -4.419
REMARK INTRA:                  -0.209
REMARK UNBOUND:                -0.209
REMARK  Name = No_2238-gen_results/8p0m/2024-11-27-11-27-31/
REMARK  2 active torsions:
REMARK  status: ('A' for Active; 'I' for Inactive)
REMARK    1  A    between atoms: C_2  and  C_3
REMARK    2  A    between atoms: C_4  and  C_5
REMARK                            x       y       z     vdW  Elec       q    Type
REMARK                         _______ _______ _______ _____ _____    ______ ____
ROOT
ATOM      1  C   UNL A   1     -25.425  -5.037  29.393  0.00  0.00    -0.000 C 
ATOM      2  C   UNL A   1     -24.268  -4.464  28.733  0.00  0.00    -0.000 C 
ENDROOT
BRANCH   2   3
ATOM      3  C   UNL A   1     -24.342  -3.064  28.553  0.00  0.00    -0.005 C 
ATOM      4  C   UNL A   1     -23.458  -2.244  29.062  0.00  0.00    -0.026 C 
ATOM      5  C   UNL A   1     -23.706  -0.798  28.825  0.00  0.00    +0.031 C 
ENDBRANCH   2   3
BRANCH   1   7
ATOM      6  C   UNL A   1     -27.562  -4.616  30.119  0.00  0.00    -0.000 C 
ATOM      7  C   UNL A   1     -26.490  -4.206  29.738  0.00  0.00    -0.000 C 
ENDBRANCH   1   7
TORSDOF 2
ENDMDL
ENDMDL
