MODEL 2240
MODEL 1
REMARK VINA RESULT:    -4.314      0.000      0.000
REMARK INTER + INTRA:          -4.314
REMARK INTER:                  -4.314
REMARK INTRA:                   0.000
REMARK UNBOUND:                 0.000
REMARK  Name = No_2240-gen_results/8p0m/2024-11-27-11-27-31/
REMARK  0 active torsions:
REMARK  status: ('A' for Active; 'I' for Inactive)
REMARK                            x       y       z     vdW  Elec       q    Type
REMARK                         _______ _______ _______ _____ _____    ______ ____
ROOT
ATOM      1  C   UNL A   1     -23.991  -3.945  28.853  0.00  0.00    +0.011 A 
ATOM      2  C   UNL A   1     -24.264  -2.995  29.218  0.00  0.00    +0.058 A 
ATOM      3  C   UNL A   1     -25.006  -5.044  29.074  0.00  0.00    +0.001 A 
ATOM      4  C   UNL A   1     -26.273  -4.718  29.603  0.00  0.00    +0.000 A 
ATOM      5  C   UNL A   1     -25.502  -2.394  29.763  0.00  0.00    +0.011 A 
ATOM      6  C   UNL A   1     -26.462  -3.374  29.975  0.00  0.00    +0.001 A 
ATOM      7 CL   UNL A   1     -23.045  -1.664  28.945  0.00  0.00    -0.082 Cl
ENDROOT
TORSDOF 0
ENDMDL
ENDMDL
