MODEL 2241
MODEL 1
REMARK VINA RESULT:    -4.807      0.000      0.000
REMARK INTER + INTRA:          -5.879
REMARK INTER:                  -5.650
REMARK INTRA:                  -0.229
REMARK UNBOUND:                -0.229
REMARK  Name = No_2241-gen_results/8p0m/2024-11-27-11-27-31/
REMARK  3 active torsions:
REMARK  status: ('A' for Active; 'I' for Inactive)
REMARK    1  A    between atoms: C_1  and  C_2
REMARK    2  A    between atoms: C_1  and  N_8
REMARK    3  A    between atoms: N_8  and  C_9
REMARK                            x       y       z     vdW  Elec       q    Type
REMARK                         _______ _______ _______ _____ _____    ______ ____
ROOT
ATOM      1  C   UNL A   1     -24.781  -2.472  29.634  0.00  0.00    -0.001 A 
ATOM      2  C   UNL A   1     -25.962  -3.147  29.926  0.00  0.00    -0.003 A 
ATOM      3  C   UNL A   1     -26.223  -4.599  29.708  0.00  0.00    -0.000 A 
ATOM      4  C   UNL A   1     -25.217  -5.312  28.992  0.00  0.00    -0.000 A 
ATOM      5  C   UNL A   1     -24.053  -4.594  28.652  0.00  0.00    -0.000 A 
ATOM      6  C   UNL A   1     -23.854  -3.296  28.924  0.00  0.00    -0.003 A 
ENDROOT
BRANCH   1   7
ATOM      7  C   UNL A   1     -24.667  -1.289  29.859  0.00  0.00    +0.139 C 
BRANCH   7   8
ATOM      8  N   UNL A   1     -23.427  -0.880  30.403  0.00  0.00    -0.232 NA
BRANCH   8   9
ATOM      9  C   UNL A   1     -22.647   0.059  29.915  0.00  0.00    +0.081 C 
ATOM     10  C   UNL A   1     -21.592  -0.308  29.009  0.00  0.00    +0.019 C 
ENDBRANCH   8   9
ENDBRANCH   7   8
ENDBRANCH   1   7
TORSDOF 3
ENDMDL
ENDMDL
