REMARK  Name = outputs/IAG933/test6/raw/output_2242_IAG933_linker_design_.xyz
REMARK  14 active torsions:
REMARK  status: ('A' for Active; 'I' for Inactive)
REMARK    1  A    between atoms: C_1  and  C_2
REMARK    2  A    between atoms: C_1  and  C_8
REMARK    3  A    between atoms: C_9  and  C_37
REMARK    4  A    between atoms: C_13  and  C_36
REMARK    5  A    between atoms: C_14  and  C_15
REMARK    6  A    between atoms: C_21  and  O_22
REMARK    7  A    between atoms: O_22  and  C_23
REMARK    8  A    between atoms: C_23  and  C_24
REMARK    9  A    between atoms: C_36  and  O_40
REMARK   10  A    between atoms: C_36  and  C_41
REMARK   11  A    between atoms: C_37  and  C_38
REMARK   12  A    between atoms: C_37  and  CA_43
REMARK   13  A    between atoms: C_38  and  O_40
REMARK   14  A    between atoms: C_39  and  CA_43
REMARK                            x       y       z     vdW  Elec       q    Type
REMARK                         _______ _______ _______ _____ _____    ______ ____
ROOT
ATOM      1  C   UNL A   1     -24.713   1.596  27.631  0.00  0.00    +0.128 C 
ENDROOT
BRANCH   1   2
ATOM      2  C   UNL A   1     -25.688   1.614  26.461  0.00  0.00    +0.097 C 
ATOM      3  C   UNL A   1     -26.250   2.920  26.395  0.00  0.00    +0.057 C 
ATOM      4  C   UNL A   1     -27.438   3.091  25.645  0.00  0.00    +0.102 C 
ATOM      5  N   UNL A   1     -28.075   2.089  25.003  0.00  0.00    -0.212 NA
ATOM      6  C   UNL A   1     -27.543   0.849  25.079  0.00  0.00    +0.234 C 
ATOM      7  C   UNL A   1     -26.354   0.576  25.777  0.00  0.00    +0.242 C 
ATOM      8  F   UNL A   1     -25.860  -0.681  25.795  0.00  0.00    -0.227 F 
BRANCH   3   9
ATOM      9  C   UNL A   1     -25.642   4.093  27.123  0.00  0.00    +0.263 C 
ATOM     10  N   UNL A   1     -25.614   5.252  26.449  0.00  0.00    -0.200 NA
ATOM     11  C   UNL A   1     -25.026   6.479  26.963  0.00  0.00    +0.139 C 
ATOM     12  O   UNL A   1     -25.143   3.966  28.243  0.00  0.00    -0.269 OA
ENDBRANCH   3   9
BRANCH   6  13
ATOM     13  O   UNL A   1     -28.193  -0.208  24.477  0.00  0.00    -0.459 OA
BRANCH  13  14
ATOM     14  C   UNL A   1     -29.460   0.005  23.866  0.00  0.00    +0.242 C 
BRANCH  14  15
ATOM     15  C   UNL A   1     -30.065  -1.377  23.573  0.00  0.00    +0.229 C 
ATOM     16  O   UNL A   1     -30.729  -1.878  24.721  0.00  0.00    -0.216 OA
ENDBRANCH  14  15
ENDBRANCH  13  14
ENDBRANCH   6  13
ENDBRANCH   1   2
BRANCH   1  23
ATOM     17  F   UNL A   1     -20.617   1.121  26.840  0.00  0.00    -0.201 F 
ATOM     18  O   UNL A   1     -22.768   1.684  29.650  0.00  0.00    -0.217 OA
ATOM     19  C   UNL A   1     -22.353   1.112  28.364  0.00  0.00    +0.218 C 
ATOM     20  C   UNL A   1     -21.583   1.968  27.256  0.00  0.00    +0.309 C 
ATOM     21  O   UNL A   1     -22.560   2.171  26.064  0.00  0.00    -0.325 OA
ATOM     22  C   UNL A   1     -23.273   0.955  26.021  0.00  0.00    +0.150 C 
ATOM     23  C   UNL A   1     -23.526   0.504  27.521  0.00  0.00    +0.093 C 
ENDBRANCH   1  23
BRANCH   1  24
ATOM     24  O   UNL A   1     -25.527   1.128  28.997  0.00  0.00    -0.356 OA
BRANCH  24  25
ATOM     25  C   UNL A   1     -26.645   1.219  29.936  0.00  0.00    +0.144 C 
BRANCH  25  26
ATOM     26  C   UNL A   1     -26.181   1.651  31.317  0.00  0.00    +0.060 C 
BRANCH  26  28
ATOM     27  C   UNL A   1     -25.387  -0.679  31.571  0.00  0.00    +0.077 C 
ATOM     28  C   UNL A   1     -25.189   0.773  32.028  0.00  0.00    +0.022 C 
ATOM     29  C   UNL A   1     -25.336   0.684  33.544  0.00  0.00    +0.020 C 
ATOM     30  C   UNL A   1     -24.829  -0.715  33.905  0.00  0.00    +0.089 C 
ATOM     31  N   UNL A   1     -24.758  -1.481  32.646  0.00  0.00    -0.219 NA
BRANCH  27  32
ATOM     32  C   UNL A   1     -24.855  -1.012  30.143  0.00  0.00    +0.044 C 
BRANCH  32  33
ATOM     33  C   UNL A   1     -24.973  -2.505  29.788  0.00  0.00    -0.021 C 
ATOM     34  C   UNL A   1     -23.906  -3.173  29.146  0.00  0.00    -0.004 C 
ATOM     35  C   UNL A   1     -23.989  -4.549  28.853  0.00  0.00    -0.000 C 
ATOM     36  C   UNL A   1     -25.137  -5.280  29.205  0.00  0.00    -0.000 C 
ATOM     37  C   UNL A   1     -26.232  -4.611  29.784  0.00  0.00    -0.000 C 
ATOM     38  C   UNL A   1     -26.155  -3.232  30.065  0.00  0.00    -0.004 C 
ENDBRANCH  32  33
ENDBRANCH  27  32
ENDBRANCH  26  28
BRANCH  26  40
ATOM     39  N   UNL A   1     -26.847   4.110  30.544  0.00  0.00    -0.121 NA
ATOM     40  CA  UNL A   1     -26.259   3.140  31.515  0.00  0.00    +0.197 C 
BRANCH  40  42
ATOM     41  O   UNL A   1     -24.074   3.974  32.068  0.00  0.00    -0.244 OA
ATOM     42  C   UNL A   1     -25.317   3.647  32.489  0.00  0.00    +0.382 C 
ATOM     43  OXT UNL A   1     -25.627   3.626  33.698  0.00  0.00    -0.244 OA
ENDBRANCH  40  42
ENDBRANCH  26  40
ENDBRANCH  25  26
ENDBRANCH  24  25
ENDBRANCH   1  24
TORSDOF 14
