MODEL 2242
MODEL 1
REMARK VINA RESULT:    -7.218      0.000      0.000
REMARK INTER + INTRA:         -12.620
REMARK INTER:                 -10.593
REMARK INTRA:                  -2.027
REMARK UNBOUND:                -2.027
REMARK  Name = No_2242-gen_results/8p0m/2024-11-27-11-27-31/
REMARK  8 active torsions:
REMARK  status: ('A' for Active; 'I' for Inactive)
REMARK    1  A    between atoms: C_10  and  C_11
REMARK    2  A    between atoms: C_11  and  O_13
REMARK    3  A    between atoms: O_13  and  C_15
REMARK    4  A    between atoms: C_16  and  C_17
REMARK    5  A    between atoms: C_19  and  C_23
REMARK    6  A    between atoms: N_25  and  C_26
REMARK    7  A    between atoms: C_29  and  C_32
REMARK    8  A    between atoms: C_32  and  N_34
REMARK                            x       y       z     vdW  Elec       q    Type
REMARK                         _______ _______ _______ _____ _____    ______ ____
ROOT
ATOM      1  C   UNL A   1     -30.754  -8.934   9.860  0.00  0.00    +0.003 A 
ATOM      2  C   UNL A   1     -29.591  -9.614   9.423  0.00  0.00    +0.005 A 
ATOM      3  C   UNL A   1     -28.387  -8.951   9.187  0.00  0.00    +0.055 A 
ATOM      4  C   UNL A   1     -28.370  -7.549   9.401  0.00  0.00    +0.005 A 
ATOM      5  C   UNL A   1     -29.487  -6.860   9.822  0.00  0.00    +0.000 A 
ATOM      6  C   UNL A   1     -30.722  -7.545  10.085  0.00  0.00    +0.000 A 
ENDROOT
BRANCH   3   7
ATOM      7  C   UNL A   1     -27.368  -9.821   8.851  0.00  0.00    +0.269 C 
ATOM      8  O   UNL A   1     -26.428 -10.165   9.293  0.00  0.00    -0.268 OA
ATOM      9  N   UNL A   1     -27.890 -10.713   7.790  0.00  0.00    -0.175 NA
BRANCH   9  10
ATOM     10  C   UNL A   1     -27.053 -11.764   7.279  0.00  0.00    +0.074 A 
ATOM     11  C   UNL A   1     -26.129 -11.841   6.661  0.00  0.00    +0.016 A 
ATOM     12  C   UNL A   1     -25.439 -13.004   6.237  0.00  0.00    +0.001 A 
ATOM     13  C   UNL A   1     -26.031 -14.234   6.631  0.00  0.00    +0.025 A 
ATOM     14  C   UNL A   1     -27.174 -14.214   7.389  0.00  0.00    +0.001 A 
ATOM     15  C   UNL A   1     -27.795 -13.048   7.745  0.00  0.00    +0.016 A 
BRANCH  13  16
ATOM     16  C   UNL A   1     -25.362 -15.476   6.233  0.00  0.00    +0.249 C 
ATOM     17  O   UNL A   1     -25.960 -16.213   5.536  0.00  0.00    -0.199 OA
BRANCH  16  18
ATOM     18  N   UNL A   1     -24.133 -15.688   6.669  0.00  0.00    -0.184 NA
ATOM     19  C   UNL A   1     -23.046 -15.766   5.723  0.00  0.00    +0.111 C 
ENDBRANCH  16  18
ENDBRANCH  13  16
ENDBRANCH   9  10
ENDBRANCH   3   7
BRANCH   1  21
ATOM     20  C   UNL A   1     -32.103 -10.911   9.643  0.00  0.00    +0.183 C 
ATOM     21  C   UNL A   1     -31.997  -9.622  10.075  0.00  0.00    +0.041 C 
BRANCH  20  22
ATOM     22  O   UNL A   1     -33.257 -11.508   9.865  0.00  0.00    -0.418 OA
BRANCH  22  23
ATOM     23  C   UNL A   1     -33.336 -12.604  10.532  0.00  0.00    +0.346 C 
ATOM     24  O   UNL A   1     -34.372 -13.215  10.701  0.00  0.00    -0.244 OA
BRANCH  23  34
ATOM     25  C   UNL A   1     -29.453 -15.806   9.848  0.00  0.00    +0.011 A 
ATOM     26  C   UNL A   1     -29.943 -16.006   8.936  0.00  0.00    +0.058 A 
ATOM     27  C   UNL A   1     -30.167 -14.855  10.699  0.00  0.00    +0.001 A 
ATOM     28  C   UNL A   1     -29.736 -14.495  12.069  0.00  0.00    +0.000 A 
ATOM     29  C   UNL A   1     -31.179 -15.556   8.311  0.00  0.00    +0.011 A 
ATOM     30  C   UNL A   1     -31.876 -14.647   9.080  0.00  0.00    +0.001 A 
ATOM     31  C   UNL A   1     -31.420 -14.318  10.301  0.00  0.00    +0.006 A 
ATOM     32  C   UNL A   1     -30.361 -13.363  12.627  0.00  0.00    +0.000 A 
ATOM     33  C   UNL A   1     -31.581 -12.860  12.191  0.00  0.00    +0.006 A 
ATOM     34  C   UNL A   1     -32.071 -13.238  10.967  0.00  0.00    +0.076 A 
ATOM     35 CL   UNL A   1     -29.200 -17.231   7.735  0.00  0.00    -0.082 Cl
ENDBRANCH  23  34
ENDBRANCH  22  23
ENDBRANCH  20  22
ENDBRANCH   1  21
TORSDOF 8
ENDMDL
ENDMDL
