MODEL 2243
MODEL 1
REMARK VINA RESULT:    -4.264      0.000      0.000
REMARK INTER + INTRA:          -4.264
REMARK INTER:                  -4.264
REMARK INTRA:                   0.000
REMARK UNBOUND:                 0.000
REMARK  Name = No_2243-gen_results/8p0m/2024-11-27-11-27-31/
REMARK  0 active torsions:
REMARK  status: ('A' for Active; 'I' for Inactive)
REMARK                            x       y       z     vdW  Elec       q    Type
REMARK                         _______ _______ _______ _____ _____    ______ ____
ROOT
ATOM      1  C   UNL A   1     -26.066  -4.814  29.663  0.00  0.00    +0.000 A 
ATOM      2  C   UNL A   1     -26.214  -3.615  29.716  0.00  0.00    +0.000 A 
ATOM      3  C   UNL A   1     -25.251  -2.708  29.320  0.00  0.00    +0.000 A 
ATOM      4  C   UNL A   1     -24.035  -3.217  28.783  0.00  0.00    +0.000 A 
ATOM      5  C   UNL A   1     -23.986  -4.555  28.586  0.00  0.00    +0.000 A 
ATOM      6  C   UNL A   1     -24.974  -5.345  28.959  0.00  0.00    +0.000 A 
ENDROOT
TORSDOF 0
ENDMDL
ENDMDL
