REMARK  Name = outputs/IAG933/test6/raw/output_2244_IAG933_linker_design_.xyz
REMARK  12 active torsions:
REMARK  status: ('A' for Active; 'I' for Inactive)
REMARK    1  A    between atoms: C_1  and  C_2
REMARK    2  A    between atoms: C_1  and  C_8
REMARK    3  A    between atoms: C_1  and  N_31
REMARK    4  A    between atoms: C_13  and  C_34
REMARK    5  A    between atoms: C_14  and  C_15
REMARK    6  A    between atoms: C_21  and  O_22
REMARK    7  A    between atoms: O_22  and  C_23
REMARK    8  A    between atoms: C_23  and  C_24
REMARK    9  A    between atoms: C_28  and  C_29
REMARK   10  A    between atoms: C_29  and  C_37
REMARK   11  A    between atoms: N_31  and  C_40
REMARK   12  A    between atoms: C_37  and  O_41
REMARK                            x       y       z     vdW  Elec       q    Type
REMARK                         _______ _______ _______ _____ _____    ______ ____
ROOT
ATOM      1  C   UNL A   1     -23.122   1.760  26.166  0.00  0.00    +0.142 C 
ATOM      2  O   UNL A   1     -22.267   0.169  29.777  0.00  0.00    -0.285 OA
ATOM      3  C   UNL A   1     -24.296   1.373  26.920  0.00  0.00    +0.047 C 
ATOM      4  C   UNL A   1     -21.546   1.256  27.913  0.00  0.00    +0.046 C 
ATOM      5  C   UNL A   1     -21.800   1.750  26.636  0.00  0.00    +0.033 C 
ATOM      6  C   UNL A   1     -22.649   0.774  28.638  0.00  0.00    +0.209 C 
ATOM      7  C   UNL A   1     -24.048   0.753  28.200  0.00  0.00    +0.096 C 
ATOM      8  F   UNL A   1     -23.280   2.108  24.861  0.00  0.00    -0.204 F 
ENDROOT
BRANCH   3   9
ATOM      9  C   UNL A   1     -25.688   1.614  26.461  0.00  0.00    +0.042 C 
ATOM     10  C   UNL A   1     -26.250   2.920  26.395  0.00  0.00    +0.077 C 
ATOM     11  C   UNL A   1     -27.438   3.091  25.645  0.00  0.00    +0.107 C 
ATOM     12  N   UNL A   1     -28.075   2.089  25.003  0.00  0.00    -0.208 NA
ATOM     13  C   UNL A   1     -27.543   0.849  25.079  0.00  0.00    +0.253 C 
ATOM     14  C   UNL A   1     -26.354   0.576  25.777  0.00  0.00    +0.193 C 
ATOM     15  F   UNL A   1     -25.860  -0.681  25.795  0.00  0.00    -0.199 F 
BRANCH  10  16
ATOM     16  C   UNL A   1     -25.642   4.093  27.123  0.00  0.00    +0.266 C 
ATOM     17  N   UNL A   1     -25.614   5.252  26.449  0.00  0.00    -0.200 NA
ATOM     18  C   UNL A   1     -25.026   6.479  26.963  0.00  0.00    +0.139 C 
ATOM     19  O   UNL A   1     -25.143   3.966  28.243  0.00  0.00    -0.268 OA
ENDBRANCH  10  16
BRANCH  13  20
ATOM     20  O   UNL A   1     -28.193  -0.208  24.477  0.00  0.00    -0.456 OA
BRANCH  20  21
ATOM     21  C   UNL A   1     -29.460   0.005  23.866  0.00  0.00    +0.243 C 
BRANCH  21  22
ATOM     22  C   UNL A   1     -30.065  -1.377  23.573  0.00  0.00    +0.229 C 
ATOM     23  O   UNL A   1     -30.729  -1.878  24.721  0.00  0.00    -0.216 OA
ENDBRANCH  21  22
ENDBRANCH  20  21
ENDBRANCH  13  20
ENDBRANCH   3   9
BRANCH   7  25
ATOM     24  C   UNL A   1     -26.504   0.147  28.747  0.00  0.00    +0.232 C 
ATOM     25  N   UNL A   1     -25.091  -0.006  29.049  0.00  0.00    -0.252 N 
ATOM     26  O   UNL A   1     -27.091  -0.634  28.092  0.00  0.00    -0.274 OA
BRANCH  25  27
ATOM     27  C   UNL A   1     -24.855  -1.012  30.143  0.00  0.00    +0.118 C 
BRANCH  27  28
ATOM     28  C   UNL A   1     -24.973  -2.505  29.788  0.00  0.00    -0.003 C 
ATOM     29  C   UNL A   1     -23.906  -3.173  29.146  0.00  0.00    -0.003 C 
ATOM     30  C   UNL A   1     -23.989  -4.549  28.853  0.00  0.00    -0.000 C 
ATOM     31  C   UNL A   1     -25.137  -5.280  29.205  0.00  0.00    -0.000 C 
ATOM     32  C   UNL A   1     -26.232  -4.611  29.784  0.00  0.00    -0.000 C 
ATOM     33  C   UNL A   1     -26.155  -3.232  30.065  0.00  0.00    -0.003 C 
ENDBRANCH  27  28
BRANCH  27  34
ATOM     34  C   UNL A   1     -25.387  -0.679  31.571  0.00  0.00    +0.096 C 
ATOM     35  C   UNL A   1     -25.189   0.773  32.028  0.00  0.00    +0.021 C 
ATOM     36  C   UNL A   1     -25.336   0.684  33.544  0.00  0.00    +0.020 C 
ATOM     37  C   UNL A   1     -24.829  -0.715  33.905  0.00  0.00    +0.089 C 
ATOM     38  N   UNL A   1     -24.758  -1.481  32.646  0.00  0.00    -0.217 NA
ENDBRANCH  27  34
ENDBRANCH  25  27
BRANCH  24  39
ATOM     39  C   UNL A   1     -27.294   1.171  29.469  0.00  0.00    +0.118 C 
BRANCH  39  40
ATOM     40  C   UNL A   1     -27.346   2.219  30.343  0.00  0.00    +0.152 C 
BRANCH  40  42
ATOM     41  C   UNL A   1     -27.102   4.576  30.851  0.00  0.00    +0.174 C 
ATOM     42  O   UNL A   1     -27.665   3.547  29.986  0.00  0.00    -0.351 OA
ENDBRANCH  40  42
ENDBRANCH  39  40
ENDBRANCH  24  39
ENDBRANCH   7  25
TORSDOF 12
