MODEL 2245
MODEL 1
REMARK VINA RESULT:    -6.719      0.000      0.000
REMARK INTER + INTRA:          -7.997
REMARK INTER:                  -7.898
REMARK INTRA:                  -0.099
REMARK UNBOUND:                -0.099
REMARK  Name = No_2245-gen_results/8p0m/2024-11-27-11-27-31/
REMARK  3 active torsions:
REMARK  status: ('A' for Active; 'I' for Inactive)
REMARK    1  A    between atoms: C_1  and  C_2
REMARK    2  A    between atoms: C_5  and  C_10
REMARK    3  A    between atoms: N_8  and  C_9
REMARK                            x       y       z     vdW  Elec       q    Type
REMARK                         _______ _______ _______ _____ _____    ______ ____
ROOT
ATOM      1  C   UNL A   1     -25.073  -2.768  29.676  0.00  0.00    +0.055 A 
ATOM      2  C   UNL A   1     -25.301  -4.079  29.408  0.00  0.00    +0.004 A 
ATOM      3  C   UNL A   1     -26.572  -4.786  29.684  0.00  0.00    +0.004 A 
ATOM      4  C   UNL A   1     -27.618  -4.023  30.299  0.00  0.00    +0.071 A 
ATOM      5  C   UNL A   1     -27.317  -2.682  30.628  0.00  0.00    +0.004 A 
ATOM      6  C   UNL A   1     -26.114  -2.092  30.341  0.00  0.00    +0.004 A 
ENDROOT
BRANCH   4   7
ATOM      7  C   UNL A   1     -28.884  -4.604  30.657  0.00  0.00    +0.419 C 
ATOM      8  F   UNL A   1     -29.650  -3.930  31.173  0.00  0.00    -0.166 F 
ATOM      9  F   UNL A   1     -29.466  -5.076  29.452  0.00  0.00    -0.166 F 
ATOM     10  F   UNL A   1     -28.707  -5.763  31.385  0.00  0.00    -0.166 F 
ENDBRANCH   4   7
BRANCH   1  11
ATOM     11  C   UNL A   1     -24.029  -2.203  29.447  0.00  0.00    +0.269 C 
ATOM     12  N   UNL A   1     -23.917  -0.954  29.657  0.00  0.00    -0.175 NA
ATOM     13  O   UNL A   1     -23.156  -2.712  28.668  0.00  0.00    -0.268 OA
BRANCH  12  14
ATOM     14  C   UNL A   1     -22.973  -0.185  28.966  0.00  0.00    +0.074 A 
ATOM     15  C   UNL A   1     -21.749  -0.309  29.029  0.00  0.00    +0.017 A 
ATOM     16  C   UNL A   1     -23.495   0.812  27.966  0.00  0.00    +0.017 A 
ATOM     17  C   UNL A   1     -20.758   0.498  28.352  0.00  0.00    +0.001 A 
ATOM     18  C   UNL A   1     -22.607   1.647  27.308  0.00  0.00    +0.001 A 
ATOM     19  C   UNL A   1     -21.235   1.446  27.448  0.00  0.00    +0.000 A 
ENDBRANCH  12  14
ENDBRANCH   1  11
TORSDOF 3
ENDMDL
ENDMDL
