MODEL 2246
MODEL 1
REMARK VINA RESULT:    -5.535      0.000      0.000
REMARK INTER + INTRA:          -6.336
REMARK INTER:                  -6.182
REMARK INTRA:                  -0.155
REMARK UNBOUND:                -0.155
REMARK  Name = No_2246-gen_results/8p0m/2024-11-27-11-27-31/
REMARK  2 active torsions:
REMARK  status: ('A' for Active; 'I' for Inactive)
REMARK    1  A    between atoms: C_10  and  C_11
REMARK    2  A    between atoms: C_11  and  N_12
REMARK                            x       y       z     vdW  Elec       q    Type
REMARK                         _______ _______ _______ _____ _____    ______ ____
ROOT
ATOM      1  C   UNL A   1     -24.261  -4.702  28.905  0.00  0.00    +0.037 A 
ATOM      2  C   UNL A   1     -25.184  -5.181  29.075  0.00  0.00    +0.003 A 
ATOM      3  C   UNL A   1     -24.214  -3.254  29.160  0.00  0.00    +0.142 A 
ATOM      4  C   UNL A   1     -25.329  -2.583  29.742  0.00  0.00    +0.017 A 
ATOM      5  C   UNL A   1     -26.444  -3.352  29.964  0.00  0.00    -0.001 A 
ATOM      6  C   UNL A   1     -26.427  -4.683  29.690  0.00  0.00    -0.000 A 
ATOM      7  O   UNL A   1     -23.131  -2.467  28.904  0.00  0.00    -0.451 OA
ATOM      8  C   UNL A   1     -23.394  -1.142  28.632  0.00  0.00    +0.173 C 
ATOM      9  C   UNL A   1     -25.367  -1.185  29.899  0.00  0.00    +0.056 C 
ATOM     10  C   UNL A   1     -24.276  -0.402  29.345  0.00  0.00    +0.014 C 
ENDROOT
BRANCH  10  11
ATOM     11  C   UNL A   1     -24.315   1.036  29.303  0.00  0.00    +0.098 C 
BRANCH  11  12
ATOM     12  N   UNL A   1     -24.469   1.611  28.097  0.00  0.00    -0.267 NA
ATOM     13  C   UNL A   1     -25.672   1.771  27.554  0.00  0.00    +0.090 C 
ATOM     14  C   UNL A   1     -23.366   2.253  27.450  0.00  0.00    +0.090 C 
ENDBRANCH  11  12
ENDBRANCH  10  11
TORSDOF 2
ENDMDL
ENDMDL
