MODEL 2247
MODEL 1
REMARK VINA RESULT:    -6.752      0.000      0.000
REMARK INTER + INTRA:          -7.968
REMARK INTER:                  -7.542
REMARK INTRA:                  -0.426
REMARK UNBOUND:                -0.426
REMARK  Name = No_2247-gen_results/8p0m/2024-11-27-11-27-31/
REMARK  2 active torsions:
REMARK  status: ('A' for Active; 'I' for Inactive)
REMARK    1  A    between atoms: C_1  and  C_3
REMARK    2  A    between atoms: C_3  and  C_4
REMARK                            x       y       z     vdW  Elec       q    Type
REMARK                         _______ _______ _______ _____ _____    ______ ____
ROOT
ATOM      1  C   UNL A   1     -24.112  -1.351  29.897  0.00  0.00    +0.196 C 
ATOM      2  O   UNL A   1     -24.383  -0.747  30.958  0.00  0.00    -0.287 OA
ENDROOT
BRANCH   1   3
ATOM      3  C   UNL A   1     -24.398  -2.733  29.636  0.00  0.00    +0.039 A 
ATOM      4  C   UNL A   1     -23.749  -3.224  28.966  0.00  0.00    +0.003 A 
ATOM      5  C   UNL A   1     -24.006  -4.699  28.486  0.00  0.00    +0.000 A 
ATOM      6  C   UNL A   1     -25.139  -5.276  29.052  0.00  0.00    +0.000 A 
ATOM      7  C   UNL A   1     -26.100  -4.515  29.637  0.00  0.00    +0.000 A 
ATOM      8  C   UNL A   1     -25.830  -3.163  29.811  0.00  0.00    +0.003 A 
ENDBRANCH   1   3
BRANCH   1   9
ATOM      9  C   UNL A   1     -23.761  -0.428  28.798  0.00  0.00    +0.039 A 
ATOM     10  C   UNL A   1     -24.622  -0.107  27.812  0.00  0.00    +0.003 A 
ATOM     11  C   UNL A   1     -22.524   0.307  28.773  0.00  0.00    +0.003 A 
ATOM     12  C   UNL A   1     -22.350   1.265  27.741  0.00  0.00    +0.000 A 
ATOM     13  C   UNL A   1     -24.389   0.738  26.709  0.00  0.00    +0.000 A 
ATOM     14  C   UNL A   1     -23.199   1.446  26.775  0.00  0.00    +0.000 A 
ENDBRANCH   1   9
TORSDOF 2
ENDMDL
ENDMDL
