REMARK  Name = No_2248-gen_results/8p0m/2024-11-27-11-27-31/
REMARK  5 active torsions:
REMARK  status: ('A' for Active; 'I' for Inactive)
REMARK    1  A    between atoms: C_3  and  N_11
REMARK    2  A    between atoms: C_4  and  C_7
REMARK    3  A    between atoms: C_8  and  C_9
REMARK    4  A    between atoms: C_10  and  C_12
REMARK    5  A    between atoms: C_10  and  O_14
REMARK                            x       y       z     vdW  Elec       q    Type
REMARK                         _______ _______ _______ _____ _____    ______ ____
ROOT
ATOM      1  C   UNL A   1     -28.016  -0.814  28.878  0.00  0.00    +0.016 A 
ATOM      2  C   UNL A   1     -28.469  -0.785  29.829  0.00  0.00    +0.001 A 
ATOM      3  C   UNL A   1     -26.546  -0.876  28.850  0.00  0.00    +0.065 A 
ATOM      4  C   UNL A   1     -25.804  -1.032  30.057  0.00  0.00    +0.015 A 
ATOM      5  C   UNL A   1     -26.537  -1.039  31.217  0.00  0.00    +0.001 A 
ATOM      6  C   UNL A   1     -27.884  -0.953  31.186  0.00  0.00    +0.000 A 
ENDROOT
BRANCH   4   7
ATOM      7  C   UNL A   1     -24.366  -1.113  30.048  0.00  0.00    +0.001 C 
ATOM      8  C   UNL A   1     -23.625  -0.943  29.023  0.00  0.00    +0.003 C 
BRANCH   8   9
ATOM      9  C   UNL A   1     -24.062  -0.205  27.935  0.00  0.00    +0.035 C 
ATOM     10  C   UNL A   1     -25.833  -0.566  27.594  0.00  0.00    +0.149 C 
BRANCH  10  11
ATOM     11  C   UNL A   1     -26.200   0.003  26.430  0.00  0.00    +0.245 C 
ATOM     12  O   UNL A   1     -25.744  -0.965  26.674  0.00  0.00    -0.212 OA
ENDBRANCH  10  11
BRANCH  10  13
ATOM     13  O   UNL A   1     -25.608   0.718  28.256  0.00  0.00    -0.473 OA
ATOM     14  C   UNL A   1     -25.497   1.770  28.692  0.00  0.00    +0.252 C 
ENDBRANCH  10  13
ENDBRANCH   8   9
ENDBRANCH   4   7
BRANCH   3  15
ATOM     15  N   UNL A   1     -26.040  -2.093  28.596  0.00  0.00    -0.236 NA
ATOM     16  C   UNL A   1     -25.814  -3.169  28.722  0.00  0.00    +0.136 C 
ENDBRANCH   3  15
TORSDOF 5
