MODEL 2248
MODEL 1
REMARK VINA RESULT:    -5.018      0.000      0.000
REMARK INTER + INTRA:          -3.661
REMARK INTER:                  -6.044
REMARK INTRA:                   2.383
REMARK UNBOUND:                 2.383
REMARK  Name = No_2248-gen_results/8p0m/2024-11-27-11-27-31/
REMARK  5 active torsions:
REMARK  status: ('A' for Active; 'I' for Inactive)
REMARK    1  A    between atoms: C_3  and  N_11
REMARK    2  A    between atoms: C_4  and  C_7
REMARK    3  A    between atoms: C_8  and  C_9
REMARK    4  A    between atoms: C_10  and  C_12
REMARK    5  A    between atoms: C_10  and  O_14
REMARK                            x       y       z     vdW  Elec       q    Type
REMARK                         _______ _______ _______ _____ _____    ______ ____
ROOT
ATOM      1  C   UNL A   1     -26.812   2.297  25.879  0.00  0.00    +0.016 A 
ATOM      2  C   UNL A   1     -27.084   1.527  25.211  0.00  0.00    +0.001 A 
ATOM      3  C   UNL A   1     -25.581   2.090  26.657  0.00  0.00    +0.065 A 
ATOM      4  C   UNL A   1     -24.742   0.966  26.401  0.00  0.00    +0.015 A 
ATOM      5  C   UNL A   1     -25.196   0.078  25.459  0.00  0.00    +0.001 A 
ATOM      6  C   UNL A   1     -26.348   0.305  24.792  0.00  0.00    +0.000 A 
ENDROOT
BRANCH   4   7
ATOM      7  C   UNL A   1     -23.524   0.756  27.141  0.00  0.00    +0.001 C 
ATOM      8  C   UNL A   1     -23.438   0.157  28.264  0.00  0.00    +0.003 C 
BRANCH   8   9
ATOM      9  C   UNL A   1     -24.395  -0.761  28.664  0.00  0.00    +0.035 C 
ATOM     10  C   UNL A   1     -23.628  -2.415  28.902  0.00  0.00    +0.149 C 
BRANCH  10  11
ATOM     11  C   UNL A   1     -24.586  -3.339  29.104  0.00  0.00    +0.245 C 
ATOM     12  O   UNL A   1     -23.521  -3.415  28.851  0.00  0.00    -0.212 OA
ENDBRANCH  10  11
BRANCH  10  13
ATOM     13  O   UNL A   1     -23.915  -1.711  30.151  0.00  0.00    -0.473 OA
ATOM     14  C   UNL A   1     -24.109  -1.257  31.183  0.00  0.00    +0.252 C 
ENDBRANCH  10  13
ENDBRANCH   8   9
ENDBRANCH   4   7
BRANCH   3  15
ATOM     15  N   UNL A   1     -24.511   2.762  26.205  0.00  0.00    -0.236 NA
ATOM     16  C   UNL A   1     -23.911   3.582  25.767  0.00  0.00    +0.136 C 
ENDBRANCH   3  15
TORSDOF 5
ENDMDL
ENDMDL
