REMARK  Name = No_2249-gen_results/8p0m/2024-11-27-11-27-31/
REMARK  3 active torsions:
REMARK  status: ('A' for Active; 'I' for Inactive)
REMARK    1  A    between atoms: C_5  and  C_7
REMARK    2  A    between atoms: C_11  and  C_14
REMARK    3  A    between atoms: C_13  and  C_18
REMARK                            x       y       z     vdW  Elec       q    Type
REMARK                         _______ _______ _______ _____ _____    ______ ____
ROOT
ATOM      1  C   UNL A   1     -28.016  -0.814  28.878  0.00  0.00    +0.000 A 
ATOM      2  C   UNL A   1     -27.064  -0.119  28.608  0.00  0.00    +0.003 A 
ATOM      3  C   UNL A   1     -26.972   0.714  27.506  0.00  0.00    +0.000 A 
ATOM      4  C   UNL A   1     -28.105   0.774  26.642  0.00  0.00    +0.007 A 
ATOM      5  C   UNL A   1     -29.204   0.118  27.048  0.00  0.00    +0.080 A 
ATOM      6  C   UNL A   1     -29.213  -0.609  28.128  0.00  0.00    +0.007 A 
ATOM      7  C   UNL A   1     -25.667   1.405  27.124  0.00  0.00    +0.004 A 
ATOM      8  C   UNL A   1     -24.534   1.035  27.728  0.00  0.00    +0.071 A 
ATOM      9  C   UNL A   1     -24.299   0.122  28.715  0.00  0.00    +0.007 A 
ATOM     10  C   UNL A   1     -25.599  -0.486  29.169  0.00  0.00    +0.042 A 
ENDROOT
BRANCH   8  11
ATOM     11  C   UNL A   1     -23.226   1.790  27.361  0.00  0.00    +0.419 C 
ATOM     12  F   UNL A   1     -23.349   2.701  26.506  0.00  0.00    -0.166 F 
ATOM     13  F   UNL A   1     -22.632   2.423  28.472  0.00  0.00    -0.166 F 
ATOM     14  F   UNL A   1     -22.279   0.943  26.925  0.00  0.00    -0.166 F 
ENDBRANCH   8  11
BRANCH   5  15
ATOM     15  C   UNL A   1     -30.371   0.233  26.138  0.00  0.00    +0.388 C 
ATOM     16  O   UNL A   1     -30.309   0.105  24.941  0.00  0.00    -0.241 OA
ATOM     17  O   UNL A   1     -31.579   0.266  26.675  0.00  0.00    -0.241 OA
ENDBRANCH   5  15
BRANCH  10  18
ATOM     18  C   UNL A   1     -25.488  -1.438  30.276  0.00  0.00    +0.234 C 
ATOM     19  O   UNL A   1     -25.203  -2.551  29.938  0.00  0.00    -0.283 OA
ENDBRANCH  10  18
TORSDOF 3
