MODEL 2249
MODEL 1
REMARK VINA RESULT:    -7.162      0.000      0.000
REMARK INTER + INTRA:          -8.771
REMARK INTER:                  -8.418
REMARK INTRA:                  -0.353
REMARK UNBOUND:                -0.353
REMARK  Name = No_2249-gen_results/8p0m/2024-11-27-11-27-31/
REMARK  3 active torsions:
REMARK  status: ('A' for Active; 'I' for Inactive)
REMARK    1  A    between atoms: C_5  and  C_7
REMARK    2  A    between atoms: C_11  and  C_14
REMARK    3  A    between atoms: C_13  and  C_18
REMARK                            x       y       z     vdW  Elec       q    Type
REMARK                         _______ _______ _______ _____ _____    ______ ____
ROOT
ATOM      1  C   UNL A   1     -29.959  -9.843  31.955  0.00  0.00    +0.000 A 
ATOM      2  C   UNL A   1     -29.953 -10.448  30.908  0.00  0.00    +0.003 A 
ATOM      3  C   UNL A   1     -29.058 -11.448  30.570  0.00  0.00    +0.000 A 
ATOM      4  C   UNL A   1     -28.087 -11.808  31.550  0.00  0.00    +0.007 A 
ATOM      5  C   UNL A   1     -28.214 -11.235  32.758  0.00  0.00    +0.080 A 
ATOM      6  C   UNL A   1     -29.120 -10.332  33.000  0.00  0.00    +0.007 A 
ATOM      7  C   UNL A   1     -28.987 -12.025  29.159  0.00  0.00    +0.004 A 
ATOM      8  C   UNL A   1     -29.644 -11.410  28.172  0.00  0.00    +0.071 A 
ATOM      9  C   UNL A   1     -30.453 -10.311  28.179  0.00  0.00    +0.007 A 
ATOM     10  C   UNL A   1     -30.611  -9.801  29.587  0.00  0.00    +0.042 A 
ENDROOT
BRANCH   8  11
ATOM     11  C   UNL A   1     -29.601 -12.046  26.754  0.00  0.00    +0.419 C 
ATOM     12  F   UNL A   1     -29.389 -11.247  25.809  0.00  0.00    -0.166 F 
ATOM     13  F   UNL A   1     -28.593 -13.023  26.626  0.00  0.00    -0.166 F 
ATOM     14  F   UNL A   1     -30.736 -12.711  26.482  0.00  0.00    -0.166 F 
ENDBRANCH   8  11
BRANCH   5  15
ATOM     15  C   UNL A   1     -27.205 -11.661  33.760  0.00  0.00    +0.388 C 
ATOM     16  O   UNL A   1     -26.654 -12.733  33.749  0.00  0.00    -0.241 OA
ATOM     17  O   UNL A   1     -26.722 -10.748  34.586  0.00  0.00    -0.241 OA
ENDBRANCH   5  15
BRANCH  10  18
ATOM     18  C   UNL A   1     -31.513  -8.658  29.738  0.00  0.00    +0.234 C 
ATOM     19  O   UNL A   1     -31.281  -7.749  28.993  0.00  0.00    -0.283 OA
ENDBRANCH  10  18
TORSDOF 3
ENDMDL
ENDMDL
