MODEL 224
MODEL 1
REMARK VINA RESULT:    -7.566      0.000      0.000
REMARK INTER + INTRA:         -10.665
REMARK INTER:                  -9.778
REMARK INTRA:                  -0.887
REMARK UNBOUND:                -0.887
REMARK  Name = No_224-gen_results/8p0m/2024-11-27-11-27-31/
REMARK  5 active torsions:
REMARK  status: ('A' for Active; 'I' for Inactive)
REMARK    1  A    between atoms: C_3  and  C_7
REMARK    2  A    between atoms: C_6  and  C_13
REMARK    3  A    between atoms: C_16  and  C_17
REMARK    4  A    between atoms: C_20  and  C_23
REMARK    5  A    between atoms: C_23  and  C_25
REMARK                            x       y       z     vdW  Elec       q    Type
REMARK                         _______ _______ _______ _____ _____    ______ ____
ROOT
ATOM      1  C   UNL A   1      -3.468  -1.425  34.281  0.00  0.00    +0.272 C 
ATOM      2  N   UNL A   1      -2.473  -0.535  34.278  0.00  0.00    -0.137 NA
ATOM      3  O   UNL A   1      -3.110  -2.610  34.410  0.00  0.00    -0.268 OA
ATOM      4  C   UNL A   1      -1.255  -0.783  33.831  0.00  0.00    +0.272 C 
ATOM      5  O   UNL A   1      -0.287  -0.525  34.739  0.00  0.00    -0.268 OA
ENDROOT
BRANCH   1  11
ATOM      6  C   UNL A   1      -5.988  -1.888  34.365  0.00  0.00    +0.005 A 
ATOM      7  C   UNL A   1      -7.110  -1.535  34.649  0.00  0.00    +0.000 A 
ATOM      8  C   UNL A   1      -7.426  -0.253  35.095  0.00  0.00    +0.000 A 
ATOM      9  C   UNL A   1      -6.358   0.709  35.291  0.00  0.00    +0.000 A 
ATOM     10  C   UNL A   1      -5.076   0.225  34.947  0.00  0.00    +0.005 A 
ATOM     11  C   UNL A   1      -4.876  -1.004  34.541  0.00  0.00    +0.056 A 
BRANCH   8  12
ATOM     12  C   UNL A   1      -8.778   0.253  35.450  0.00  0.00    +0.001 A 
ATOM     13  C   UNL A   1      -9.411  -0.165  36.515  0.00  0.00    +0.011 A 
ATOM     14  C   UNL A   1     -10.743   0.283  36.802  0.00  0.00    +0.058 A 
ATOM     15  C   UNL A   1     -11.475   1.032  35.938  0.00  0.00    +0.011 A 
ATOM     16  C   UNL A   1      -9.533   1.052  34.504  0.00  0.00    +0.000 A 
ATOM     17  C   UNL A   1     -10.876   1.429  34.775  0.00  0.00    +0.001 A 
ATOM     18 CL   UNL A   1     -11.433  -0.267  38.314  0.00  0.00    -0.082 Cl
ENDBRANCH   8  12
ENDBRANCH   1  11
BRANCH   4  19
ATOM     19  C   UNL A   1      -1.049  -1.072  32.493  0.00  0.00    +0.056 A 
ATOM     20  C   UNL A   1      -1.393  -0.468  31.588  0.00  0.00    +0.004 A 
ATOM     21  C   UNL A   1      -1.100  -0.644  30.153  0.00  0.00    -0.002 A 
ATOM     22  C   UNL A   1      -0.670  -1.637  29.947  0.00  0.00    +0.003 A 
ATOM     23  C   UNL A   1      -0.183  -2.627  30.832  0.00  0.00    -0.002 A 
ATOM     24  C   UNL A   1      -0.371  -2.336  32.200  0.00  0.00    +0.004 A 
BRANCH  22  25
ATOM     25  C   UNL A   1      -0.343  -2.045  28.417  0.00  0.00    +0.205 C 
ATOM     26 CL   UNL A   1       0.523  -1.091  27.511  0.00  0.00    -0.098 Cl
BRANCH  25  27
ATOM     27  C   UNL A   1      -0.155  -3.573  28.084  0.00  0.00    +0.384 C 
ATOM     28  O   UNL A   1      -1.036  -4.180  27.988  0.00  0.00    -0.244 OA
ATOM     29  O   UNL A   1       1.032  -3.847  27.898  0.00  0.00    -0.244 OA
ENDBRANCH  25  27
ENDBRANCH  22  25
ENDBRANCH   4  19
TORSDOF 5
ENDMDL
ENDMDL
