REMARK  Name = No_2250-gen_results/8p0m/2024-11-27-11-27-31/
REMARK  5 active torsions:
REMARK  status: ('A' for Active; 'I' for Inactive)
REMARK    1  A    between atoms: C_19  and  C_22
REMARK    2  A    between atoms: C_19  and  C_23
REMARK    3  A    between atoms: C_27  and  C_31
REMARK    4  A    between atoms: C_31  and  C_32
REMARK    5  A    between atoms: C_33  and  C_34
REMARK                            x       y       z     vdW  Elec       q    Type
REMARK                         _______ _______ _______ _____ _____    ______ ____
ROOT
ATOM      1  C   UNL A   1     -28.016  -0.814  28.878  0.00  0.00    -0.004 A 
ATOM      2  C   UNL A   1     -27.064  -0.119  28.608  0.00  0.00    -0.026 A 
ATOM      3  C   UNL A   1     -27.001   0.691  27.491  0.00  0.00    -0.022 A 
ATOM      4  C   UNL A   1     -28.137   0.736  26.635  0.00  0.00    +0.007 A 
ATOM      5  C   UNL A   1     -29.236   0.076  27.069  0.00  0.00    +0.057 A 
ATOM      6  C   UNL A   1     -29.218  -0.643  28.175  0.00  0.00    +0.011 A 
ATOM      7 CL   UNL A   1     -30.612   0.165  26.071  0.00  0.00    -0.082 Cl
ATOM      8  C   UNL A   1     -25.712  -0.216  29.410  0.00  0.00    +0.026 C 
ATOM      9  C   UNL A   1     -25.070   1.008  29.758  0.00  0.00    +0.009 C 
ATOM     10  C   UNL A   1     -24.391   1.582  28.588  0.00  0.00    +0.019 C 
ATOM     11  C   UNL A   1     -25.134   2.338  27.599  0.00  0.00    -0.041 C 
ATOM     12  C   UNL A   1     -24.346   3.298  26.868  0.00  0.00    -0.009 C 
ATOM     13  C   UNL A   1     -26.388   1.873  27.070  0.00  0.00    +0.040 C 
ATOM     14  C   UNL A   1     -26.919   2.757  26.081  0.00  0.00    +0.009 C 
ATOM     15  C   UNL A   1     -23.340   0.798  28.050  0.00  0.00    +0.004 C 
ATOM     16  C   UNL A   1     -24.687  -1.134  28.627  0.00  0.00    +0.004 C 
ATOM     17  C   UNL A   1     -24.827  -2.520  28.919  0.00  0.00    +0.000 C 
ATOM     18  C   UNL A   1     -23.592  -0.590  28.083  0.00  0.00    +0.001 C 
ATOM     19  C   UNL A   1     -26.020  -0.799  30.856  0.00  0.00    +0.044 C 
ATOM     20  C   UNL A   1     -25.255  -3.261  29.905  0.00  0.00    +0.001 C 
ATOM     21  C   UNL A   1     -26.267  -2.384  30.764  0.00  0.00    +0.009 C 
ENDROOT
BRANCH  19  22
ATOM     22  C   UNL A   1     -27.248  -0.189  31.506  0.00  0.00    +0.020 A 
ATOM     23  C   UNL A   1     -27.679  -0.522  32.765  0.00  0.00    -0.001 A 
ATOM     24  C   UNL A   1     -28.989  -0.437  33.044  0.00  0.00    -0.000 A 
ATOM     25  C   UNL A   1     -29.672   0.377  32.195  0.00  0.00    -0.001 A 
ATOM     26  C   UNL A   1     -29.158   0.952  31.069  0.00  0.00    +0.021 A 
ATOM     27  C   UNL A   1     -27.941   0.647  30.674  0.00  0.00    +0.188 A 
ATOM     28  O   UNL A   1     -27.375   2.066  31.307  0.00  0.00    -0.287 OA
BRANCH  26  29
ATOM     29  C   UNL A   1     -29.995   1.750  30.156  0.00  0.00    +0.056 C 
BRANCH  29  30
ATOM     30  C   UNL A   1     -29.709   3.154  29.884  0.00  0.00    -0.021 C 
ATOM     31  C   UNL A   1     -29.572   3.950  30.678  0.00  0.00    -0.004 C 
BRANCH  31  32
ATOM     32  C   UNL A   1     -29.258   5.346  30.395  0.00  0.00    -0.000 C 
ATOM     33  C   UNL A   1     -29.142   5.726  29.053  0.00  0.00    -0.000 C 
ENDBRANCH  31  32
ENDBRANCH  29  30
ENDBRANCH  26  29
ENDBRANCH  19  22
BRANCH  19  34
ATOM     34  C   UNL A   1     -24.807  -0.667  31.766  0.00  0.00    -0.022 C 
ATOM     35  C   UNL A   1     -24.179  -1.756  32.318  0.00  0.00    -0.005 C 
ENDBRANCH  19  34
TORSDOF 5
