REMARK  Name = outputs/IAG933/test6/raw/output_2251_IAG933_linker_design_.xyz
REMARK  14 active torsions:
REMARK  status: ('A' for Active; 'I' for Inactive)
REMARK    1  A    between atoms: C_1  and  C_2
REMARK    2  A    between atoms: C_1  and  C_8
REMARK    3  A    between atoms: C_1  and  C_34
REMARK    4  A    between atoms: C_13  and  C_38
REMARK    5  A    between atoms: C_14  and  C_15
REMARK    6  A    between atoms: C_21  and  O_22
REMARK    7  A    between atoms: O_22  and  C_23
REMARK    8  A    between atoms: C_23  and  C_24
REMARK    9  A    between atoms: C_28  and  CA_41
REMARK   10  A    between atoms: N_29  and  C_34
REMARK   11  A    between atoms: N_29  and  CA_41
REMARK   12  A    between atoms: C_30  and  CA_41
REMARK   13  A    between atoms: C_34  and  C_37
REMARK   14  A    between atoms: C_38  and  C_43
REMARK                            x       y       z     vdW  Elec       q    Type
REMARK                         _______ _______ _______ _____ _____    ______ ____
ROOT
ATOM      1  F   UNL A   1     -23.076   1.934  25.295  0.00  0.00    -0.204 F 
ATOM      2  C   UNL A   1     -21.530   1.627  26.936  0.00  0.00    +0.031 C 
ATOM      3  C   UNL A   1     -22.322   0.401  28.845  0.00  0.00    +0.086 C 
ATOM      4  N   UNL A   1     -22.044  -0.467  29.843  0.00  0.00    -0.128 NA
ATOM      5  C   UNL A   1     -22.801   1.601  26.553  0.00  0.00    +0.136 C 
ATOM      6  C   UNL A   1     -23.636   0.564  28.438  0.00  0.00    +0.009 C 
ATOM      7  C   UNL A   1     -21.287   0.991  28.125  0.00  0.00    +0.020 C 
ATOM      8  C   UNL A   1     -23.795   1.212  27.458  0.00  0.00    +0.004 C 
ENDROOT
BRANCH   6   9
ATOM      9  C   UNL A   1     -25.335  -0.147  29.065  0.00  0.00    +0.101 C 
BRANCH   9  10
ATOM     10  C   UNL A   1     -24.855  -1.012  30.143  0.00  0.00    +0.059 C 
BRANCH  10  11
ATOM     11  C   UNL A   1     -24.973  -2.505  29.788  0.00  0.00    -0.019 C 
ATOM     12  C   UNL A   1     -23.906  -3.173  29.146  0.00  0.00    -0.004 C 
ATOM     13  C   UNL A   1     -23.989  -4.549  28.853  0.00  0.00    -0.000 C 
ATOM     14  C   UNL A   1     -25.137  -5.280  29.205  0.00  0.00    -0.000 C 
ATOM     15  C   UNL A   1     -26.232  -4.611  29.784  0.00  0.00    -0.000 C 
ATOM     16  C   UNL A   1     -26.155  -3.232  30.065  0.00  0.00    -0.004 C 
ENDBRANCH  10  11
BRANCH  10  17
ATOM     17  C   UNL A   1     -25.387  -0.679  31.571  0.00  0.00    +0.079 C 
ATOM     18  C   UNL A   1     -25.189   0.773  32.028  0.00  0.00    +0.019 C 
ATOM     19  C   UNL A   1     -25.336   0.684  33.544  0.00  0.00    +0.020 C 
ATOM     20  C   UNL A   1     -24.829  -0.715  33.905  0.00  0.00    +0.089 C 
ATOM     21  N   UNL A   1     -24.758  -1.481  32.646  0.00  0.00    -0.219 NA
ENDBRANCH  10  17
ENDBRANCH   9  10
BRANCH   9  22
ATOM     22  N   UNL A   1     -26.696  -0.263  28.774  0.00  0.00    -0.213 NA
BRANCH  22  23
ATOM     23  CA  UNL A   1     -28.065   0.384  28.946  0.00  0.00    +0.106 C 
BRANCH  23  24
ATOM     24  C   UNL A   1     -27.955   1.907  28.983  0.00  0.00    +0.199 C 
ATOM     25  O   UNL A   1     -29.105   2.419  29.648  0.00  0.00    -0.219 OA
ENDBRANCH  23  24
BRANCH  23  26
ATOM     26  C   UNL A   1     -28.937  -0.076  27.837  0.00  0.00    +0.020 C 
ATOM     27  C   UNL A   1     -30.174   0.905  27.646  0.00  0.00    +0.002 C 
ENDBRANCH  23  26
ENDBRANCH  22  23
ENDBRANCH   9  22
ENDBRANCH   6   9
BRANCH   8  28
ATOM     28  C   UNL A   1     -24.983   1.573  27.388  0.00  0.00    +0.036 C 
BRANCH  28  29
ATOM     29  C   UNL A   1     -25.688   1.614  26.461  0.00  0.00    +0.075 C 
ATOM     30  C   UNL A   1     -26.250   2.920  26.395  0.00  0.00    +0.055 C 
ATOM     31  C   UNL A   1     -27.438   3.091  25.645  0.00  0.00    +0.102 C 
ATOM     32  N   UNL A   1     -28.075   2.089  25.003  0.00  0.00    -0.212 NA
ATOM     33  C   UNL A   1     -27.543   0.849  25.079  0.00  0.00    +0.234 C 
ATOM     34  C   UNL A   1     -26.354   0.576  25.777  0.00  0.00    +0.240 C 
ATOM     35  F   UNL A   1     -25.860  -0.681  25.795  0.00  0.00    -0.227 F 
BRANCH  30  36
ATOM     36  C   UNL A   1     -25.642   4.093  27.123  0.00  0.00    +0.262 C 
ATOM     37  N   UNL A   1     -25.614   5.252  26.449  0.00  0.00    -0.200 NA
ATOM     38  C   UNL A   1     -25.026   6.479  26.963  0.00  0.00    +0.139 C 
ATOM     39  O   UNL A   1     -25.143   3.966  28.243  0.00  0.00    -0.269 OA
ENDBRANCH  30  36
BRANCH  33  40
ATOM     40  O   UNL A   1     -28.193  -0.208  24.477  0.00  0.00    -0.459 OA
BRANCH  40  41
ATOM     41  C   UNL A   1     -29.460   0.005  23.866  0.00  0.00    +0.242 C 
BRANCH  41  42
ATOM     42  C   UNL A   1     -30.065  -1.377  23.573  0.00  0.00    +0.229 C 
ATOM     43  O   UNL A   1     -30.729  -1.878  24.721  0.00  0.00    -0.216 OA
ENDBRANCH  41  42
ENDBRANCH  40  41
ENDBRANCH  33  40
ENDBRANCH  28  29
ENDBRANCH   8  28
TORSDOF 14
