MODEL 2251
MODEL 1
REMARK VINA RESULT:    -6.574      0.000      0.000
REMARK INTER + INTRA:          -7.301
REMARK INTER:                  -6.959
REMARK INTRA:                  -0.342
REMARK UNBOUND:                -0.342
REMARK  Name = No_2251-gen_results/8p0m/2024-11-27-11-27-31/
REMARK  1 active torsions:
REMARK  status: ('A' for Active; 'I' for Inactive)
REMARK    1  A    between atoms: C_2  and  C_8
REMARK                            x       y       z     vdW  Elec       q    Type
REMARK                         _______ _______ _______ _____ _____    ______ ____
ROOT
ATOM      1  C   UNL A   1     -24.420  -0.616  28.097  0.00  0.00    +0.001 A 
ATOM      2  C   UNL A   1     -23.908  -1.358  28.903  0.00  0.00    +0.000 A 
ATOM      3  C   UNL A   1     -22.591  -1.258  29.307  0.00  0.00    +0.001 A 
ATOM      4  C   UNL A   1     -21.808  -0.197  28.770  0.00  0.00    +0.011 A 
ATOM      5  C   UNL A   1     -22.470   0.704  28.008  0.00  0.00    +0.058 A 
ATOM      6  C   UNL A   1     -23.745   0.550  27.706  0.00  0.00    +0.011 A 
ATOM      7 CL   UNL A   1     -21.548   2.000  27.402  0.00  0.00    -0.082 Cl
ENDROOT
BRANCH   2   8
ATOM      8  C   UNL A   1     -24.648  -2.643  29.434  0.00  0.00    +0.000 A 
ATOM      9  C   UNL A   1     -24.205  -3.858  29.179  0.00  0.00    +0.000 A 
ATOM     10  C   UNL A   1     -25.059  -4.959  29.073  0.00  0.00    +0.000 A 
ATOM     11  C   UNL A   1     -26.328  -4.898  29.637  0.00  0.00    +0.000 A 
ATOM     12  C   UNL A   1     -26.841  -3.626  30.029  0.00  0.00    +0.000 A 
ATOM     13  C   UNL A   1     -26.008  -2.513  29.870  0.00  0.00    +0.000 A 
ENDBRANCH   2   8
TORSDOF 1
ENDMDL
ENDMDL
