MODEL 2252
MODEL 1
REMARK VINA RESULT:    -7.793      0.000      0.000
REMARK INTER + INTRA:         -11.515
REMARK INTER:                 -10.071
REMARK INTRA:                  -1.444
REMARK UNBOUND:                -1.444
REMARK  Name = No_2252-gen_results/8p0m/2024-11-27-11-27-31/
REMARK  5 active torsions:
REMARK  status: ('A' for Active; 'I' for Inactive)
REMARK    1  A    between atoms: C_3  and  C_7
REMARK    2  A    between atoms: C_7  and  C_8
REMARK    3  A    between atoms: C_7  and  C_9
REMARK    4  A    between atoms: C_8  and  C_18
REMARK    5  A    between atoms: C_9  and  C_10
REMARK                            x       y       z     vdW  Elec       q    Type
REMARK                         _______ _______ _______ _____ _____    ______ ____
ROOT
ATOM      1  C   UNL A   1     -24.410  -1.200  29.815  0.00  0.00    +0.031 C 
ENDROOT
BRANCH   1   4
ATOM      2  C   UNL A   1     -23.832  -3.379  28.870  0.00  0.00    -0.004 A 
ATOM      3  C   UNL A   1     -24.118  -4.383  28.728  0.00  0.00    -0.000 A 
ATOM      4  C   UNL A   1     -24.854  -2.566  29.528  0.00  0.00    -0.022 A 
ATOM      5  C   UNL A   1     -26.057  -3.091  29.931  0.00  0.00    -0.004 A 
ATOM      6  C   UNL A   1     -25.291  -5.198  29.046  0.00  0.00    -0.000 A 
ATOM      7  C   UNL A   1     -26.287  -4.420  29.683  0.00  0.00    -0.000 A 
ENDBRANCH   1   4
BRANCH   1   8
ATOM      8  C   UNL A   1     -23.377  -0.547  29.170  0.00  0.00    +0.027 C 
ATOM      9  C   UNL A   1     -22.080  -0.642  29.729  0.00  0.00    +0.005 C 
BRANCH   8  10
ATOM     10  C   UNL A   1     -23.593   0.176  28.027  0.00  0.00    -0.021 A 
ATOM     11  C   UNL A   1     -22.803   1.297  27.806  0.00  0.00    -0.004 A 
ATOM     12  C   UNL A   1     -22.971   2.023  26.613  0.00  0.00    +0.001 A 
ATOM     13  C   UNL A   1     -23.938   1.684  25.713  0.00  0.00    +0.011 A 
ATOM     14  C   UNL A   1     -24.713   0.546  25.916  0.00  0.00    +0.057 A 
ATOM     15  C   UNL A   1     -24.588  -0.175  27.034  0.00  0.00    +0.007 A 
ATOM     16 CL   UNL A   1     -25.934   0.200  24.701  0.00  0.00    -0.082 Cl
ENDBRANCH   8  10
ENDBRANCH   1   8
BRANCH   1  17
ATOM     17  C   UNL A   1     -25.273  -0.447  30.619  0.00  0.00    +0.030 C 
BRANCH  17  18
ATOM     18  C   UNL A   1     -25.271  -0.430  31.984  0.00  0.00    -0.030 C 
ATOM     19  C   UNL A   1     -24.178  -1.029  32.760  0.00  0.00    -0.030 C 
ATOM     20  C   UNL A   1     -24.253  -0.960  34.202  0.00  0.00    +0.030 C 
ENDBRANCH  17  18
ENDBRANCH   1  17
TORSDOF 5
ENDMDL
ENDMDL
