REMARK  Name = outputs/IAG933/test6/raw/output_2253_IAG933_linker_design_.xyz
REMARK  15 active torsions:
REMARK  status: ('A' for Active; 'I' for Inactive)
REMARK    1  A    between atoms: C_1  and  C_2
REMARK    2  A    between atoms: C_1  and  C_8
REMARK    3  A    between atoms: C_1  and  C_39
REMARK    4  A    between atoms: C_13  and  C_59
REMARK    5  A    between atoms: C_14  and  C_15
REMARK    6  A    between atoms: C_21  and  O_22
REMARK    7  A    between atoms: O_22  and  C_23
REMARK    8  A    between atoms: C_23  and  C_24
REMARK    9  A    between atoms: C_32  and  C_49
REMARK   10  A    between atoms: C_33  and  C_39
REMARK   11  A    between atoms: C_35  and  C_39
REMARK   12  A    between atoms: C_37  and  C_38
REMARK   13  A    between atoms: C_38  and  S_43
REMARK   14  A    between atoms: S_43  and  C_56
REMARK   15  A    between atoms: C_57  and  C_58
REMARK                            x       y       z     vdW  Elec       q    Type
REMARK                         _______ _______ _______ _____ _____    ______ ____
ROOT
ATOM      1  C   UNL A   1     -25.338  -0.025  29.094  0.00  0.00    +0.033 C 
ENDROOT
BRANCH   1   4
ATOM      2  C   UNL A   1     -22.218   1.101  27.449  0.00  0.00    +0.182 C 
ATOM      3  C   UNL A   1     -23.228   1.955  26.674  0.00  0.00    +0.040 C 
ATOM      4  C   UNL A   1     -24.345   0.221  28.026  0.00  0.00    +0.042 C 
ATOM      5  O   UNL A   1     -22.952   1.373  29.634  0.00  0.00    -0.220 OA
ATOM      6  O   UNL A   1     -21.096   1.870  27.850  0.00  0.00    -0.220 OA
ATOM      7  C   UNL A   1     -22.882   0.348  28.581  0.00  0.00    +0.183 C 
ATOM      8  C   UNL A   1     -24.610   1.373  27.104  0.00  0.00    +0.030 C 
BRANCH   8   9
ATOM      9  C   UNL A   1     -25.688   1.614  26.461  0.00  0.00    +0.016 C 
ATOM     10  C   UNL A   1     -26.250   2.920  26.395  0.00  0.00    +0.073 C 
ATOM     11  C   UNL A   1     -27.438   3.091  25.645  0.00  0.00    +0.106 C 
ATOM     12  N   UNL A   1     -28.075   2.089  25.003  0.00  0.00    -0.208 NA
ATOM     13  C   UNL A   1     -27.543   0.849  25.079  0.00  0.00    +0.253 C 
ATOM     14  C   UNL A   1     -26.354   0.576  25.777  0.00  0.00    +0.189 C 
ATOM     15  F   UNL A   1     -25.860  -0.681  25.795  0.00  0.00    -0.200 F 
BRANCH  10  16
ATOM     16  C   UNL A   1     -25.642   4.093  27.123  0.00  0.00    +0.266 C 
ATOM     17  N   UNL A   1     -25.614   5.252  26.449  0.00  0.00    -0.200 NA
ATOM     18  C   UNL A   1     -25.026   6.479  26.963  0.00  0.00    +0.139 C 
ATOM     19  O   UNL A   1     -25.143   3.966  28.243  0.00  0.00    -0.268 OA
ENDBRANCH  10  16
BRANCH  13  20
ATOM     20  O   UNL A   1     -28.193  -0.208  24.477  0.00  0.00    -0.456 OA
BRANCH  20  21
ATOM     21  C   UNL A   1     -29.460   0.005  23.866  0.00  0.00    +0.243 C 
BRANCH  21  22
ATOM     22  C   UNL A   1     -30.065  -1.377  23.573  0.00  0.00    +0.229 C 
ATOM     23  O   UNL A   1     -30.729  -1.878  24.721  0.00  0.00    -0.216 OA
ENDBRANCH  21  22
ENDBRANCH  20  21
ENDBRANCH  13  20
ENDBRANCH   8   9
ENDBRANCH   1   4
BRANCH   1  25
ATOM     24  C   UNL A   1     -27.909   0.598  29.128  0.00  0.00    +0.172 C 
ATOM     25  C   UNL A   1     -26.806  -0.312  28.813  0.00  0.00    +0.011 C 
ATOM     26  O   UNL A   1     -29.055   0.211  28.490  0.00  0.00    -0.292 OA
BRANCH  24  32
ATOM     27  C   UNL A   1     -28.416   3.472  31.570  0.00  0.00    +0.224 C 
ATOM     28  N   UNL A   1     -27.834   4.295  32.481  0.00  0.00    -0.093 NA
ATOM     29  N   UNL A   1     -25.762   5.552  32.270  0.00  0.00    +0.147 NA
ATOM     30  C   UNL A   1     -27.476   2.953  30.727  0.00  0.00    +0.217 C 
ATOM     31  N   UNL A   1     -26.317   3.713  30.904  0.00  0.00    -0.060 NA
ATOM     32  C   UNL A   1     -28.160   1.953  29.902  0.00  0.00    +0.103 C 
ATOM     33  C   UNL A   1     -26.648   4.520  31.893  0.00  0.00    +0.473 C 
ATOM     34  C   UNL A   1     -29.460   2.478  29.878  0.00  0.00    +0.021 C 
ATOM     35  C   UNL A   1     -29.785   3.264  31.040  0.00  0.00    +0.087 C 
BRANCH  35  42
ATOM     36  C   UNL A   1     -32.289   3.514  31.012  0.00  0.00    +0.147 C 
ATOM     37  N   UNL A   1     -31.022   4.325  32.825  0.00  0.00    -0.245 NA
ATOM     38  C   UNL A   1     -31.688   3.867  34.044  0.00  0.00    +0.102 C 
ATOM     39  O   UNL A   1     -33.465   2.988  31.695  0.00  0.00    -0.453 OA
ATOM     40  C   UNL A   1     -33.281   2.077  32.853  0.00  0.00    +0.181 C 
ATOM     41  C   UNL A   1     -32.283   2.418  34.052  0.00  0.00    +0.061 C 
ATOM     42  C   UNL A   1     -31.000   3.660  31.590  0.00  0.00    +0.093 C 
BRANCH  36  43
ATOM     43  C   UNL A   1     -32.410   3.244  29.510  0.00  0.00    +0.123 C 
BRANCH  43  44
ATOM     44  S   UNL A   1     -33.924   4.032  28.916  0.00  0.00    -0.133 S 
BRANCH  44  47
ATOM     45  C   UNL A   1     -35.580   5.091  30.960  0.00  0.00    +0.012 C 
ATOM     46  C   UNL A   1     -36.493   5.337  29.905  0.00  0.00    +0.012 C 
ATOM     47  C   UNL A   1     -35.499   4.194  29.782  0.00  0.00    +0.048 C 
ENDBRANCH  44  47
ENDBRANCH  43  44
ENDBRANCH  36  43
ENDBRANCH  35  42
ENDBRANCH  24  32
ENDBRANCH   1  25
BRANCH   1  48
ATOM     48  C   UNL A   1     -24.855  -1.012  30.143  0.00  0.00    +0.043 C 
BRANCH  48  49
ATOM     49  C   UNL A   1     -24.973  -2.505  29.788  0.00  0.00    -0.021 C 
ATOM     50  C   UNL A   1     -23.906  -3.173  29.146  0.00  0.00    -0.004 C 
ATOM     51  C   UNL A   1     -23.989  -4.549  28.853  0.00  0.00    -0.000 C 
ATOM     52  C   UNL A   1     -25.137  -5.280  29.205  0.00  0.00    -0.000 C 
ATOM     53  C   UNL A   1     -26.232  -4.611  29.784  0.00  0.00    -0.000 C 
ATOM     54  C   UNL A   1     -26.155  -3.232  30.065  0.00  0.00    -0.004 C 
ENDBRANCH  48  49
BRANCH  48  55
ATOM     55  C   UNL A   1     -25.387  -0.679  31.571  0.00  0.00    +0.077 C 
ATOM     56  C   UNL A   1     -25.189   0.773  32.028  0.00  0.00    +0.019 C 
ATOM     57  C   UNL A   1     -25.336   0.684  33.544  0.00  0.00    +0.020 C 
ATOM     58  C   UNL A   1     -24.829  -0.715  33.905  0.00  0.00    +0.089 C 
ATOM     59  N   UNL A   1     -24.758  -1.481  32.646  0.00  0.00    -0.219 NA
ENDBRANCH  48  55
ENDBRANCH   1  48
TORSDOF 15
