MODEL 2253
MODEL 1
REMARK VINA RESULT:    -4.225      0.000      0.000
REMARK INTER + INTRA:          -4.225
REMARK INTER:                  -4.225
REMARK INTRA:                   0.000
REMARK UNBOUND:                 0.000
REMARK  Name = No_2253-gen_results/8p0m/2024-11-27-11-27-31/
REMARK  0 active torsions:
REMARK  status: ('A' for Active; 'I' for Inactive)
REMARK                            x       y       z     vdW  Elec       q    Type
REMARK                         _______ _______ _______ _____ _____    ______ ____
ROOT
ATOM      1  C   UNL A   1     -26.189  -4.770  29.688  0.00  0.00    +0.000 A 
ATOM      2  C   UNL A   1     -26.197  -3.717  29.714  0.00  0.00    +0.000 A 
ATOM      3  C   UNL A   1     -25.049  -5.404  29.007  0.00  0.00    +0.000 A 
ATOM      4  C   UNL A   1     -23.955  -4.619  28.540  0.00  0.00    +0.000 A 
ATOM      5  C   UNL A   1     -25.180  -2.688  29.363  0.00  0.00    +0.000 A 
ATOM      6  C   UNL A   1     -24.111  -3.237  28.720  0.00  0.00    +0.000 A 
ENDROOT
TORSDOF 0
ENDMDL
ENDMDL
