MODEL 2254
MODEL 1
REMARK VINA RESULT:    -8.336      0.000      0.000
REMARK INTER + INTRA:         -11.733
REMARK INTER:                 -10.773
REMARK INTRA:                  -0.960
REMARK UNBOUND:                -0.960
REMARK  Name = No_2254-gen_results/8p0m/2024-11-27-11-27-31/
REMARK  5 active torsions:
REMARK  status: ('A' for Active; 'I' for Inactive)
REMARK    1  A    between atoms: C_2  and  C_11
REMARK    2  A    between atoms: C_3  and  C_4
REMARK    3  A    between atoms: C_6  and  C_14
REMARK    4  A    between atoms: N_21  and  C_22
REMARK    5  A    between atoms: C_28  and  C_32
REMARK                            x       y       z     vdW  Elec       q    Type
REMARK                         _______ _______ _______ _____ _____    ______ ____
ROOT
ATOM      1  C   UNL A   1     -24.281   0.296  27.587  0.00  0.00    +0.015 A 
ATOM      2  C   UNL A   1     -25.223   0.443  26.905  0.00  0.00    +0.072 A 
ATOM      3  C   UNL A   1     -25.393   1.487  25.820  0.00  0.00    +0.013 A 
ATOM      4  C   UNL A   1     -24.303   2.266  25.557  0.00  0.00    -0.001 A 
ATOM      5  C   UNL A   1     -23.163   2.056  26.317  0.00  0.00    -0.000 A 
ATOM      6  C   UNL A   1     -23.106   1.104  27.310  0.00  0.00    +0.001 A 
ATOM      7  C   UNL A   1     -26.658   1.585  25.039  0.00  0.00    +0.128 C 
ATOM      8  N   UNL A   1     -27.758   1.732  25.736  0.00  0.00    -0.214 N 
ATOM      9  C   UNL A   1     -27.896   0.909  26.860  0.00  0.00    +0.331 C 
ATOM     10  O   UNL A   1     -28.859   0.951  27.582  0.00  0.00    -0.250 OA
ATOM     11  N   UNL A   1     -26.725   0.228  27.196  0.00  0.00    -0.162 NA
ENDROOT
BRANCH   8  12
ATOM     12  C   UNL A   1     -28.725   2.588  25.303  0.00  0.00    +0.304 C 
ATOM     13  F   UNL A   1     -28.356   3.794  25.897  0.00  0.00    -0.188 F 
ATOM     14  N   UNL A   1     -30.087   2.390  25.708  0.00  0.00    -0.225 NA
ATOM     15  C   UNL A   1     -28.633   2.799  23.765  0.00  0.00    +0.046 C 
ATOM     16  C   UNL A   1     -29.457   2.120  23.048  0.00  0.00    -0.014 C 
ATOM     17  C   UNL A   1     -30.979   1.728  24.971  0.00  0.00    +0.080 C 
ATOM     18  C   UNL A   1     -30.786   1.475  23.728  0.00  0.00    +0.085 C 
BRANCH  18  19
ATOM     19  C   UNL A   1     -31.756   0.794  22.873  0.00  0.00    -0.021 C 
ATOM     20  C   UNL A   1     -32.379   1.404  21.935  0.00  0.00    -0.030 C 
ATOM     21  C   UNL A   1     -33.207   0.682  21.042  0.00  0.00    +0.030 C 
ENDBRANCH  18  19
ENDBRANCH   8  12
BRANCH   1  26
ATOM     22  C   UNL A   1     -24.071  -2.797  30.522  0.00  0.00    +0.010 A 
ATOM     23  C   UNL A   1     -24.274  -2.948  29.499  0.00  0.00    +0.080 A 
ATOM     24  C   UNL A   1     -23.867  -1.393  30.877  0.00  0.00    +0.072 A 
ATOM     25  C   UNL A   1     -24.401  -2.082  28.335  0.00  0.00    +0.007 A 
ATOM     26  C   UNL A   1     -24.202  -0.748  28.628  0.00  0.00    +0.001 A 
ATOM     27  C   UNL A   1     -23.986  -0.370  29.900  0.00  0.00    +0.004 A 
BRANCH  24  28
ATOM     28  C   UNL A   1     -23.673  -0.916  32.265  0.00  0.00    +0.419 C 
ATOM     29  F   UNL A   1     -24.272  -1.394  33.078  0.00  0.00    -0.166 F 
ATOM     30  F   UNL A   1     -23.808   0.382  32.304  0.00  0.00    -0.166 F 
ATOM     31  F   UNL A   1     -22.298  -1.070  32.650  0.00  0.00    -0.166 F 
ENDBRANCH  24  28
BRANCH  23  32
ATOM     32  C   UNL A   1     -24.594  -4.481  29.029  0.00  0.00    +0.388 C 
ATOM     33  O   UNL A   1     -25.613  -5.082  29.444  0.00  0.00    -0.241 OA
ATOM     34  O   UNL A   1     -23.855  -5.055  28.235  0.00  0.00    -0.241 OA
ENDBRANCH  23  32
ENDBRANCH   1  26
TORSDOF 5
ENDMDL
ENDMDL
