REMARK  Name = outputs/IAG933/test6/raw/output_2254_IAG933_linker_design_.xyz
REMARK  12 active torsions:
REMARK  status: ('A' for Active; 'I' for Inactive)
REMARK    1  A    between atoms: C_1  and  C_2
REMARK    2  A    between atoms: C_1  and  C_8
REMARK    3  A    between atoms: C_1  and  N_45
REMARK    4  A    between atoms: C_13  and  C_37
REMARK    5  A    between atoms: C_14  and  C_15
REMARK    6  A    between atoms: C_21  and  O_22
REMARK    7  A    between atoms: O_22  and  C_23
REMARK    8  A    between atoms: C_23  and  C_24
REMARK    9  A    between atoms: O_34  and  C_42
REMARK   10  A    between atoms: O_34  and  C_43
REMARK   11  A    between atoms: C_36  and  C_43
REMARK   12  A    between atoms: C_44  and  C_46
REMARK                            x       y       z     vdW  Elec       q    Type
REMARK                         _______ _______ _______ _____ _____    ______ ____
ROOT
ATOM      1  C   UNL A   1     -23.610   0.441  28.720  0.00  0.00    +0.069 C 
ATOM      2  C   UNL A   1     -25.093   1.186  27.622  0.00  0.00    +0.036 C 
ATOM      3  C   UNL A   1     -25.857   0.565  28.686  0.00  0.00    +0.194 C 
ATOM      4  C   UNL A   1     -23.699   1.183  27.643  0.00  0.00    +0.057 C 
ATOM      5  N   UNL A   1     -24.846  -0.012  29.243  0.00  0.00    -0.254 N 
ENDROOT
BRANCH   2   6
ATOM      6  C   UNL A   1     -25.688   1.614  26.461  0.00  0.00    +0.097 C 
ATOM      7  C   UNL A   1     -26.250   2.920  26.395  0.00  0.00    +0.059 C 
ATOM      8  C   UNL A   1     -27.438   3.091  25.645  0.00  0.00    +0.102 C 
ATOM      9  N   UNL A   1     -28.075   2.089  25.003  0.00  0.00    -0.212 NA
ATOM     10  C   UNL A   1     -27.543   0.849  25.079  0.00  0.00    +0.234 C 
ATOM     11  C   UNL A   1     -26.354   0.576  25.777  0.00  0.00    +0.244 C 
ATOM     12  F   UNL A   1     -25.860  -0.681  25.795  0.00  0.00    -0.227 F 
BRANCH   7  13
ATOM     13  C   UNL A   1     -25.642   4.093  27.123  0.00  0.00    +0.263 C 
ATOM     14  N   UNL A   1     -25.614   5.252  26.449  0.00  0.00    -0.200 NA
ATOM     15  C   UNL A   1     -25.026   6.479  26.963  0.00  0.00    +0.139 C 
ATOM     16  O   UNL A   1     -25.143   3.966  28.243  0.00  0.00    -0.269 OA
ENDBRANCH   7  13
BRANCH  10  17
ATOM     17  O   UNL A   1     -28.193  -0.208  24.477  0.00  0.00    -0.459 OA
BRANCH  17  18
ATOM     18  C   UNL A   1     -29.460   0.005  23.866  0.00  0.00    +0.242 C 
BRANCH  18  19
ATOM     19  C   UNL A   1     -30.065  -1.377  23.573  0.00  0.00    +0.229 C 
ATOM     20  O   UNL A   1     -30.729  -1.878  24.721  0.00  0.00    -0.216 OA
ENDBRANCH  18  19
ENDBRANCH  17  18
ENDBRANCH  10  17
ENDBRANCH   2   6
BRANCH   4  23
ATOM     21  O   UNL A   1     -22.787   2.222  25.548  0.00  0.00    -0.179 OA
ATOM     22  F   UNL A   1     -21.391   1.788  27.276  0.00  0.00    -0.196 F 
ATOM     23  C   UNL A   1     -22.606   1.740  26.738  0.00  0.00    +0.333 C 
ENDBRANCH   4  23
BRANCH   5  24
ATOM     24  C   UNL A   1     -24.855  -1.012  30.143  0.00  0.00    +0.118 C 
BRANCH  24  25
ATOM     25  C   UNL A   1     -24.973  -2.505  29.788  0.00  0.00    -0.003 C 
ATOM     26  C   UNL A   1     -23.906  -3.173  29.146  0.00  0.00    -0.003 C 
ATOM     27  C   UNL A   1     -23.989  -4.549  28.853  0.00  0.00    -0.000 C 
ATOM     28  C   UNL A   1     -25.137  -5.280  29.205  0.00  0.00    -0.000 C 
ATOM     29  C   UNL A   1     -26.232  -4.611  29.784  0.00  0.00    -0.000 C 
ATOM     30  C   UNL A   1     -26.155  -3.232  30.065  0.00  0.00    -0.003 C 
ENDBRANCH  24  25
BRANCH  24  31
ATOM     31  C   UNL A   1     -25.387  -0.679  31.571  0.00  0.00    +0.096 C 
ATOM     32  C   UNL A   1     -25.189   0.773  32.028  0.00  0.00    +0.021 C 
ATOM     33  C   UNL A   1     -25.336   0.684  33.544  0.00  0.00    +0.020 C 
ATOM     34  C   UNL A   1     -24.829  -0.715  33.905  0.00  0.00    +0.089 C 
ATOM     35  N   UNL A   1     -24.758  -1.481  32.646  0.00  0.00    -0.217 NA
ENDBRANCH  24  31
ENDBRANCH   5  24
BRANCH   3  36
ATOM     36  O   UNL A   1     -27.268   0.572  28.794  0.00  0.00    -0.453 OA
BRANCH  36  37
ATOM     37  C   UNL A   1     -28.362   0.403  29.710  0.00  0.00    +0.291 C 
BRANCH  37  42
ATOM     38  C   UNL A   1     -30.886   2.659  30.331  0.00  0.00    +0.101 C 
ATOM     39  C   UNL A   1     -29.287   4.512  28.727  0.00  0.00    +0.077 C 
ATOM     40  O   UNL A   1     -30.081   3.030  27.096  0.00  0.00    -0.275 OA
ATOM     41  O   UNL A   1     -29.984   0.112  28.028  0.00  0.00    -0.270 OA
ATOM     42  C   UNL A   1     -29.558   0.883  28.930  0.00  0.00    +0.276 C 
ATOM     43  N   UNL A   1     -30.053   2.182  29.171  0.00  0.00    -0.227 N 
ATOM     44  C   UNL A   1     -29.451   4.752  30.243  0.00  0.00    +0.011 C 
ATOM     45  C   UNL A   1     -30.021   5.622  27.960  0.00  0.00    +0.010 C 
ATOM     46  C   UNL A   1     -29.767   3.145  28.309  0.00  0.00    +0.231 C 
ATOM     47  C   UNL A   1     -30.814   4.179  30.719  0.00  0.00    +0.022 C 
ENDBRANCH  37  42
ENDBRANCH  36  37
ENDBRANCH   3  36
TORSDOF 12
