REMARK  Name = outputs/IAG933/test6/raw/output_2256_IAG933_linker_design_.xyz
REMARK  11 active torsions:
REMARK  status: ('A' for Active; 'I' for Inactive)
REMARK    1  A    between atoms: C_1  and  C_2
REMARK    2  A    between atoms: C_1  and  C_8
REMARK    3  A    between atoms: C_1  and  N_39
REMARK    4  A    between atoms: C_13  and  N_36
REMARK    5  A    between atoms: C_14  and  C_15
REMARK    6  A    between atoms: C_21  and  O_22
REMARK    7  A    between atoms: O_22  and  C_23
REMARK    8  A    between atoms: C_23  and  C_24
REMARK    9  A    between atoms: C_28  and  N_36
REMARK   10  A    between atoms: C_30  and  N_39
REMARK   11  A    between atoms: N_32  and  C_33
REMARK                            x       y       z     vdW  Elec       q    Type
REMARK                         _______ _______ _______ _____ _____    ______ ____
ROOT
ATOM      1  C   UNL A   1     -23.553   1.236  27.353  0.00  0.00    +0.118 C 
ATOM      2  C   UNL A   1     -23.687   0.490  28.488  0.00  0.00    +0.076 C 
ATOM      3  C   UNL A   1     -22.365   0.023  28.843  0.00  0.00    +0.072 C 
ATOM      4  O   UNL A   1     -21.362   1.417  27.099  0.00  0.00    -0.443 OA
ATOM      5  N   UNL A   1     -20.002   0.085  28.455  0.00  0.00    -0.088 NA
ATOM      6 CL   UNL A   1     -22.928   2.471  25.048  0.00  0.00    -0.062 Cl
ATOM      7  C   UNL A   1     -22.636   1.649  26.583  0.00  0.00    +0.286 C 
ATOM      8  C   UNL A   1     -21.179   0.521  28.175  0.00  0.00    +0.233 C 
ENDROOT
BRANCH   2  10
ATOM      9  C   UNL A   1     -26.189   0.731  29.148  0.00  0.00    +0.334 C 
ATOM     10  N   UNL A   1     -24.933   0.118  29.170  0.00  0.00    -0.237 N 
ATOM     11  O   UNL A   1     -27.143   0.058  28.786  0.00  0.00    -0.250 OA
BRANCH   9  13
ATOM     12  O   UNL A   1     -26.547   4.117  30.737  0.00  0.00    -0.263 OA
ATOM     13  N   UNL A   1     -26.292   1.979  29.603  0.00  0.00    -0.119 NA
ATOM     14  C   UNL A   1     -27.044   2.955  30.180  0.00  0.00    +0.328 C 
ENDBRANCH   9  13
BRANCH  10  15
ATOM     15  C   UNL A   1     -24.855  -1.012  30.143  0.00  0.00    +0.120 C 
BRANCH  15  16
ATOM     16  C   UNL A   1     -24.973  -2.505  29.788  0.00  0.00    -0.003 C 
ATOM     17  C   UNL A   1     -23.906  -3.173  29.146  0.00  0.00    -0.003 C 
ATOM     18  C   UNL A   1     -23.989  -4.549  28.853  0.00  0.00    -0.000 C 
ATOM     19  C   UNL A   1     -25.137  -5.280  29.205  0.00  0.00    -0.000 C 
ATOM     20  C   UNL A   1     -26.232  -4.611  29.784  0.00  0.00    -0.000 C 
ATOM     21  C   UNL A   1     -26.155  -3.232  30.065  0.00  0.00    -0.003 C 
ENDBRANCH  15  16
BRANCH  15  22
ATOM     22  C   UNL A   1     -25.387  -0.679  31.571  0.00  0.00    +0.096 C 
ATOM     23  C   UNL A   1     -25.189   0.773  32.028  0.00  0.00    +0.021 C 
ATOM     24  C   UNL A   1     -25.336   0.684  33.544  0.00  0.00    +0.020 C 
ATOM     25  C   UNL A   1     -24.829  -0.715  33.905  0.00  0.00    +0.089 C 
ATOM     26  N   UNL A   1     -24.758  -1.481  32.646  0.00  0.00    -0.217 NA
ENDBRANCH  15  22
ENDBRANCH  10  15
ENDBRANCH   2  10
BRANCH   1  27
ATOM     27  N   UNL A   1     -24.621   1.381  27.060  0.00  0.00    -0.208 NA
BRANCH  27  28
ATOM     28  C   UNL A   1     -25.688   1.614  26.461  0.00  0.00    +0.108 C 
ATOM     29  C   UNL A   1     -26.250   2.920  26.395  0.00  0.00    +0.092 C 
ATOM     30  C   UNL A   1     -27.438   3.091  25.645  0.00  0.00    +0.108 C 
ATOM     31  N   UNL A   1     -28.075   2.089  25.003  0.00  0.00    -0.208 NA
ATOM     32  C   UNL A   1     -27.543   0.849  25.079  0.00  0.00    +0.255 C 
ATOM     33  C   UNL A   1     -26.354   0.576  25.777  0.00  0.00    +0.208 C 
ATOM     34  F   UNL A   1     -25.860  -0.681  25.795  0.00  0.00    -0.198 F 
BRANCH  29  35
ATOM     35  C   UNL A   1     -25.642   4.093  27.123  0.00  0.00    +0.268 C 
ATOM     36  N   UNL A   1     -25.614   5.252  26.449  0.00  0.00    -0.200 NA
ATOM     37  C   UNL A   1     -25.026   6.479  26.963  0.00  0.00    +0.139 C 
ATOM     38  O   UNL A   1     -25.143   3.966  28.243  0.00  0.00    -0.268 OA
ENDBRANCH  29  35
BRANCH  32  39
ATOM     39  O   UNL A   1     -28.193  -0.208  24.477  0.00  0.00    -0.456 OA
BRANCH  39  40
ATOM     40  C   UNL A   1     -29.460   0.005  23.866  0.00  0.00    +0.243 C 
BRANCH  40  41
ATOM     41  C   UNL A   1     -30.065  -1.377  23.573  0.00  0.00    +0.229 C 
ATOM     42  O   UNL A   1     -30.729  -1.878  24.721  0.00  0.00    -0.216 OA
ENDBRANCH  40  41
ENDBRANCH  39  40
ENDBRANCH  32  39
ENDBRANCH  27  28
ENDBRANCH   1  27
TORSDOF 11
