MODEL 2256
MODEL 1
REMARK VINA RESULT:    -7.042      0.000      0.000
REMARK INTER + INTRA:         -11.798
REMARK INTER:                 -10.336
REMARK INTRA:                  -1.462
REMARK UNBOUND:                -1.462
REMARK  Name = No_2256-gen_results/8p0m/2024-11-27-11-27-31/
REMARK  8 active torsions:
REMARK  status: ('A' for Active; 'I' for Inactive)
REMARK    1  A    between atoms: C_1  and  C_2
REMARK    2  A    between atoms: C_1  and  N_8
REMARK    3  A    between atoms: C_20  and  C_21
REMARK    4  A    between atoms: C_25  and  C_26
REMARK    5  A    between atoms: C_26  and  C_29
REMARK    6  A    between atoms: C_29  and  C_32
REMARK    7  A    between atoms: C_32  and  N_33
REMARK    8  A    between atoms: N_33  and  C_34
REMARK                            x       y       z     vdW  Elec       q    Type
REMARK                         _______ _______ _______ _____ _____    ______ ____
ROOT
ATOM      1  N   UNL A   1      -8.663   2.337  34.444  0.00  0.00    -0.277 N 
ATOM      2  C   UNL A   1      -8.307   3.032  33.805  0.00  0.00    +0.226 C 
ATOM      3  O   UNL A   1      -8.757   3.025  32.620  0.00  0.00    -0.275 OA
ATOM      4  C   UNL A   1      -7.146   4.085  34.091  0.00  0.00    +0.085 C 
ATOM      5  C   UNL A   1      -6.052   3.673  34.594  0.00  0.00    +0.010 C 
ATOM      6  C   UNL A   1      -6.215   3.232  35.950  0.00  0.00    +0.002 C 
ATOM      7  C   UNL A   1      -7.009   1.978  36.276  0.00  0.00    +0.020 C 
ATOM      8  C   UNL A   1      -7.649   1.656  35.580  0.00  0.00    +0.076 C 
ATOM      9  C   UNL A   1      -5.356   3.856  37.018  0.00  0.00    +0.000 C 
ENDROOT
BRANCH   8  10
ATOM     10  C   UNL A   1      -6.860   0.486  34.901  0.00  0.00    +0.018 C 
ATOM     11  C   UNL A   1      -7.551  -0.816  35.112  0.00  0.00    +0.002 C 
ATOM     12  C   UNL A   1      -7.023  -1.831  34.112  0.00  0.00    +0.000 C 
ATOM     13  C   UNL A   1      -5.486   0.058  35.499  0.00  0.00    +0.002 C 
ATOM     14  C   UNL A   1      -4.855  -1.000  34.759  0.00  0.00    +0.005 C 
ATOM     15  C   UNL A   1      -5.619  -2.218  34.430  0.00  0.00    +0.000 C 
BRANCH  14  16
ATOM     16  C   UNL A   1      -3.442  -1.315  35.124  0.00  0.00    +0.068 C 
BRANCH  16  17
ATOM     17  C   UNL A   1      -2.618  -0.433  34.561  0.00  0.00    +0.283 C 
ATOM     18  F   UNL A   1      -2.205   0.482  35.212  0.00  0.00    -0.202 F 
ATOM     19  F   UNL A   1      -3.181   0.093  33.406  0.00  0.00    -0.202 F 
BRANCH  17  20
ATOM     20  C   UNL A   1      -1.302  -1.081  33.990  0.00  0.00    +0.178 C 
BRANCH  20  21
ATOM     21  N   UNL A   1      -1.232  -2.203  33.677  0.00  0.00    -0.231 NA
BRANCH  21  22
ATOM     22  C   UNL A   1      -0.974  -2.708  32.490  0.00  0.00    +0.080 C 
ATOM     23  C   UNL A   1      -0.977  -1.848  31.312  0.00  0.00    +0.019 C 
ENDBRANCH  21  22
ENDBRANCH  20  21
ENDBRANCH  17  20
ENDBRANCH  16  17
ENDBRANCH  14  16
ENDBRANCH   8  10
BRANCH   1  24
ATOM     24  C   UNL A   1      -9.588   1.290  34.549  0.00  0.00    +0.120 C 
BRANCH  24  25
ATOM     25  C   UNL A   1     -10.710   1.591  34.885  0.00  0.00    -0.002 A 
ATOM     26  C   UNL A   1     -11.022   1.822  36.220  0.00  0.00    -0.003 A 
ATOM     27  C   UNL A   1     -12.364   2.187  36.760  0.00  0.00    +0.001 A 
ATOM     28  C   UNL A   1     -13.369   2.473  35.790  0.00  0.00    +0.017 A 
ATOM     29  C   UNL A   1     -13.014   2.291  34.438  0.00  0.00    +0.001 A 
ATOM     30  C   UNL A   1     -11.800   1.908  34.016  0.00  0.00    -0.003 A 
ATOM     31  C   UNL A   1     -14.490   3.034  36.457  0.00  0.00    +0.089 A 
ATOM     32  N   UNL A   1     -15.544   3.384  35.723  0.00  0.00    -0.128 NA
ATOM     33  C   UNL A   1     -14.682   3.252  37.828  0.00  0.00    +0.018 A 
ATOM     34  C   UNL A   1     -13.802   2.911  38.811  0.00  0.00    +0.001 A 
ATOM     35  C   UNL A   1     -12.483   2.426  38.245  0.00  0.00    +0.000 A 
ENDBRANCH  24  25
ENDBRANCH   1  24
TORSDOF 8
ENDMDL
ENDMDL
