MODEL 2257
MODEL 1
REMARK VINA RESULT:    -6.914      0.000      0.000
REMARK INTER + INTRA:          -8.423
REMARK INTER:                  -8.126
REMARK INTRA:                  -0.297
REMARK UNBOUND:                -0.297
REMARK  Name = No_2257-gen_results/8p0m/2024-11-27-11-27-31/
REMARK  3 active torsions:
REMARK  status: ('A' for Active; 'I' for Inactive)
REMARK    1  A    between atoms: C_2  and  C_3
REMARK    2  A    between atoms: C_3  and  C_5
REMARK    3  A    between atoms: N_4  and  C_7
REMARK                            x       y       z     vdW  Elec       q    Type
REMARK                         _______ _______ _______ _____ _____    ______ ____
ROOT
ATOM      1  O   UNL A   1     -21.803  -0.742  29.407  0.00  0.00    -0.273 OA
ATOM      2  C   UNL A   1     -22.812  -0.998  28.912  0.00  0.00    +0.250 C 
ATOM      3  N   UNL A   1     -23.169  -2.487  29.106  0.00  0.00    -0.179 NA
ENDROOT
BRANCH   3   4
ATOM      4  C   UNL A   1     -24.074  -3.037  29.168  0.00  0.00    +0.073 A 
ATOM      5  C   UNL A   1     -24.032  -4.320  28.677  0.00  0.00    +0.017 A 
ATOM      6  C   UNL A   1     -25.026  -5.179  29.049  0.00  0.00    +0.001 A 
ATOM      7  C   UNL A   1     -26.259  -4.768  29.666  0.00  0.00    +0.000 A 
ATOM      8  C   UNL A   1     -26.336  -3.396  30.050  0.00  0.00    +0.001 A 
ATOM      9  C   UNL A   1     -25.317  -2.634  29.917  0.00  0.00    +0.017 A 
ENDBRANCH   3   4
BRANCH   2  10
ATOM     10  C   UNL A   1     -23.622  -0.537  28.358  0.00  0.00    +0.114 C 
BRANCH  10  11
ATOM     11  C   UNL A   1     -23.997   0.042  27.602  0.00  0.00    -0.013 A 
ATOM     12  C   UNL A   1     -23.656   1.380  26.919  0.00  0.00    -0.004 A 
ATOM     13  C   UNL A   1     -24.352   2.005  25.879  0.00  0.00    -0.000 A 
ATOM     14  C   UNL A   1     -25.534   1.353  25.509  0.00  0.00    -0.000 A 
ATOM     15  C   UNL A   1     -25.991   0.196  25.979  0.00  0.00    -0.000 A 
ATOM     16  C   UNL A   1     -25.274  -0.423  26.919  0.00  0.00    -0.004 A 
ENDBRANCH  10  11
ENDBRANCH   2  10
TORSDOF 3
ENDMDL
ENDMDL
