REMARK  Name = No_2257-gen_results/8p0m/2024-11-27-11-27-31/
REMARK  3 active torsions:
REMARK  status: ('A' for Active; 'I' for Inactive)
REMARK    1  A    between atoms: C_2  and  C_3
REMARK    2  A    between atoms: C_3  and  C_5
REMARK    3  A    between atoms: N_4  and  C_7
REMARK                            x       y       z     vdW  Elec       q    Type
REMARK                         _______ _______ _______ _____ _____    ______ ____
ROOT
ATOM      1  O   UNL A   1     -28.123  -1.335  28.487  0.00  0.00    -0.273 OA
ATOM      2  C   UNL A   1     -27.481  -0.404  28.709  0.00  0.00    +0.250 C 
ATOM      3  N   UNL A   1     -26.816   0.137  27.426  0.00  0.00    -0.179 NA
ENDROOT
BRANCH   3   4
ATOM      4  C   UNL A   1     -26.494   1.092  27.096  0.00  0.00    +0.073 A 
ATOM      5  C   UNL A   1     -27.384   1.790  26.315  0.00  0.00    +0.017 A 
ATOM      6  C   UNL A   1     -27.188   3.133  26.167  0.00  0.00    +0.001 A 
ATOM      7  C   UNL A   1     -25.969   3.814  26.515  0.00  0.00    +0.000 A 
ATOM      8  C   UNL A   1     -24.997   3.034  27.210  0.00  0.00    +0.001 A 
ATOM      9  C   UNL A   1     -25.269   1.834  27.561  0.00  0.00    +0.017 A 
ENDBRANCH   3   4
BRANCH   2  10
ATOM     10  C   UNL A   1     -27.190   0.246  29.527  0.00  0.00    +0.114 C 
BRANCH  10  11
ATOM     11  C   UNL A   1     -26.518   0.616  30.204  0.00  0.00    -0.013 A 
ATOM     12  C   UNL A   1     -26.545   1.196  31.631  0.00  0.00    -0.004 A 
ATOM     13  C   UNL A   1     -25.460   1.673  32.375  0.00  0.00    -0.000 A 
ATOM     14  C   UNL A   1     -24.249   1.690  31.673  0.00  0.00    -0.000 A 
ATOM     15  C   UNL A   1     -24.029   1.233  30.444  0.00  0.00    -0.000 A 
ATOM     16  C   UNL A   1     -25.062   0.713  29.777  0.00  0.00    -0.004 A 
ENDBRANCH  10  11
ENDBRANCH   2  10
TORSDOF 3
