MODEL 2258
MODEL 1
REMARK VINA RESULT:    -6.489      0.000      0.000
REMARK INTER + INTRA:          -7.139
REMARK INTER:                  -6.868
REMARK INTRA:                  -0.271
REMARK UNBOUND:                -0.271
REMARK  Name = No_2258-gen_results/8p0m/2024-11-27-11-27-31/
REMARK  1 active torsions:
REMARK  status: ('A' for Active; 'I' for Inactive)
REMARK    1  A    between atoms: C_4  and  C_7
REMARK                            x       y       z     vdW  Elec       q    Type
REMARK                         _______ _______ _______ _____ _____    ______ ____
ROOT
ATOM      1  C   UNL A   1     -24.064   0.444  27.472  0.00  0.00    +0.030 A 
ATOM      2  C   UNL A   1     -23.094   0.648  27.828  0.00  0.00    +0.140 A 
ATOM      3  C   UNL A   1     -24.637  -0.895  27.879  0.00  0.00    +0.002 A 
ATOM      4  C   UNL A   1     -23.930  -1.699  28.797  0.00  0.00    -0.004 A 
ATOM      5  C   UNL A   1     -22.175   0.015  28.801  0.00  0.00    +0.030 A 
ATOM      6  C   UNL A   1     -22.672  -1.217  29.203  0.00  0.00    +0.002 A 
ATOM      7  F   UNL A   1     -22.527   1.921  27.399  0.00  0.00    -0.204 F 
ENDROOT
BRANCH   4   8
ATOM      8  C   UNL A   1     -24.412  -2.975  29.203  0.00  0.00    -0.026 C 
ATOM      9  C   UNL A   1     -25.633  -3.234  29.420  0.00  0.00    -0.030 C 
ATOM     10  C   UNL A   1     -26.133  -4.591  29.704  0.00  0.00    +0.026 C 
ATOM     11  C   UNL A   1     -23.988  -4.223  28.538  0.00  0.00    +0.026 C 
ATOM     12  C   UNL A   1     -25.102  -5.262  29.056  0.00  0.00    +0.009 C 
ENDBRANCH   4   8
TORSDOF 1
ENDMDL
ENDMDL
