MODEL 2259
MODEL 1
REMARK VINA RESULT:    -6.450      0.000      0.000
REMARK INTER + INTRA:          -7.213
REMARK INTER:                  -6.827
REMARK INTRA:                  -0.386
REMARK UNBOUND:                -0.386
REMARK  Name = No_2259-gen_results/8p0m/2024-11-27-11-27-31/
REMARK  1 active torsions:
REMARK  status: ('A' for Active; 'I' for Inactive)
REMARK    1  A    between atoms: C_3  and  C_7
REMARK                            x       y       z     vdW  Elec       q    Type
REMARK                         _______ _______ _______ _____ _____    ______ ____
ROOT
ATOM      1  C   UNL A   1     -22.345  -1.105  29.268  0.00  0.00    +0.000 A 
ATOM      2  C   UNL A   1     -21.924  -0.192  28.950  0.00  0.00    +0.000 A 
ATOM      3  C   UNL A   1     -23.704  -1.327  28.774  0.00  0.00    +0.000 A 
ATOM      4  C   UNL A   1     -24.340  -0.425  27.957  0.00  0.00    +0.000 A 
ATOM      5  C   UNL A   1     -22.348   0.924  28.106  0.00  0.00    +0.000 A 
ATOM      6  C   UNL A   1     -23.662   0.719  27.622  0.00  0.00    +0.000 A 
ENDROOT
BRANCH   3   7
ATOM      7  C   UNL A   1     -24.447  -2.588  29.079  0.00  0.00    +0.000 A 
ATOM      8  C   UNL A   1     -25.709  -2.427  29.544  0.00  0.00    +0.000 A 
ATOM      9  C   UNL A   1     -23.901  -3.839  28.859  0.00  0.00    +0.000 A 
ATOM     10  C   UNL A   1     -24.691  -4.961  28.920  0.00  0.00    +0.000 A 
ATOM     11  C   UNL A   1     -26.476  -3.598  29.865  0.00  0.00    +0.000 A 
ATOM     12  C   UNL A   1     -25.940  -4.865  29.502  0.00  0.00    +0.000 A 
ENDBRANCH   3   7
TORSDOF 1
ENDMDL
ENDMDL
