MODEL 2260
MODEL 1
REMARK VINA RESULT:    -6.534      0.000      0.000
REMARK INTER + INTRA:         -10.454
REMARK INTER:                  -9.208
REMARK INTRA:                  -1.247
REMARK UNBOUND:                -1.247
REMARK  Name = No_2260-gen_results/8p0m/2024-11-27-11-27-31/
REMARK  7 active torsions:
REMARK  status: ('A' for Active; 'I' for Inactive)
REMARK    1  A    between atoms: C_1  and  C_2
REMARK    2  A    between atoms: C_1  and  N_8
REMARK    3  A    between atoms: C_5  and  C_10
REMARK    4  A    between atoms: C_9  and  C_14
REMARK    5  A    between atoms: C_14  and  N_15
REMARK    6  A    between atoms: C_14  and  C_16
REMARK    7  A    between atoms: C_16  and  C_17
REMARK                            x       y       z     vdW  Elec       q    Type
REMARK                         _______ _______ _______ _____ _____    ______ ____
ROOT
ATOM      1  N   UNL A   1      -8.947   0.729  33.914  0.00  0.00    -0.199 NA
ATOM      2  C   UNL A   1     -10.119   1.416  33.839  0.00  0.00    +0.264 C 
ATOM      3  O   UNL A   1     -10.870   1.315  32.920  0.00  0.00    -0.271 OA
ENDROOT
BRANCH   1   4
ATOM      4  C   UNL A   1      -8.496   0.319  35.150  0.00  0.00    +0.141 C 
BRANCH   4   5
ATOM      5  C   UNL A   1      -7.407  -0.208  35.139  0.00  0.00    -0.001 A 
ATOM      6  C   UNL A   1      -7.233  -1.484  34.614  0.00  0.00    -0.002 A 
ATOM      7  C   UNL A   1      -5.951  -2.243  34.553  0.00  0.00    +0.006 A 
ATOM      8  C   UNL A   1      -4.780  -1.520  34.928  0.00  0.00    +0.080 A 
ATOM      9  C   UNL A   1      -4.972  -0.207  35.400  0.00  0.00    +0.006 A 
ATOM     10  C   UNL A   1      -6.163   0.405  35.482  0.00  0.00    -0.002 A 
BRANCH   8  11
ATOM     11  C   UNL A   1      -3.529  -2.238  34.833  0.00  0.00    +0.388 C 
ATOM     12  O   UNL A   1      -2.811  -2.342  35.812  0.00  0.00    -0.241 OA
ATOM     13  O   UNL A   1      -2.903  -2.431  33.617  0.00  0.00    -0.241 OA
ENDBRANCH   8  11
ENDBRANCH   4   5
ENDBRANCH   1   4
BRANCH   2  14
ATOM     14  C   UNL A   1     -10.478   2.420  34.975  0.00  0.00    +0.197 C 
BRANCH  14  15
ATOM     15  N   UNL A   1     -11.543   2.558  35.271  0.00  0.00    -0.262 NA
ATOM     16  C   UNL A   1     -12.506   3.057  35.412  0.00  0.00    +0.058 C 
ATOM     17  C   UNL A   1     -13.249   3.462  36.346  0.00  0.00    +0.016 C 
ATOM     18  C   UNL A   1     -13.593   2.545  34.360  0.00  0.00    +0.017 C 
ATOM     19  C   UNL A   1     -11.725   1.464  36.673  0.00  0.00    +0.073 C 
ATOM     20  C   UNL A   1     -12.401   1.932  37.735  0.00  0.00    +0.017 C 
ATOM     21  C   UNL A   1     -13.372   2.879  37.558  0.00  0.00    +0.003 C 
ENDBRANCH  14  15
BRANCH  14  22
ATOM     22  C   UNL A   1      -9.718   3.728  34.683  0.00  0.00    +0.206 C 
ATOM     23  O   UNL A   1      -9.430   4.115  33.560  0.00  0.00    -0.291 OA
BRANCH  22  24
ATOM     24  C   UNL A   1      -8.904   4.087  35.838  0.00  0.00    +0.220 C 
ATOM     25  C   UNL A   1      -7.482   3.927  35.582  0.00  0.00    +0.046 C 
ATOM     26  F   UNL A   1      -9.261   4.230  36.888  0.00  0.00    -0.229 F 
ENDBRANCH  22  24
ENDBRANCH  14  22
ENDBRANCH   2  14
TORSDOF 7
ENDMDL
ENDMDL
