MODEL 2261
MODEL 1
REMARK VINA RESULT:    -7.899      0.000      0.000
REMARK INTER + INTRA:          -8.896
REMARK INTER:                  -8.823
REMARK INTRA:                  -0.073
REMARK UNBOUND:                -0.073
REMARK  Name = No_2261-gen_results/8p0m/2024-11-27-11-27-31/
REMARK  2 active torsions:
REMARK  status: ('A' for Active; 'I' for Inactive)
REMARK    1  A    between atoms: C_2  and  C_3
REMARK    2  A    between atoms: C_13  and  C_17
REMARK                            x       y       z     vdW  Elec       q    Type
REMARK                         _______ _______ _______ _____ _____    ______ ____
ROOT
ATOM      1  O   UNL A   1     -22.474  -1.657  29.236  0.00  0.00    -0.270 OA
ATOM      2  C   UNL A   1     -23.461  -1.322  28.745  0.00  0.00    +0.253 C 
ATOM      3  N   UNL A   1     -23.655   0.011  28.183  0.00  0.00    -0.253 N 
ATOM      4  C   UNL A   1     -22.480   0.831  28.070  0.00  0.00    +0.068 C 
ATOM      5  C   UNL A   1     -24.832   0.440  27.597  0.00  0.00    +0.111 C 
ATOM      6  C   UNL A   1     -24.620   0.820  26.130  0.00  0.00    +0.137 C 
ATOM      7  C   UNL A   1     -23.836   1.993  26.051  0.00  0.00    -0.016 C 
ATOM      8  C   UNL A   1     -23.324   2.399  27.004  0.00  0.00    -0.003 C 
ATOM      9  C   UNL A   1     -22.275   1.807  27.279  0.00  0.00    +0.016 C 
ENDROOT
BRANCH   2  10
ATOM     10  C   UNL A   1     -24.616  -2.068  28.866  0.00  0.00    +0.054 A 
ATOM     11  C   UNL A   1     -25.667  -1.537  29.624  0.00  0.00    +0.005 A 
ATOM     12  C   UNL A   1     -26.743  -2.394  30.194  0.00  0.00    +0.011 A 
ATOM     13  C   UNL A   1     -26.693  -3.756  29.881  0.00  0.00    +0.058 A 
ATOM     14  C   UNL A   1     -25.640  -4.290  29.137  0.00  0.00    +0.011 A 
ATOM     15  C   UNL A   1     -24.638  -3.516  28.733  0.00  0.00    +0.005 A 
ATOM     16 CL   UNL A   1     -27.911  -4.735  30.612  0.00  0.00    -0.082 Cl
ENDBRANCH   2  10
BRANCH   6  17
ATOM     17  C   UNL A   1     -25.250   0.054  25.121  0.00  0.00    +0.403 C 
ATOM     18  F   UNL A   1     -25.489  -1.032  25.387  0.00  0.00    -0.170 F 
ATOM     19  F   UNL A   1     -26.450   0.718  24.776  0.00  0.00    -0.170 F 
ATOM     20  F   UNL A   1     -24.433   0.061  24.025  0.00  0.00    -0.170 F 
ENDBRANCH   6  17
TORSDOF 2
ENDMDL
ENDMDL
