MODEL 2262
MODEL 1
REMARK VINA RESULT:    -6.852      0.000      0.000
REMARK INTER + INTRA:         -14.469
REMARK INTER:                 -10.057
REMARK INTRA:                  -4.412
REMARK UNBOUND:                -4.412
REMARK  Name = No_2262-gen_results/8p0m/2024-11-27-11-27-31/
REMARK  8 active torsions:
REMARK  status: ('A' for Active; 'I' for Inactive)
REMARK    1  A    between atoms: C_2  and  C_11
REMARK    2  A    between atoms: C_3  and  C_7
REMARK    3  A    between atoms: N_13  and  C_14
REMARK    4  A    between atoms: C_14  and  C_16
REMARK    5  A    between atoms: C_16  and  C_17
REMARK    6  A    between atoms: C_16  and  C_24
REMARK    7  A    between atoms: C_17  and  C_18
REMARK    8  A    between atoms: C_24  and  C_25
REMARK                            x       y       z     vdW  Elec       q    Type
REMARK                         _______ _______ _______ _____ _____    ______ ____
ROOT
ATOM      1  C   UNL A   1     -24.371   1.693  26.839  0.00  0.00    +0.046 C 
ENDROOT
BRANCH   1   2
ATOM      2  C   UNL A   1     -23.025   1.788  27.368  0.00  0.00    +0.052 C 
ATOM      3  C   UNL A   1     -22.004   1.889  26.506  0.00  0.00    +0.013 C 
BRANCH   2   6
ATOM      4  C   UNL A   1     -22.556   0.612  29.337  0.00  0.00    +0.269 C 
ATOM      5  O   UNL A   1     -21.816  -0.101  28.902  0.00  0.00    -0.268 OA
ATOM      6  N   UNL A   1     -22.889   1.831  28.581  0.00  0.00    -0.180 NA
BRANCH   4   8
ATOM      7  C   UNL A   1     -24.056   1.089  31.059  0.00  0.00    +0.008 A 
ATOM      8  C   UNL A   1     -23.397   0.352  30.696  0.00  0.00    +0.055 A 
ATOM      9  C   UNL A   1     -24.679   0.860  32.306  0.00  0.00    +0.072 A 
ATOM     10  C   UNL A   1     -24.454  -0.292  33.034  0.00  0.00    +0.004 A 
ATOM     11  C   UNL A   1     -23.567  -1.205  32.487  0.00  0.00    +0.000 A 
ATOM     12  C   UNL A   1     -22.955  -0.921  31.284  0.00  0.00    +0.005 A 
BRANCH   9  13
ATOM     13  C   UNL A   1     -25.620   1.834  32.949  0.00  0.00    +0.419 C 
ATOM     14  F   UNL A   1     -25.239   2.925  33.066  0.00  0.00    -0.166 F 
ATOM     15  F   UNL A   1     -26.889   1.891  32.294  0.00  0.00    -0.166 F 
ATOM     16  F   UNL A   1     -26.039   1.273  34.227  0.00  0.00    -0.166 F 
ENDBRANCH   9  13
ENDBRANCH   4   8
ENDBRANCH   2   6
ENDBRANCH   1   2
BRANCH   1  17
ATOM     17  C   UNL A   1     -25.055   0.404  26.695  0.00  0.00    +0.028 C 
ATOM     18  C   UNL A   1     -25.214  -0.044  25.257  0.00  0.00    +0.005 C 
BRANCH  17  19
ATOM     19  C   UNL A   1     -25.535  -0.246  27.671  0.00  0.00    -0.022 A 
ATOM     20  C   UNL A   1     -26.495   0.082  28.482  0.00  0.00    -0.004 A 
ATOM     21  C   UNL A   1     -26.980  -0.707  29.561  0.00  0.00    -0.000 A 
ATOM     22  C   UNL A   1     -26.356  -1.936  29.774  0.00  0.00    -0.000 A 
ATOM     23  C   UNL A   1     -25.333  -2.387  28.966  0.00  0.00    -0.000 A 
ATOM     24  C   UNL A   1     -24.902  -1.619  27.907  0.00  0.00    -0.004 A 
ENDBRANCH  17  19
ENDBRANCH   1  17
BRANCH   1  25
ATOM     25  C   UNL A   1     -25.066   2.824  26.376  0.00  0.00    +0.032 C 
BRANCH  25  26
ATOM     26  C   UNL A   1     -25.247   3.961  27.238  0.00  0.00    -0.022 A 
ATOM     27  C   UNL A   1     -24.859   5.185  26.807  0.00  0.00    -0.004 A 
ATOM     28  C   UNL A   1     -25.063   6.350  27.680  0.00  0.00    -0.000 A 
ATOM     29  C   UNL A   1     -25.726   6.134  28.813  0.00  0.00    -0.000 A 
ATOM     30  C   UNL A   1     -26.152   4.876  29.255  0.00  0.00    -0.000 A 
ATOM     31  C   UNL A   1     -25.928   3.783  28.462  0.00  0.00    -0.004 A 
ENDBRANCH  25  26
ENDBRANCH   1  25
TORSDOF 8
ENDMDL
ENDMDL
