REMARK  Name = No_2263-gen_results/8p0m/2024-11-27-11-27-31/
REMARK  5 active torsions:
REMARK  status: ('A' for Active; 'I' for Inactive)
REMARK    1  A    between atoms: C_3  and  C_8
REMARK    2  A    between atoms: C_6  and  O_7
REMARK    3  A    between atoms: O_7  and  C_14
REMARK    4  A    between atoms: C_27  and  C_31
REMARK    5  A    between atoms: C_32  and  C_33
REMARK                            x       y       z     vdW  Elec       q    Type
REMARK                         _______ _______ _______ _____ _____    ______ ____
ROOT
ATOM      1  C   UNL A   1     -29.994  -2.249  30.578  0.00  0.00    +0.269 C 
ATOM      2  C   UNL A   1     -31.039  -2.957  30.237  0.00  0.00    +0.268 C 
ATOM      3  O   UNL A   1     -31.906  -2.520  29.576  0.00  0.00    -0.271 OA
ATOM      4  N   UNL A   1     -31.204  -4.300  30.701  0.00  0.00    -0.278 N 
ATOM      5  C   UNL A   1     -32.215  -5.193  30.232  0.00  0.00    +0.093 C 
ATOM      6  C   UNL A   1     -31.958  -6.498  30.478  0.00  0.00    +0.022 C 
ATOM      7  C   UNL A   1     -30.906  -6.844  31.270  0.00  0.00    +0.004 C 
ATOM      8  C   UNL A   1     -29.871  -5.990  31.675  0.00  0.00    +0.020 C 
ATOM      9  C   UNL A   1     -30.031  -4.747  31.363  0.00  0.00    +0.075 C 
ATOM     10  C   UNL A   1     -29.922  -1.983  32.113  0.00  0.00    +0.172 C 
ATOM     11  C   UNL A   1     -29.416  -0.691  32.367  0.00  0.00    +0.035 C 
ATOM     12  C   UNL A   1     -30.000  -0.101  33.383  0.00  0.00    +0.003 C 
ATOM     13  C   UNL A   1     -30.579  -0.789  34.336  0.00  0.00    +0.004 C 
ATOM     14  C   UNL A   1     -31.181  -2.048  34.036  0.00  0.00    +0.025 C 
ATOM     15  C   UNL A   1     -30.654  -2.701  32.957  0.00  0.00    +0.038 C 
ATOM     16  C   UNL A   1     -30.738  -4.191  32.803  0.00  0.00    +0.023 C 
ATOM     17  O   UNL A   1     -28.480  -2.617  32.422  0.00  0.00    -0.221 OA
ENDROOT
BRANCH  14  18
ATOM     18  C   UNL A   1     -32.101  -2.743  34.970  0.00  0.00    -0.026 C 
ATOM     19  C   UNL A   1     -33.357  -2.576  34.706  0.00  0.00    -0.005 C 
BRANCH  19  20
ATOM     20  C   UNL A   1     -33.856  -1.677  33.751  0.00  0.00    -0.005 C 
ATOM     21  C   UNL A   1     -34.723  -1.527  33.222  0.00  0.00    -0.026 C 
ATOM     22  C   UNL A   1     -35.069  -0.501  32.173  0.00  0.00    +0.031 C 
ENDBRANCH  19  20
ENDBRANCH  14  18
BRANCH   1  23
ATOM     23  O   UNL A   1     -28.881  -2.755  30.112  0.00  0.00    -0.467 OA
BRANCH  23  29
ATOM     24  C   UNL A   1     -28.016  -0.814  28.878  0.00  0.00    +0.037 A 
ATOM     25  C   UNL A   1     -27.064  -0.119  28.608  0.00  0.00    +0.003 A 
ATOM     26  C   UNL A   1     -25.765  -0.390  29.036  0.00  0.00    +0.000 A 
ATOM     27  C   UNL A   1     -25.530  -1.530  29.901  0.00  0.00    +0.003 A 
ATOM     28  C   UNL A   1     -26.689  -2.289  30.181  0.00  0.00    +0.037 A 
ATOM     29  C   UNL A   1     -27.763  -1.962  29.739  0.00  0.00    +0.139 A 
BRANCH  26  30
ATOM     30  C   UNL A   1     -24.537   0.432  28.740  0.00  0.00    +0.000 A 
ATOM     31  C   UNL A   1     -24.490   1.280  27.742  0.00  0.00    +0.000 A 
ATOM     32  C   UNL A   1     -23.301   1.905  27.367  0.00  0.00    +0.000 A 
ATOM     33  C   UNL A   1     -22.074   1.630  28.001  0.00  0.00    +0.000 A 
ATOM     34  C   UNL A   1     -23.275   0.007  29.324  0.00  0.00    +0.000 A 
ATOM     35  C   UNL A   1     -22.073   0.679  28.966  0.00  0.00    +0.000 A 
ENDBRANCH  26  30
ENDBRANCH  23  29
ENDBRANCH   1  23
TORSDOF 5
