MODEL 2264
MODEL 1
REMARK VINA RESULT:    -4.184      0.000      0.000
REMARK INTER + INTRA:          -4.184
REMARK INTER:                  -4.184
REMARK INTRA:                   0.000
REMARK UNBOUND:                 0.000
REMARK  Name = No_2264-gen_results/8p0m/2024-11-27-11-27-31/
REMARK  0 active torsions:
REMARK  status: ('A' for Active; 'I' for Inactive)
REMARK                            x       y       z     vdW  Elec       q    Type
REMARK                         _______ _______ _______ _____ _____    ______ ____
ROOT
ATOM      1  C   UNL A   1     -25.316  -5.293  29.285  0.00  0.00    +0.000 A 
ATOM      2  C   UNL A   1     -26.215  -4.576  29.660  0.00  0.00    +0.000 A 
ATOM      3  C   UNL A   1     -26.111  -3.201  29.747  0.00  0.00    +0.000 A 
ATOM      4  C   UNL A   1     -24.889  -2.598  29.336  0.00  0.00    +0.000 A 
ATOM      5  C   UNL A   1     -23.980  -3.422  28.767  0.00  0.00    +0.000 A 
ATOM      6  C   UNL A   1     -24.181  -4.724  28.687  0.00  0.00    +0.000 A 
ENDROOT
TORSDOF 0
ENDMDL
ENDMDL
