MODEL 2265
MODEL 1
REMARK VINA RESULT:    -7.102      0.000      0.000
REMARK INTER + INTRA:          -8.590
REMARK INTER:                  -7.932
REMARK INTRA:                  -0.658
REMARK UNBOUND:                -0.658
REMARK  Name = No_2265-gen_results/8p0m/2024-11-27-11-27-31/
REMARK  3 active torsions:
REMARK  status: ('A' for Active; 'I' for Inactive)
REMARK    1  A    between atoms: C_4  and  C_11
REMARK    2  A    between atoms: C_12  and  C_13
REMARK    3  A    between atoms: C_14  and  C_15
REMARK                            x       y       z     vdW  Elec       q    Type
REMARK                         _______ _______ _______ _____ _____    ______ ____
ROOT
ATOM      1  C   UNL A   1     -26.796  -1.921  30.601  0.00  0.00    +0.000 A 
ATOM      2  C   UNL A   1     -27.741  -2.276  30.905  0.00  0.00    +0.000 A 
ATOM      3  C   UNL A   1     -26.025  -2.899  29.824  0.00  0.00    -0.000 A 
ATOM      4  C   UNL A   1     -24.772  -2.511  29.148  0.00  0.00    -0.000 A 
ATOM      5  C   UNL A   1     -23.822  -3.362  28.846  0.00  0.00    -0.000 A 
ATOM      6  C   UNL A   1     -28.314  -3.593  30.939  0.00  0.00    +0.000 A 
ATOM      7  C   UNL A   1     -27.625  -4.502  30.278  0.00  0.00    +0.000 A 
ATOM      8  C   UNL A   1     -26.450  -4.178  29.639  0.00  0.00    +0.000 A 
ATOM      9  C   UNL A   1     -24.164  -4.771  28.741  0.00  0.00    +0.000 A 
ATOM     10  C   UNL A   1     -25.491  -5.126  29.135  0.00  0.00    +0.000 A 
ENDROOT
BRANCH   4  11
ATOM     11  C   UNL A   1     -24.286  -1.100  29.138  0.00  0.00    -0.000 C 
ATOM     12  C   UNL A   1     -24.744  -0.299  28.146  0.00  0.00    -0.000 C 
BRANCH  12  13
ATOM     13  C   UNL A   1     -25.299  -0.685  27.049  0.00  0.00    -0.005 C 
ATOM     14  C   UNL A   1     -25.319   0.184  26.001  0.00  0.00    -0.026 C 
BRANCH  14  15
ATOM     15  C   UNL A   1     -25.936  -0.126  24.723  0.00  0.00    +0.026 C 
ATOM     16  C   UNL A   1     -25.189  -0.019  24.976  0.00  0.00    +0.005 C 
ENDBRANCH  14  15
ENDBRANCH  12  13
ENDBRANCH   4  11
TORSDOF 3
ENDMDL
ENDMDL
