MODEL 2266
MODEL 1
REMARK VINA RESULT:    -8.519      0.000      0.000
REMARK INTER + INTRA:         -12.655
REMARK INTER:                 -11.009
REMARK INTRA:                  -1.647
REMARK UNBOUND:                -1.647
REMARK  Name = No_2266-gen_results/8p0m/2024-11-27-11-27-31/
REMARK  5 active torsions:
REMARK  status: ('A' for Active; 'I' for Inactive)
REMARK    1  A    between atoms: C_5  and  C_9
REMARK    2  A    between atoms: N_11  and  C_12
REMARK    3  A    between atoms: C_12  and  C_13
REMARK    4  A    between atoms: C_12  and  C_20
REMARK    5  A    between atoms: C_26  and  C_27
REMARK                            x       y       z     vdW  Elec       q    Type
REMARK                         _______ _______ _______ _____ _____    ______ ____
ROOT
ATOM      1  C   UNL A   1     -25.280  -1.192  29.946  0.00  0.00    +0.140 C 
ENDROOT
BRANCH   1   2
ATOM      2  C   UNL A   1     -26.159  -0.701  29.062  0.00  0.00    +0.002 A 
ATOM      3  C   UNL A   1     -25.848  -0.440  27.673  0.00  0.00    +0.006 A 
ATOM      4  C   UNL A   1     -26.762   0.123  26.770  0.00  0.00    +0.092 A 
ATOM      5  C   UNL A   1     -28.077   0.470  27.251  0.00  0.00    +0.152 A 
ATOM      6  C   UNL A   1     -28.383   0.276  28.585  0.00  0.00    +0.037 A 
ATOM      7  C   UNL A   1     -27.466  -0.267  29.419  0.00  0.00    +0.001 A 
ATOM      8  O   UNL A   1     -28.999   1.003  26.449  0.00  0.00    -0.436 OA
ATOM      9  C   UNL A   1     -28.585   1.184  25.095  0.00  0.00    +0.232 A 
ATOM     10  N   UNL A   1     -27.397   0.954  24.673  0.00  0.00    -0.172 NA
ATOM     11  C   UNL A   1     -26.475   0.371  25.411  0.00  0.00    +0.285 A 
ATOM     12  O   UNL A   1     -25.353   0.124  24.944  0.00  0.00    -0.265 OA
BRANCH   9  13
ATOM     13  C   UNL A   1     -29.495   1.849  24.305  0.00  0.00    +0.054 A 
ATOM     14  C   UNL A   1     -29.991   2.963  24.768  0.00  0.00    +0.005 A 
ATOM     15  C   UNL A   1     -30.988   3.736  24.011  0.00  0.00    +0.000 A 
ATOM     16  C   UNL A   1     -31.443   3.155  22.802  0.00  0.00    +0.000 A 
ATOM     17  C   UNL A   1     -31.025   1.887  22.463  0.00  0.00    +0.000 A 
ATOM     18  C   UNL A   1     -30.079   1.240  23.234  0.00  0.00    +0.005 A 
ENDBRANCH   9  13
ENDBRANCH   1   2
BRANCH   1  19
ATOM     19  C   UNL A   1     -25.046  -2.650  29.667  0.00  0.00    +0.002 A 
ATOM     20  C   UNL A   1     -26.052  -3.488  29.941  0.00  0.00    -0.002 A 
ATOM     21  C   UNL A   1     -25.946  -4.882  29.645  0.00  0.00    -0.000 A 
ATOM     22  C   UNL A   1     -24.818  -5.307  28.929  0.00  0.00    -0.000 A 
ATOM     23  C   UNL A   1     -23.838  -4.420  28.574  0.00  0.00    -0.000 A 
ATOM     24  C   UNL A   1     -23.909  -3.071  28.935  0.00  0.00    -0.002 A 
ENDBRANCH   1  19
BRANCH   1  27
ATOM     25  C   UNL A   1     -24.678  -0.540  32.164  0.00  0.00    +0.265 C 
ATOM     26  O   UNL A   1     -23.610  -0.194  31.794  0.00  0.00    -0.268 OA
ATOM     27  N   UNL A   1     -25.590  -0.970  31.228  0.00  0.00    -0.194 NA
BRANCH  25  32
ATOM     28 CL   UNL A   1     -26.165  -0.328  37.661  0.00  0.00    -0.080 Cl
ATOM     29  C   UNL A   1     -25.758  -0.293  36.362  0.00  0.00    +0.085 A 
ATOM     30  C   UNL A   1     -24.714  -1.058  35.944  0.00  0.00    +0.014 A 
ATOM     31  C   UNL A   1     -24.275  -1.143  34.545  0.00  0.00    +0.006 A 
ATOM     32  C   UNL A   1     -25.069  -0.430  33.593  0.00  0.00    +0.057 A 
ATOM     33  C   UNL A   1     -26.168   0.250  34.014  0.00  0.00    +0.035 A 
ATOM     34  C   UNL A   1     -26.534   0.304  35.323  0.00  0.00    +0.151 A 
ATOM     35  F   UNL A   1     -27.577   0.997  35.654  0.00  0.00    -0.203 F 
ENDBRANCH  25  32
ENDBRANCH   1  27
TORSDOF 5
ENDMDL
ENDMDL
