REMARK  Name = No_2266-gen_results/8p0m/2024-11-27-11-27-31/
REMARK  5 active torsions:
REMARK  status: ('A' for Active; 'I' for Inactive)
REMARK    1  A    between atoms: C_5  and  C_9
REMARK    2  A    between atoms: N_11  and  C_12
REMARK    3  A    between atoms: C_12  and  C_13
REMARK    4  A    between atoms: C_12  and  C_20
REMARK    5  A    between atoms: C_26  and  C_27
REMARK                            x       y       z     vdW  Elec       q    Type
REMARK                         _______ _______ _______ _____ _____    ______ ____
ROOT
ATOM      1  C   UNL A   1     -26.352   6.497  30.989  0.00  0.00    +0.140 C 
ENDROOT
BRANCH   1   2
ATOM      2  C   UNL A   1     -25.230   6.685  31.698  0.00  0.00    +0.002 A 
ATOM      3  C   UNL A   1     -24.312   7.782  31.480  0.00  0.00    +0.006 A 
ATOM      4  C   UNL A   1     -23.114   7.939  32.193  0.00  0.00    +0.092 A 
ATOM      5  C   UNL A   1     -22.774   6.952  33.189  0.00  0.00    +0.152 A 
ATOM      6  C   UNL A   1     -23.610   5.869  33.382  0.00  0.00    +0.037 A 
ATOM      7  C   UNL A   1     -24.753   5.759  32.666  0.00  0.00    +0.001 A 
ATOM      8  O   UNL A   1     -21.656   7.040  33.910  0.00  0.00    -0.436 OA
ATOM      9  C   UNL A   1     -20.846   8.181  33.626  0.00  0.00    +0.232 A 
ATOM     10  N   UNL A   1     -21.096   9.021  32.692  0.00  0.00    -0.172 NA
ATOM     11  C   UNL A   1     -22.216   9.010  31.999  0.00  0.00    +0.285 A 
ATOM     12  O   UNL A   1     -22.436   9.874  31.137  0.00  0.00    -0.265 OA
BRANCH   9  13
ATOM     13  C   UNL A   1     -19.636   8.198  34.282  0.00  0.00    +0.054 A 
ATOM     14  C   UNL A   1     -19.655   8.060  35.579  0.00  0.00    +0.005 A 
ATOM     15  C   UNL A   1     -18.417   8.087  36.374  0.00  0.00    +0.000 A 
ATOM     16  C   UNL A   1     -17.223   8.364  35.664  0.00  0.00    +0.000 A 
ATOM     17  C   UNL A   1     -17.293   8.691  34.328  0.00  0.00    +0.000 A 
ATOM     18  C   UNL A   1     -18.502   8.631  33.662  0.00  0.00    +0.005 A 
ENDBRANCH   9  13
ENDBRANCH   1   2
BRANCH   1  19
ATOM     19  C   UNL A   1     -27.483   7.255  31.625  0.00  0.00    +0.002 A 
ATOM     20  C   UNL A   1     -27.642   8.530  31.253  0.00  0.00    -0.002 A 
ATOM     21  C   UNL A   1     -28.731   9.309  31.753  0.00  0.00    -0.000 A 
ATOM     22  C   UNL A   1     -29.698   8.648  32.523  0.00  0.00    -0.000 A 
ATOM     23  C   UNL A   1     -29.570   7.318  32.819  0.00  0.00    -0.000 A 
ATOM     24  C   UNL A   1     -28.462   6.579  32.394  0.00  0.00    -0.002 A 
ENDBRANCH   1  19
BRANCH   1  27
ATOM     25  C   UNL A   1     -26.426   4.571  29.578  0.00  0.00    +0.265 C 
ATOM     26  O   UNL A   1     -25.766   5.117  28.764  0.00  0.00    -0.268 OA
ATOM     27  N   UNL A   1     -26.668   5.216  30.769  0.00  0.00    -0.194 NA
BRANCH  25  32
ATOM     28 CL   UNL A   1     -28.149  -0.820  28.908  0.00  0.00    -0.080 Cl
ATOM     29  C   UNL A   1     -27.834   0.496  29.060  0.00  0.00    +0.085 A 
ATOM     30  C   UNL A   1     -27.602   1.013  30.297  0.00  0.00    +0.014 A 
ATOM     31  C   UNL A   1     -27.170   2.396  30.534  0.00  0.00    +0.006 A 
ATOM     32  C   UNL A   1     -26.913   3.183  29.368  0.00  0.00    +0.057 A 
ATOM     33  C   UNL A   1     -27.055   2.622  28.138  0.00  0.00    +0.035 A 
ATOM     34  C   UNL A   1     -27.462   1.335  27.967  0.00  0.00    +0.151 A 
ATOM     35  F   UNL A   1     -27.603   0.878  26.763  0.00  0.00    -0.203 F 
ENDBRANCH  25  32
ENDBRANCH   1  27
TORSDOF 5
