MODEL 2267
MODEL 1
REMARK VINA RESULT:    -5.431      0.000      0.000
REMARK INTER + INTRA:          -5.431
REMARK INTER:                  -5.431
REMARK INTRA:                   0.000
REMARK UNBOUND:                 0.000
REMARK  Name = No_2267-gen_results/8p0m/2024-11-27-11-27-31/
REMARK  0 active torsions:
REMARK  status: ('A' for Active; 'I' for Inactive)
REMARK                            x       y       z     vdW  Elec       q    Type
REMARK                         _______ _______ _______ _____ _____    ______ ____
ROOT
ATOM      1  C   UNL A   1     -10.329  -9.305  19.098  0.00  0.00    +0.043 A 
ATOM      2  C   UNL A   1      -9.435  -9.217  19.908  0.00  0.00    +0.015 A 
ATOM      3  C   UNL A   1      -8.216  -9.882  19.786  0.00  0.00    +0.058 A 
ATOM      4  C   UNL A   1      -8.009 -10.778  18.664  0.00  0.00    +0.015 A 
ATOM      5  C   UNL A   1      -9.072 -10.864  17.766  0.00  0.00    +0.043 A 
ATOM      6  C   UNL A   1     -10.198 -10.207  17.965  0.00  0.00    +0.196 A 
ATOM      7 CL   UNL A   1      -6.909  -9.805  20.898  0.00  0.00    -0.082 Cl
ATOM      8  O   UNL A   1     -11.208 -10.363  17.034  0.00  0.00    -0.287 OA
ENDROOT
TORSDOF 0
ENDMDL
ENDMDL
