MODEL 2268
MODEL 1
REMARK VINA RESULT:    -6.290      0.000      0.000
REMARK INTER + INTRA:          -9.117
REMARK INTER:                  -8.496
REMARK INTRA:                  -0.620
REMARK UNBOUND:                -0.620
REMARK  Name = No_2268-gen_results/8p0m/2024-11-27-11-27-31/
REMARK  6 active torsions:
REMARK  status: ('A' for Active; 'I' for Inactive)
REMARK    1  A    between atoms: C_2  and  C_3
REMARK    2  A    between atoms: C_3  and  C_11
REMARK    3  A    between atoms: N_4  and  C_5
REMARK    4  A    between atoms: C_12  and  C_13
REMARK    5  A    between atoms: C_14  and  C_15
REMARK    6  A    between atoms: C_16  and  C_17
REMARK                            x       y       z     vdW  Elec       q    Type
REMARK                         _______ _______ _______ _____ _____    ______ ____
ROOT
ATOM      1  C   UNL A   1     -27.982 -12.013  32.459  0.00  0.00    +0.222 C 
ATOM      2  F   UNL A   1     -26.815 -12.543  32.179  0.00  0.00    -0.226 F 
ATOM      3  C   UNL A   1     -28.868 -13.349  32.684  0.00  0.00    +0.050 C 
ENDROOT
BRANCH   1   5
ATOM      4  O   UNL A   1     -27.321 -12.088  34.507  0.00  0.00    -0.270 OA
ATOM      5  C   UNL A   1     -27.825 -11.540  33.635  0.00  0.00    +0.279 C 
ATOM      6  N   UNL A   1     -28.296 -10.172  33.955  0.00  0.00    -0.177 NA
BRANCH   6   7
ATOM      7  C   UNL A   1     -27.991  -9.464  35.031  0.00  0.00    +0.073 A 
ATOM      8  C   UNL A   1     -28.995  -9.036  35.929  0.00  0.00    +0.017 A 
ATOM      9  C   UNL A   1     -28.643  -8.388  37.028  0.00  0.00    +0.001 A 
ATOM     10  C   UNL A   1     -27.709  -7.728  36.999  0.00  0.00    +0.000 A 
ATOM     11  C   UNL A   1     -26.608  -7.891  36.080  0.00  0.00    +0.001 A 
ATOM     12  C   UNL A   1     -26.799  -8.781  35.056  0.00  0.00    +0.017 A 
ENDBRANCH   6   7
ENDBRANCH   1   5
BRANCH   1  13
ATOM     13  C   UNL A   1     -28.524 -11.315  31.457  0.00  0.00    +0.014 C 
ATOM     14  C   UNL A   1     -28.582 -11.793  30.291  0.00  0.00    -0.002 C 
BRANCH  14  15
ATOM     15  C   UNL A   1     -28.993 -11.495  29.280  0.00  0.00    -0.000 C 
ATOM     16  C   UNL A   1     -29.330 -11.683  28.326  0.00  0.00    +0.001 C 
BRANCH  16  17
ATOM     17  C   UNL A   1     -29.482 -11.923  27.045  0.00  0.00    +0.011 C 
ATOM     18  C   UNL A   1     -29.792 -12.564  25.981  0.00  0.00    +0.078 C 
BRANCH  18  19
ATOM     19  C   UNL A   1     -30.489 -12.777  24.747  0.00  0.00    +0.101 C 
ATOM     20  N   UNL A   1     -30.742 -12.861  23.782  0.00  0.00    -0.191 NA
ENDBRANCH  18  19
ENDBRANCH  16  17
ENDBRANCH  14  15
ENDBRANCH   1  13
TORSDOF 6
ENDMDL
ENDMDL
