MODEL 226
MODEL 1
REMARK VINA RESULT:    -7.551      0.000      0.000
REMARK INTER + INTRA:         -10.632
REMARK INTER:                  -9.317
REMARK INTRA:                  -1.315
REMARK UNBOUND:                -1.315
REMARK  Name = No_226-gen_results/8p0m/2024-11-27-11-27-31/
REMARK  4 active torsions:
REMARK  status: ('A' for Active; 'I' for Inactive)
REMARK    1  A    between atoms: C_4  and  C_8
REMARK    2  A    between atoms: C_8  and  C_9
REMARK    3  A    between atoms: C_9  and  C_10
REMARK    4  A    between atoms: C_9  and  C_16
REMARK                            x       y       z     vdW  Elec       q    Type
REMARK                         _______ _______ _______ _____ _____    ______ ____
ROOT
ATOM      1  C   UNL A   1     -23.696  -1.826  29.975  0.00  0.00    +0.122 C 
ENDROOT
BRANCH   1   2
ATOM      2  C   UNL A   1     -24.489  -2.710  29.944  0.00  0.00    -0.014 A 
ATOM      3  C   UNL A   1     -24.234  -3.918  29.203  0.00  0.00    -0.004 A 
ATOM      4  C   UNL A   1     -25.358  -4.933  29.273  0.00  0.00    -0.000 A 
ATOM      5  C   UNL A   1     -26.527  -4.530  29.641  0.00  0.00    -0.000 A 
ATOM      6  C   UNL A   1     -26.816  -3.277  30.097  0.00  0.00    -0.000 A 
ATOM      7  C   UNL A   1     -25.847  -2.390  30.300  0.00  0.00    -0.004 A 
ENDBRANCH   1   2
BRANCH   1   8
ATOM      8  C   UNL A   1     -23.468  -0.920  31.220  0.00  0.00    +0.402 C 
ATOM      9  F   UNL A   1     -23.729  -1.472  32.310  0.00  0.00    -0.170 F 
ATOM     10  F   UNL A   1     -22.114  -0.521  31.205  0.00  0.00    -0.170 F 
ATOM     11  F   UNL A   1     -24.083   0.258  31.202  0.00  0.00    -0.170 F 
ENDBRANCH   1   8
BRANCH   1  12
ATOM     12  C   UNL A   1     -22.700  -1.394  28.975  0.00  0.00    +0.042 C 
BRANCH  12  16
ATOM     13  C   UNL A   1     -22.648   2.002  27.145  0.00  0.00    +0.041 A 
ATOM     14  C   UNL A   1     -23.669   2.011  26.884  0.00  0.00    +0.060 A 
ATOM     15  C   UNL A   1     -22.196   0.814  27.964  0.00  0.00    +0.137 A 
ATOM     16  C   UNL A   1     -23.097  -0.246  28.199  0.00  0.00    +0.006 A 
ATOM     17  C   UNL A   1     -24.785   1.042  26.970  0.00  0.00    +0.011 A 
ATOM     18  C   UNL A   1     -24.405  -0.068  27.712  0.00  0.00    -0.001 A 
ATOM     19 CL   UNL A   1     -24.217   3.439  25.887  0.00  0.00    -0.082 Cl
ATOM     20  F   UNL A   1     -20.969   0.706  28.434  0.00  0.00    -0.204 F 
ENDBRANCH  12  16
ENDBRANCH   1  12
TORSDOF 4
ENDMDL
ENDMDL
