MODEL 2270
MODEL 1
REMARK VINA RESULT:    -6.717      0.000      0.000
REMARK INTER + INTRA:          -7.771
REMARK INTER:                  -7.502
REMARK INTRA:                  -0.269
REMARK UNBOUND:                -0.269
REMARK  Name = No_2270-gen_results/8p0m/2024-11-27-11-27-31/
REMARK  2 active torsions:
REMARK  status: ('A' for Active; 'I' for Inactive)
REMARK    1  A    between atoms: C_2  and  C_7
REMARK    2  A    between atoms: C_7  and  C_8
REMARK                            x       y       z     vdW  Elec       q    Type
REMARK                         _______ _______ _______ _____ _____    ______ ____
ROOT
ATOM      1  C   UNL A   1     -24.552  -1.174  29.761  0.00  0.00    +0.053 C 
ENDROOT
BRANCH   1   3
ATOM      2  C   UNL A   1     -23.889  -3.257  28.779  0.00  0.00    -0.004 A 
ATOM      3  C   UNL A   1     -24.715  -2.645  29.415  0.00  0.00    -0.018 A 
ATOM      4  C   UNL A   1     -25.861  -3.191  29.895  0.00  0.00    -0.004 A 
ATOM      5  C   UNL A   1     -26.110  -4.553  29.639  0.00  0.00    -0.000 A 
ATOM      6  C   UNL A   1     -24.032  -4.674  28.563  0.00  0.00    -0.000 A 
ATOM      7  C   UNL A   1     -25.180  -5.265  28.999  0.00  0.00    -0.000 A 
ENDBRANCH   1   3
BRANCH   1   8
ATOM      8  C   UNL A   1     -23.462  -0.490  28.991  0.00  0.00    -0.018 A 
ATOM      9  C   UNL A   1     -22.131  -0.528  29.356  0.00  0.00    -0.004 A 
ATOM     10  C   UNL A   1     -21.179   0.208  28.606  0.00  0.00    -0.000 A 
ATOM     11  C   UNL A   1     -23.785   0.524  28.054  0.00  0.00    -0.004 A 
ATOM     12  C   UNL A   1     -22.853   1.274  27.411  0.00  0.00    -0.000 A 
ATOM     13  C   UNL A   1     -21.499   1.093  27.714  0.00  0.00    -0.000 A 
ENDBRANCH   1   8
TORSDOF 2
ENDMDL
ENDMDL
