MODEL 2271
MODEL 1
REMARK VINA RESULT:    -6.435      0.000      0.000
REMARK INTER + INTRA:          -7.060
REMARK INTER:                  -6.812
REMARK INTRA:                  -0.249
REMARK UNBOUND:                -0.249
REMARK  Name = No_2271-gen_results/8p0m/2024-11-27-11-27-31/
REMARK  1 active torsions:
REMARK  status: ('A' for Active; 'I' for Inactive)
REMARK    1  A    between atoms: C_2  and  C_7
REMARK                            x       y       z     vdW  Elec       q    Type
REMARK                         _______ _______ _______ _____ _____    ______ ____
ROOT
ATOM      1  C   UNL A   1     -23.983  -3.910  28.811  0.00  0.00    +0.002 A 
ATOM      2  C   UNL A   1     -24.355  -2.786  29.057  0.00  0.00    +0.018 A 
ATOM      3  C   UNL A   1     -25.604  -2.550  29.620  0.00  0.00    +0.002 A 
ATOM      4  C   UNL A   1     -26.514  -3.635  29.885  0.00  0.00    +0.000 A 
ATOM      5  C   UNL A   1     -26.013  -4.899  29.548  0.00  0.00    +0.000 A 
ATOM      6  C   UNL A   1     -24.831  -5.067  29.002  0.00  0.00    +0.000 A 
ENDROOT
BRANCH   2   7
ATOM      7  C   UNL A   1     -23.561  -1.549  28.825  0.00  0.00    +0.081 A 
ATOM      8  N   UNL A   1     -22.404  -1.409  29.103  0.00  0.00    -0.244 NA
ATOM      9  C   UNL A   1     -24.161  -0.461  28.082  0.00  0.00    +0.019 A 
ATOM     10  C   UNL A   1     -21.563  -0.403  28.834  0.00  0.00    +0.099 A 
ATOM     11  C   UNL A   1     -23.430   0.681  27.800  0.00  0.00    +0.003 A 
ATOM     12  C   UNL A   1     -22.097   0.749  28.234  0.00  0.00    +0.021 A 
ENDBRANCH   2   7
TORSDOF 1
ENDMDL
ENDMDL
