MODEL 2272
MODEL 1
REMARK VINA RESULT:    -4.792      0.000      0.000
REMARK INTER + INTRA:          -5.101
REMARK INTER:                  -5.072
REMARK INTRA:                  -0.030
REMARK UNBOUND:                -0.030
REMARK  Name = No_2272-gen_results/8p0m/2024-11-27-11-27-31/
REMARK  1 active torsions:
REMARK  status: ('A' for Active; 'I' for Inactive)
REMARK    1  A    between atoms: C_5  and  O_9
REMARK                            x       y       z     vdW  Elec       q    Type
REMARK                         _______ _______ _______ _____ _____    ______ ____
ROOT
ATOM      1  F   UNL A   1     -27.485  -2.319  30.870  0.00  0.00    -0.204 F 
ATOM      2  C   UNL A   1     -26.598  -2.921  30.253  0.00  0.00    +0.143 A 
ATOM      3  C   UNL A   1     -26.767  -4.213  29.925  0.00  0.00    +0.032 A 
ATOM      4  C   UNL A   1     -25.355  -2.199  29.883  0.00  0.00    +0.069 A 
ATOM      5  C   UNL A   1     -24.284  -2.922  29.268  0.00  0.00    +0.168 A 
ATOM      6  C   UNL A   1     -25.656  -4.935  29.270  0.00  0.00    +0.035 A 
ATOM      7  C   UNL A   1     -24.452  -4.298  28.952  0.00  0.00    +0.174 A 
ATOM      8  F   UNL A   1     -23.477  -4.922  28.377  0.00  0.00    -0.201 F 
ENDROOT
BRANCH   5   9
ATOM      9  O   UNL A   1     -23.111  -2.364  28.896  0.00  0.00    -0.469 OA
ATOM     10  C   UNL A   1     -22.775  -1.085  29.244  0.00  0.00    +0.253 C 
ENDBRANCH   5   9
TORSDOF 1
ENDMDL
ENDMDL
