REMARK  Name = No_2273-gen_results/8p0m/2024-11-27-11-27-31/
REMARK  4 active torsions:
REMARK  status: ('A' for Active; 'I' for Inactive)
REMARK    1  A    between atoms: C_3  and  C_8
REMARK    2  A    between atoms: C_6  and  O_7
REMARK    3  A    between atoms: O_7  and  C_15
REMARK    4  A    between atoms: C_18  and  C_22
REMARK                            x       y       z     vdW  Elec       q    Type
REMARK                         _______ _______ _______ _____ _____    ______ ____
ROOT
ATOM      1  C   UNL A   1     -28.016  -0.814  28.878  0.00  0.00    +0.037 A 
ATOM      2  C   UNL A   1     -27.064  -0.119  28.608  0.00  0.00    +0.005 A 
ATOM      3  C   UNL A   1     -25.765  -0.390  29.036  0.00  0.00    +0.018 A 
ATOM      4  C   UNL A   1     -25.530  -1.530  29.901  0.00  0.00    +0.005 A 
ATOM      5  C   UNL A   1     -26.689  -2.289  30.181  0.00  0.00    +0.037 A 
ATOM      6  C   UNL A   1     -27.873  -1.951  29.737  0.00  0.00    +0.146 A 
ENDROOT
BRANCH   3   7
ATOM      7  C   UNL A   1     -24.539   0.421  28.742  0.00  0.00    +0.086 A 
ATOM      8  N   UNL A   1     -24.505   1.244  27.774  0.00  0.00    -0.211 NA
ATOM      9  C   UNL A   1     -23.416   1.866  27.325  0.00  0.00    +0.257 A 
ATOM     10  N   UNL A   1     -22.212   1.612  27.914  0.00  0.00    -0.210 NA
ATOM     11  C   UNL A   1     -23.288   0.091  29.343  0.00  0.00    +0.040 A 
ATOM     12  C   UNL A   1     -22.105   0.799  28.933  0.00  0.00    +0.103 A 
ATOM     13  N   UNL A   1     -23.447   2.777  26.346  0.00  0.00    -0.086 NA
ENDBRANCH   3   7
BRANCH   6  14
ATOM     14  O   UNL A   1     -28.930  -2.730  30.115  0.00  0.00    -0.447 OA
BRANCH  14  15
ATOM     15  C   UNL A   1     -28.788  -4.002  30.635  0.00  0.00    +0.217 C 
ATOM     16  C   UNL A   1     -29.822  -4.850  30.240  0.00  0.00    +0.183 C 
ATOM     17  O   UNL A   1     -30.941  -4.370  30.588  0.00  0.00    -0.450 OA
ATOM     18  C   UNL A   1     -32.085  -4.843  30.106  0.00  0.00    +0.145 C 
ATOM     19  C   UNL A   1     -31.915  -5.680  29.272  0.00  0.00    +0.038 C 
ATOM     20  C   UNL A   1     -30.756  -6.211  28.660  0.00  0.00    +0.006 C 
ATOM     21  C   UNL A   1     -29.672  -5.332  28.884  0.00  0.00    +0.041 C 
BRANCH  18  22
ATOM     22  C   UNL A   1     -33.340  -4.401  30.694  0.00  0.00    +0.033 C 
ATOM     23  C   UNL A   1     -34.031  -3.698  30.444  0.00  0.00    -0.023 C 
ATOM     24  C   UNL A   1     -35.286  -3.287  31.157  0.00  0.00    +0.031 C 
ENDBRANCH  18  22
ENDBRANCH  14  15
ENDBRANCH   6  14
TORSDOF 4
