MODEL 2273
MODEL 1
REMARK VINA RESULT:    -7.381      0.000      0.000
REMARK INTER + INTRA:          -9.803
REMARK INTER:                  -9.107
REMARK INTRA:                  -0.696
REMARK UNBOUND:                -0.696
REMARK  Name = No_2273-gen_results/8p0m/2024-11-27-11-27-31/
REMARK  4 active torsions:
REMARK  status: ('A' for Active; 'I' for Inactive)
REMARK    1  A    between atoms: C_3  and  C_8
REMARK    2  A    between atoms: C_6  and  O_7
REMARK    3  A    between atoms: O_7  and  C_15
REMARK    4  A    between atoms: C_18  and  C_22
REMARK                            x       y       z     vdW  Elec       q    Type
REMARK                         _______ _______ _______ _____ _____    ______ ____
ROOT
ATOM      1  C   UNL A   1     -25.890   0.151  24.927  0.00  0.00    +0.037 A 
ATOM      2  C   UNL A   1     -27.008   0.105  24.467  0.00  0.00    +0.005 A 
ATOM      3  C   UNL A   1     -27.903   1.172  24.507  0.00  0.00    +0.018 A 
ATOM      4  C   UNL A   1     -27.515   2.395  25.183  0.00  0.00    +0.005 A 
ATOM      5  C   UNL A   1     -26.201   2.373  25.704  0.00  0.00    +0.037 A 
ATOM      6  C   UNL A   1     -25.433   1.316  25.623  0.00  0.00    +0.146 A 
ENDROOT
BRANCH   3   7
ATOM      7  C   UNL A   1     -29.299   1.190  23.959  0.00  0.00    +0.086 A 
ATOM      8  N   UNL A   1     -29.998   0.130  23.892  0.00  0.00    -0.211 NA
ATOM      9  C   UNL A   1     -31.164   0.012  23.258  0.00  0.00    +0.257 A 
ATOM     10  N   UNL A   1     -31.677   1.089  22.598  0.00  0.00    -0.210 NA
ATOM     11  C   UNL A   1     -29.780   2.319  23.232  0.00  0.00    +0.040 A 
ATOM     12  C   UNL A   1     -31.070   2.248  22.600  0.00  0.00    +0.103 A 
ATOM     13  N   UNL A   1     -31.894  -1.109  23.277  0.00  0.00    -0.086 NA
ENDBRANCH   3   7
BRANCH   6  14
ATOM     14  O   UNL A   1     -24.200   1.392  26.208  0.00  0.00    -0.447 OA
BRANCH  14  15
ATOM     15  C   UNL A   1     -23.999   1.845  27.498  0.00  0.00    +0.217 C 
ATOM     16  C   UNL A   1     -23.340   0.904  28.289  0.00  0.00    +0.183 C 
ATOM     17  O   UNL A   1     -23.992  -0.181  28.315  0.00  0.00    -0.450 OA
ATOM     18  C   UNL A   1     -23.457  -1.308  28.773  0.00  0.00    +0.145 C 
ATOM     19  C   UNL A   1     -22.304  -1.180  29.057  0.00  0.00    +0.038 C 
ATOM     20  C   UNL A   1     -21.395  -0.103  28.941  0.00  0.00    +0.006 C 
ATOM     21  C   UNL A   1     -21.917   0.845  28.032  0.00  0.00    +0.041 C 
BRANCH  18  22
ATOM     22  C   UNL A   1     -24.310  -2.468  28.977  0.00  0.00    +0.033 C 
ATOM     23  C   UNL A   1     -24.146  -3.471  29.012  0.00  0.00    -0.023 C 
ATOM     24  C   UNL A   1     -25.121  -4.599  29.185  0.00  0.00    +0.031 C 
ENDBRANCH  18  22
ENDBRANCH  14  15
ENDBRANCH   6  14
TORSDOF 4
ENDMDL
ENDMDL
