MODEL 2274
MODEL 1
REMARK VINA RESULT:    -7.535      0.000      0.000
REMARK INTER + INTRA:         -11.630
REMARK INTER:                 -10.618
REMARK INTRA:                  -1.012
REMARK UNBOUND:                -1.012
REMARK  Name = No_2274-gen_results/8p0m/2024-11-27-11-27-31/
REMARK  7 active torsions:
REMARK  status: ('A' for Active; 'I' for Inactive)
REMARK    1  A    between atoms: C_2  and  C_7
REMARK    2  A    between atoms: C_7  and  C_8
REMARK    3  A    between atoms: C_7  and  C_14
REMARK    4  A    between atoms: C_14  and  C_15
REMARK    5  A    between atoms: C_14  and  C_19
REMARK    6  A    between atoms: C_20  and  C_21
REMARK    7  A    between atoms: C_21  and  N_22
REMARK                            x       y       z     vdW  Elec       q    Type
REMARK                         _______ _______ _______ _____ _____    ______ ____
ROOT
ATOM      1  C   UNL A   1     -24.743  -1.102  28.664  0.00  0.00    +0.057 C 
ENDROOT
BRANCH   1   3
ATOM      2  C   UNL A   1     -23.996  -3.250  28.476  0.00  0.00    -0.004 A 
ATOM      3  C   UNL A   1     -24.877  -2.539  28.902  0.00  0.00    -0.018 A 
ATOM      4  C   UNL A   1     -25.989  -3.078  29.540  0.00  0.00    -0.004 A 
ATOM      5  C   UNL A   1     -26.149  -4.503  29.673  0.00  0.00    -0.000 A 
ATOM      6  C   UNL A   1     -25.096  -5.251  29.132  0.00  0.00    -0.000 A 
ATOM      7  C   UNL A   1     -24.074  -4.694  28.523  0.00  0.00    -0.000 A 
ENDBRANCH   1   3
BRANCH   1   8
ATOM      8  C   UNL A   1     -23.645  -0.524  28.452  0.00  0.00    -0.018 A 
ATOM      9  C   UNL A   1     -23.619   0.557  27.596  0.00  0.00    -0.004 A 
ATOM     10  C   UNL A   1     -22.326   1.246  27.405  0.00  0.00    -0.000 A 
ATOM     11  C   UNL A   1     -21.245   0.801  28.096  0.00  0.00    -0.000 A 
ATOM     12  C   UNL A   1     -21.244  -0.266  28.985  0.00  0.00    -0.000 A 
ATOM     13  C   UNL A   1     -22.438  -0.944  29.180  0.00  0.00    -0.004 A 
ENDBRANCH   1   8
BRANCH   1  14
ATOM     14  C   UNL A   1     -25.816  -0.314  29.463  0.00  0.00    +0.106 C 
BRANCH  14  15
ATOM     15  C   UNL A   1     -25.763   0.165  30.610  0.00  0.00    +0.230 C 
ATOM     16  N   UNL A   1     -25.688  -0.374  31.748  0.00  0.00    -0.276 N 
ATOM     17  C   UNL A   1     -26.905  -0.446  32.591  0.00  0.00    +0.115 C 
ATOM     18  C   UNL A   1     -24.524  -0.910  32.259  0.00  0.00    +0.115 C 
ATOM     19  O   UNL A   1     -25.674   1.509  30.704  0.00  0.00    -0.275 OA
ENDBRANCH  14  15
BRANCH  14  20
ATOM     20  C   UNL A   1     -27.064  -0.319  28.564  0.00  0.00    -0.019 C 
ATOM     21  C   UNL A   1     -27.024   0.419  27.502  0.00  0.00    -0.004 C 
BRANCH  21  22
ATOM     22  C   UNL A   1     -28.133   0.543  26.657  0.00  0.00    +0.153 C 
BRANCH  22  23
ATOM     23  N   UNL A   1     -28.058   1.321  25.564  0.00  0.00    -0.243 NA
ATOM     24  C   UNL A   1     -28.255   0.859  24.409  0.00  0.00    +0.195 C 
ATOM     25  F   UNL A   1     -28.136   1.695  23.338  0.00  0.00    -0.189 F 
ATOM     26  C   UNL A   1     -28.551  -0.463  24.071  0.00  0.00    +0.085 C 
ENDBRANCH  22  23
ENDBRANCH  21  22
ENDBRANCH  14  20
ENDBRANCH   1  14
TORSDOF 7
ENDMDL
ENDMDL
