REMARK  Name = outputs/IAG933/test6/raw/output_2274_IAG933_linker_design_.xyz
REMARK  16 active torsions:
REMARK  status: ('A' for Active; 'I' for Inactive)
REMARK    1  A    between atoms: C_1  and  C_2
REMARK    2  A    between atoms: C_1  and  C_8
REMARK    3  A    between atoms: C_9  and  C_42
REMARK    4  A    between atoms: C_13  and  C_30
REMARK    5  A    between atoms: C_14  and  C_15
REMARK    6  A    between atoms: C_21  and  O_22
REMARK    7  A    between atoms: O_22  and  C_23
REMARK    8  A    between atoms: C_23  and  C_24
REMARK    9  A    between atoms: C_28  and  C_41
REMARK   10  A    between atoms: C_29  and  C_31
REMARK   11  A    between atoms: C_29  and  C_41
REMARK   12  A    between atoms: C_30  and  C_31
REMARK   13  A    between atoms: C_33  and  O_34
REMARK   14  A    between atoms: C_33  and  O_35
REMARK   15  A    between atoms: O_34  and  C_42
REMARK   16  A    between atoms: N_37  and  C_42
REMARK                            x       y       z     vdW  Elec       q    Type
REMARK                         _______ _______ _______ _____ _____    ______ ____
ROOT
ATOM      1  C   UNL A   1     -24.365   0.835  28.396  0.00  0.00    +0.039 C 
ATOM      2  N   UNL A   1     -25.431   1.615  29.364  0.00  0.00    -0.251 NA
ENDROOT
BRANCH   1   3
ATOM      3  C   UNL A   1     -23.062   0.005  28.730  0.00  0.00    +0.047 C 
BRANCH   3   4
ATOM      4  C   UNL A   1     -22.199   0.593  28.833  0.00  0.00    +0.044 C 
BRANCH   4   5
ATOM      5  C   UNL A   1     -21.395   1.490  27.855  0.00  0.00    +0.059 C 
ATOM      6  C   UNL A   1     -21.464   1.872  26.701  0.00  0.00    +0.129 C 
ATOM      7  O   UNL A   1     -21.618   2.155  25.608  0.00  0.00    -0.231 OA
ENDBRANCH   4   5
ENDBRANCH   3   4
ENDBRANCH   1   3
BRANCH   1   8
ATOM      8  C   UNL A   1     -24.374   1.296  27.002  0.00  0.00    +0.070 C 
BRANCH   8   9
ATOM      9  C   UNL A   1     -25.688   1.614  26.461  0.00  0.00    +0.021 C 
ATOM     10  C   UNL A   1     -26.250   2.920  26.395  0.00  0.00    +0.073 C 
ATOM     11  C   UNL A   1     -27.438   3.091  25.645  0.00  0.00    +0.106 C 
ATOM     12  N   UNL A   1     -28.075   2.089  25.003  0.00  0.00    -0.208 NA
ATOM     13  C   UNL A   1     -27.543   0.849  25.079  0.00  0.00    +0.253 C 
ATOM     14  C   UNL A   1     -26.354   0.576  25.777  0.00  0.00    +0.190 C 
ATOM     15  F   UNL A   1     -25.860  -0.681  25.795  0.00  0.00    -0.200 F 
BRANCH  10  16
ATOM     16  C   UNL A   1     -25.642   4.093  27.123  0.00  0.00    +0.266 C 
ATOM     17  N   UNL A   1     -25.614   5.252  26.449  0.00  0.00    -0.200 NA
ATOM     18  C   UNL A   1     -25.026   6.479  26.963  0.00  0.00    +0.139 C 
ATOM     19  O   UNL A   1     -25.143   3.966  28.243  0.00  0.00    -0.268 OA
ENDBRANCH  10  16
BRANCH  13  20
ATOM     20  O   UNL A   1     -28.193  -0.208  24.477  0.00  0.00    -0.456 OA
BRANCH  20  21
ATOM     21  C   UNL A   1     -29.460   0.005  23.866  0.00  0.00    +0.243 C 
BRANCH  21  22
ATOM     22  C   UNL A   1     -30.065  -1.377  23.573  0.00  0.00    +0.229 C 
ATOM     23  O   UNL A   1     -30.729  -1.878  24.721  0.00  0.00    -0.216 OA
ENDBRANCH  21  22
ENDBRANCH  20  21
ENDBRANCH  13  20
ENDBRANCH   8   9
ENDBRANCH   1   8
BRANCH   2  24
ATOM     24  C   UNL A   1     -25.675   1.809  31.123  0.00  0.00    +0.226 C 
BRANCH  24  26
ATOM     25  C   UNL A   1     -25.387  -0.679  31.571  0.00  0.00    +0.082 C 
ATOM     26  C   UNL A   1     -25.189   0.773  32.028  0.00  0.00    +0.069 C 
ATOM     27  C   UNL A   1     -25.336   0.684  33.544  0.00  0.00    +0.025 C 
ATOM     28  C   UNL A   1     -24.829  -0.715  33.905  0.00  0.00    +0.089 C 
ATOM     29  N   UNL A   1     -24.758  -1.481  32.646  0.00  0.00    -0.219 NA
BRANCH  25  30
ATOM     30  C   UNL A   1     -24.855  -1.012  30.143  0.00  0.00    +0.044 C 
BRANCH  30  31
ATOM     31  C   UNL A   1     -24.973  -2.505  29.788  0.00  0.00    -0.021 C 
ATOM     32  C   UNL A   1     -23.906  -3.173  29.146  0.00  0.00    -0.004 C 
ATOM     33  C   UNL A   1     -23.989  -4.549  28.853  0.00  0.00    -0.000 C 
ATOM     34  C   UNL A   1     -25.137  -5.280  29.205  0.00  0.00    -0.000 C 
ATOM     35  C   UNL A   1     -26.232  -4.611  29.784  0.00  0.00    -0.000 C 
ATOM     36  C   UNL A   1     -26.155  -3.232  30.065  0.00  0.00    -0.004 C 
ENDBRANCH  30  31
ENDBRANCH  25  30
ENDBRANCH  24  26
BRANCH  24  37
ATOM     37  O   UNL A   1     -24.994   3.016  31.536  0.00  0.00    -0.276 OA
BRANCH  37  39
ATOM     38  N   UNL A   1     -26.675   3.385  32.740  0.00  0.00    -0.043 NA
ATOM     39  C   UNL A   1     -25.578   4.011  32.103  0.00  0.00    +0.416 C 
ATOM     40  O   UNL A   1     -25.805   4.806  31.028  0.00  0.00    -0.146 OA
BRANCH  39  41
ATOM     41  O   UNL A   1     -25.123   4.821  33.198  0.00  0.00    -0.293 OA
ATOM     42  C   UNL A   1     -24.181   5.961  33.069  0.00  0.00    +0.181 C 
ENDBRANCH  39  41
ENDBRANCH  37  39
ENDBRANCH  24  37
ENDBRANCH   2  24
TORSDOF 16
