REMARK  Name = outputs/IAG933/test6/raw/output_2275_IAG933_linker_design_.xyz
REMARK  10 active torsions:
REMARK  status: ('A' for Active; 'I' for Inactive)
REMARK    1  A    between atoms: C_1  and  C_2
REMARK    2  A    between atoms: C_1  and  C_8
REMARK    3  A    between atoms: C_1  and  C_41
REMARK    4  A    between atoms: C_13  and  N_40
REMARK    5  A    between atoms: C_14  and  C_15
REMARK    6  A    between atoms: C_21  and  O_22
REMARK    7  A    between atoms: O_22  and  C_23
REMARK    8  A    between atoms: C_23  and  C_24
REMARK    9  A    between atoms: N_29  and  C_41
REMARK   10  A    between atoms: C_33  and  C_35
REMARK                            x       y       z     vdW  Elec       q    Type
REMARK                         _______ _______ _______ _____ _____    ______ ____
ROOT
ATOM      1  C   UNL A   1     -23.311   1.585  26.969  0.00  0.00    +0.107 C 
ATOM      2  C   UNL A   1     -22.423   0.916  29.208  0.00  0.00    +0.037 C 
ATOM      3  N   UNL A   1     -24.677   1.338  27.447  0.00  0.00    -0.251 NA
ATOM      4  C   UNL A   1     -24.822   0.234  28.641  0.00  0.00    +0.132 C 
ATOM      5  C   UNL A   1     -23.311  -0.177  28.726  0.00  0.00    +0.038 C 
ATOM      6  O   UNL A   1     -20.946   2.022  27.685  0.00  0.00    -0.222 OA
ATOM      7  C   UNL A   1     -22.311   1.914  28.028  0.00  0.00    +0.168 C 
ENDROOT
BRANCH   4   9
ATOM      8  N   UNL A   1     -28.599   0.815  28.836  0.00  0.00    -0.265 N 
ATOM      9  N   UNL A   1     -26.247   0.612  29.130  0.00  0.00    -0.176 NA
ATOM     10  C   UNL A   1     -28.029   1.910  30.886  0.00  0.00    +0.022 C 
ATOM     11  C   UNL A   1     -30.479   1.460  27.311  0.00  0.00    +0.024 C 
ATOM     12  C   UNL A   1     -30.760   2.681  28.290  0.00  0.00    +0.036 C 
ATOM     13  C   UNL A   1     -29.649   0.277  27.932  0.00  0.00    +0.095 C 
ATOM     14  O   UNL A   1     -27.795  -1.131  29.316  0.00  0.00    -0.251 OA
ATOM     15  C   UNL A   1     -29.640   3.089  29.369  0.00  0.00    +0.022 C 
ATOM     16  C   UNL A   1     -27.558   0.053  29.054  0.00  0.00    +0.324 C 
ATOM     17  C   UNL A   1     -28.637   1.863  29.646  0.00  0.00    +0.077 C 
BRANCH  12  18
ATOM     18  C   UNL A   1     -32.121   2.434  29.140  0.00  0.00    +0.182 C 
ATOM     19  O   UNL A   1     -31.799   1.949  30.464  0.00  0.00    -0.220 OA
ENDBRANCH  12  18
ENDBRANCH   4   9
BRANCH   3  20
ATOM     20  C   UNL A   1     -25.688   1.614  26.461  0.00  0.00    +0.130 C 
ATOM     21  C   UNL A   1     -26.250   2.920  26.395  0.00  0.00    +0.070 C 
ATOM     22  C   UNL A   1     -27.438   3.091  25.645  0.00  0.00    +0.103 C 
ATOM     23  N   UNL A   1     -28.075   2.089  25.003  0.00  0.00    -0.212 NA
ATOM     24  C   UNL A   1     -27.543   0.849  25.079  0.00  0.00    +0.235 C 
ATOM     25  C   UNL A   1     -26.354   0.576  25.777  0.00  0.00    +0.255 C 
ATOM     26  F   UNL A   1     -25.860  -0.681  25.795  0.00  0.00    -0.225 F 
BRANCH  21  27
ATOM     27  C   UNL A   1     -25.642   4.093  27.123  0.00  0.00    +0.264 C 
ATOM     28  N   UNL A   1     -25.614   5.252  26.449  0.00  0.00    -0.200 NA
ATOM     29  C   UNL A   1     -25.026   6.479  26.963  0.00  0.00    +0.139 C 
ATOM     30  O   UNL A   1     -25.143   3.966  28.243  0.00  0.00    -0.269 OA
ENDBRANCH  21  27
BRANCH  24  31
ATOM     31  O   UNL A   1     -28.193  -0.208  24.477  0.00  0.00    -0.459 OA
BRANCH  31  32
ATOM     32  C   UNL A   1     -29.460   0.005  23.866  0.00  0.00    +0.242 C 
BRANCH  32  33
ATOM     33  C   UNL A   1     -30.065  -1.377  23.573  0.00  0.00    +0.229 C 
ATOM     34  O   UNL A   1     -30.729  -1.878  24.721  0.00  0.00    -0.216 OA
ENDBRANCH  32  33
ENDBRANCH  31  32
ENDBRANCH  24  31
ENDBRANCH   3  20
BRANCH   4  35
ATOM     35  C   UNL A   1     -24.855  -1.012  30.143  0.00  0.00    +0.071 C 
BRANCH  35  36
ATOM     36  C   UNL A   1     -24.973  -2.505  29.788  0.00  0.00    -0.018 C 
ATOM     37  C   UNL A   1     -23.906  -3.173  29.146  0.00  0.00    -0.004 C 
ATOM     38  C   UNL A   1     -23.989  -4.549  28.853  0.00  0.00    -0.000 C 
ATOM     39  C   UNL A   1     -25.137  -5.280  29.205  0.00  0.00    -0.000 C 
ATOM     40  C   UNL A   1     -26.232  -4.611  29.784  0.00  0.00    -0.000 C 
ATOM     41  C   UNL A   1     -26.155  -3.232  30.065  0.00  0.00    -0.004 C 
ENDBRANCH  35  36
BRANCH  35  42
ATOM     42  C   UNL A   1     -25.387  -0.679  31.571  0.00  0.00    +0.080 C 
ATOM     43  C   UNL A   1     -25.189   0.773  32.028  0.00  0.00    +0.019 C 
ATOM     44  C   UNL A   1     -25.336   0.684  33.544  0.00  0.00    +0.020 C 
ATOM     45  C   UNL A   1     -24.829  -0.715  33.905  0.00  0.00    +0.089 C 
ATOM     46  N   UNL A   1     -24.758  -1.481  32.646  0.00  0.00    -0.219 NA
ENDBRANCH  35  42
ENDBRANCH   4  35
TORSDOF 10
