MODEL 2275
MODEL 1
REMARK VINA RESULT:    -5.959      0.000      0.000
REMARK INTER + INTRA:         -17.072
REMARK INTER:                 -10.835
REMARK INTRA:                  -6.237
REMARK UNBOUND:                -6.237
REMARK  Name = No_2275-gen_results/8p0m/2024-11-27-11-27-31/
REMARK  14 active torsions:
REMARK  status: ('A' for Active; 'I' for Inactive)
REMARK    1  A    between atoms: C_8  and  C_15
REMARK    2  A    between atoms: C_10  and  C_11
REMARK    3  A    between atoms: C_11  and  O_13
REMARK    4  A    between atoms: O_13  and  C_28
REMARK    5  A    between atoms: C_15  and  C_16
REMARK    6  A    between atoms: C_16  and  C_17
REMARK    7  A    between atoms: C_17  and  C_18
REMARK    8  A    between atoms: C_19  and  C_20
REMARK    9  A    between atoms: C_20  and  C_21
REMARK   10  A    between atoms: C_28  and  C_29
REMARK   11  A    between atoms: C_29  and  C_30
REMARK   12  A    between atoms: C_30  and  C_31
REMARK   13  A    between atoms: C_31  and  C_32
REMARK   14  A    between atoms: C_33  and  C_34
REMARK                            x       y       z     vdW  Elec       q    Type
REMARK                         _______ _______ _______ _____ _____    ______ ____
ROOT
ATOM      1  C   UNL A   1     -32.910 -11.991   8.217  0.00  0.00    +0.030 A 
ATOM      2  C   UNL A   1     -33.715 -12.400   8.761  0.00  0.00    +0.140 A 
ATOM      3  C   UNL A   1     -31.691 -11.784   8.899  0.00  0.00    +0.002 A 
ATOM      4  C   UNL A   1     -31.542 -12.087  10.238  0.00  0.00    +0.006 A 
ATOM      5  C   UNL A   1     -32.647 -12.626  10.875  0.00  0.00    +0.003 A 
ATOM      6  C   UNL A   1     -33.805 -12.845  10.160  0.00  0.00    +0.030 A 
ATOM      7  C   UNL A   1     -30.462 -11.232   8.240  0.00  0.00    -0.004 A 
ATOM      8  C   UNL A   1     -29.371 -10.891   9.059  0.00  0.00    -0.022 A 
ATOM      9  C   UNL A   1     -29.268 -11.300  10.372  0.00  0.00    +0.002 A 
ATOM     10  C   UNL A   1     -30.393 -11.816  11.012  0.00  0.00    +0.075 A 
ATOM     11  F   UNL A   1     -34.962 -12.743   8.067  0.00  0.00    -0.204 F 
ENDROOT
BRANCH  10  12
ATOM     12  C   UNL A   1     -30.243 -12.119  12.466  0.00  0.00    +0.341 C 
ATOM     13  O   UNL A   1     -30.996 -11.489  13.313  0.00  0.00    -0.245 OA
BRANCH  12  14
ATOM     14  O   UNL A   1     -29.495 -13.145  12.823  0.00  0.00    -0.445 OA
BRANCH  14  15
ATOM     15  C   UNL A   1     -30.113 -14.383  13.078  0.00  0.00    +0.209 C 
BRANCH  15  16
ATOM     16  C   UNL A   1     -29.730 -15.433  12.175  0.00  0.00    +0.048 C 
BRANCH  16  17
ATOM     17  C   UNL A   1     -30.634 -15.628  11.147  0.00  0.00    +0.009 C 
BRANCH  17  18
ATOM     18  C   UNL A   1     -29.917 -15.512   9.829  0.00  0.00    +0.026 C 
BRANCH  18  19
ATOM     19  C   UNL A   1     -30.752 -15.585   8.685  0.00  0.00    -0.026 C 
ATOM     20  C   UNL A   1     -31.729 -15.479   8.437  0.00  0.00    -0.005 C 
BRANCH  20  21
ATOM     21  C   UNL A   1     -32.386 -15.641   7.174  0.00  0.00    -0.000 C 
ATOM     22  C   UNL A   1     -31.994 -14.759   6.175  0.00  0.00    -0.000 C 
ENDBRANCH  20  21
ENDBRANCH  18  19
ENDBRANCH  17  18
ENDBRANCH  16  17
ENDBRANCH  15  16
ENDBRANCH  14  15
ENDBRANCH  12  14
ENDBRANCH  10  12
BRANCH   8  23
ATOM     23  C   UNL A   1     -28.176 -10.407   8.354  0.00  0.00    +0.027 C 
BRANCH  23  24
ATOM     24  C   UNL A   1     -27.021 -10.223   9.053  0.00  0.00    +0.009 C 
BRANCH  24  25
ATOM     25  C   UNL A   1     -26.856  -8.781   9.515  0.00  0.00    +0.026 C 
BRANCH  25  26
ATOM     26  C   UNL A   1     -27.750  -7.812   8.909  0.00  0.00    -0.031 C 
ATOM     27  C   UNL A   1     -28.685  -7.132   9.678  0.00  0.00    -0.031 C 
BRANCH  27  28
ATOM     28  C   UNL A   1     -29.651  -6.306   9.042  0.00  0.00    +0.026 C 
BRANCH  28  29
ATOM     29  C   UNL A   1     -30.995  -6.740   9.248  0.00  0.00    +0.004 C 
ATOM     30  C   UNL A   1     -31.070  -7.261  10.612  0.00  0.00    +0.000 C 
ATOM     31  C   UNL A   1     -32.070  -8.392  10.594  0.00  0.00    +0.000 C 
ATOM     32  C   UNL A   1     -32.902  -8.621   9.590  0.00  0.00    +0.000 C 
ATOM     33  C   UNL A   1     -32.771  -7.955   8.404  0.00  0.00    +0.000 C 
ATOM     34  C   UNL A   1     -31.428  -7.612   8.219  0.00  0.00    +0.000 C 
ATOM     35  C   UNL A   1     -31.868  -5.469   9.265  0.00  0.00    +0.000 C 
ENDBRANCH  28  29
ENDBRANCH  27  28
ENDBRANCH  25  26
ENDBRANCH  24  25
ENDBRANCH  23  24
ENDBRANCH   8  23
TORSDOF 14
ENDMDL
ENDMDL
