REMARK  Name = outputs/IAG933/test6/raw/output_2276_IAG933_linker_design_.xyz
REMARK  12 active torsions:
REMARK  status: ('A' for Active; 'I' for Inactive)
REMARK    1  A    between atoms: C_1  and  C_2
REMARK    2  A    between atoms: C_1  and  C_8
REMARK    3  A    between atoms: C_1  and  C_37
REMARK    4  A    between atoms: C_13  and  C_29
REMARK    5  A    between atoms: C_14  and  C_15
REMARK    6  A    between atoms: C_21  and  O_22
REMARK    7  A    between atoms: O_22  and  C_23
REMARK    8  A    between atoms: C_23  and  C_24
REMARK    9  A    between atoms: C_28  and  C_37
REMARK   10  A    between atoms: C_34  and  C_35
REMARK   11  A    between atoms: C_34  and  C_42
REMARK   12  A    between atoms: C_37  and  N_43
REMARK                            x       y       z     vdW  Elec       q    Type
REMARK                         _______ _______ _______ _____ _____    ______ ____
ROOT
ATOM      1  C   UNL A   1     -24.117   0.713  28.355  0.00  0.00    +0.017 C 
ATOM      2  C   UNL A   1     -24.309   1.408  27.060  0.00  0.00    +0.029 C 
ATOM      3  C   UNL A   1     -21.894   1.803  26.881  0.00  0.00    +0.031 C 
ATOM      4  C   UNL A   1     -22.734   0.597  28.844  0.00  0.00    +0.087 C 
ATOM      5  C   UNL A   1     -23.170   1.935  26.400  0.00  0.00    +0.140 C 
ATOM      6  N   UNL A   1     -22.375  -0.083  30.038  0.00  0.00    -0.128 NA
ATOM      7  C   UNL A   1     -21.686   1.120  28.060  0.00  0.00    +0.020 C 
ATOM      8  F   UNL A   1     -23.311   2.735  25.312  0.00  0.00    -0.204 F 
ENDROOT
BRANCH   2   9
ATOM      9  C   UNL A   1     -25.688   1.614  26.461  0.00  0.00    +0.040 C 
ATOM     10  C   UNL A   1     -26.250   2.920  26.395  0.00  0.00    +0.077 C 
ATOM     11  C   UNL A   1     -27.438   3.091  25.645  0.00  0.00    +0.107 C 
ATOM     12  N   UNL A   1     -28.075   2.089  25.003  0.00  0.00    -0.208 NA
ATOM     13  C   UNL A   1     -27.543   0.849  25.079  0.00  0.00    +0.253 C 
ATOM     14  C   UNL A   1     -26.354   0.576  25.777  0.00  0.00    +0.193 C 
ATOM     15  F   UNL A   1     -25.860  -0.681  25.795  0.00  0.00    -0.199 F 
BRANCH  10  16
ATOM     16  C   UNL A   1     -25.642   4.093  27.123  0.00  0.00    +0.266 C 
ATOM     17  N   UNL A   1     -25.614   5.252  26.449  0.00  0.00    -0.200 NA
ATOM     18  C   UNL A   1     -25.026   6.479  26.963  0.00  0.00    +0.139 C 
ATOM     19  O   UNL A   1     -25.143   3.966  28.243  0.00  0.00    -0.268 OA
ENDBRANCH  10  16
BRANCH  13  20
ATOM     20  O   UNL A   1     -28.193  -0.208  24.477  0.00  0.00    -0.456 OA
BRANCH  20  21
ATOM     21  C   UNL A   1     -29.460   0.005  23.866  0.00  0.00    +0.243 C 
BRANCH  21  22
ATOM     22  C   UNL A   1     -30.065  -1.377  23.573  0.00  0.00    +0.229 C 
ATOM     23  O   UNL A   1     -30.729  -1.878  24.721  0.00  0.00    -0.216 OA
ENDBRANCH  21  22
ENDBRANCH  20  21
ENDBRANCH  13  20
ENDBRANCH   2   9
BRANCH   1  24
ATOM     24  C   UNL A   1     -25.198  -0.007  29.060  0.00  0.00    +0.124 C 
BRANCH  24  27
ATOM     25  O   UNL A   1     -28.022  -1.195  29.302  0.00  0.00    -0.271 OA
ATOM     26  C   UNL A   1     -27.734  -0.151  28.701  0.00  0.00    +0.272 C 
ATOM     27  N   UNL A   1     -26.496   0.303  28.725  0.00  0.00    -0.200 NA
BRANCH  26  28
ATOM     28  C   UNL A   1     -28.777   0.714  28.006  0.00  0.00    +0.229 C 
ATOM     29  O   UNL A   1     -29.854  -0.148  27.554  0.00  0.00    -0.213 OA
BRANCH  28  30
ATOM     30  C   UNL A   1     -29.323   1.734  28.987  0.00  0.00    +0.043 C 
ATOM     31  C   UNL A   1     -29.775   1.485  30.351  0.00  0.00    +0.003 C 
ENDBRANCH  28  30
ENDBRANCH  26  28
ENDBRANCH  24  27
BRANCH  24  32
ATOM     32  C   UNL A   1     -24.855  -1.012  30.143  0.00  0.00    +0.062 C 
BRANCH  32  33
ATOM     33  C   UNL A   1     -24.973  -2.505  29.788  0.00  0.00    -0.019 C 
ATOM     34  C   UNL A   1     -23.906  -3.173  29.146  0.00  0.00    -0.004 C 
ATOM     35  C   UNL A   1     -23.989  -4.549  28.853  0.00  0.00    -0.000 C 
ATOM     36  C   UNL A   1     -25.137  -5.280  29.205  0.00  0.00    -0.000 C 
ATOM     37  C   UNL A   1     -26.232  -4.611  29.784  0.00  0.00    -0.000 C 
ATOM     38  C   UNL A   1     -26.155  -3.232  30.065  0.00  0.00    -0.004 C 
ENDBRANCH  32  33
BRANCH  32  39
ATOM     39  C   UNL A   1     -25.387  -0.679  31.571  0.00  0.00    +0.079 C 
ATOM     40  C   UNL A   1     -25.189   0.773  32.028  0.00  0.00    +0.019 C 
ATOM     41  C   UNL A   1     -25.336   0.684  33.544  0.00  0.00    +0.020 C 
ATOM     42  C   UNL A   1     -24.829  -0.715  33.905  0.00  0.00    +0.089 C 
ATOM     43  N   UNL A   1     -24.758  -1.481  32.646  0.00  0.00    -0.219 NA
ENDBRANCH  32  39
ENDBRANCH  24  32
ENDBRANCH   1  24
TORSDOF 12
