MODEL 2276
MODEL 1
REMARK VINA RESULT:    -4.794      0.000      0.000
REMARK INTER + INTRA:          -5.522
REMARK INTER:                  -5.355
REMARK INTRA:                  -0.167
REMARK UNBOUND:                -0.167
REMARK  Name = No_2276-gen_results/8p0m/2024-11-27-11-27-31/
REMARK  2 active torsions:
REMARK  status: ('A' for Active; 'I' for Inactive)
REMARK    1  A    between atoms: C_3  and  C_5
REMARK    2  A    between atoms: C_5  and  N_9
REMARK                            x       y       z     vdW  Elec       q    Type
REMARK                         _______ _______ _______ _____ _____    ______ ____
ROOT
ATOM      1  O   UNL A   1     -12.942 -20.546  23.103  0.00  0.00    -0.273 OA
ATOM      2  C   UNL A   1     -11.940 -21.042  22.574  0.00  0.00    +0.243 C 
ATOM      3  C   UNL A   1     -11.788 -21.248  21.318  0.00  0.00    +0.102 C 
ATOM      4  N   UNL A   1     -10.766 -21.312  23.379  0.00  0.00    -0.205 NA
ATOM      5  C   UNL A   1      -9.552 -21.805  22.924  0.00  0.00    +0.115 C 
ATOM      6  C   UNL A   1      -9.448 -22.134  21.628  0.00  0.00    +0.024 C 
ATOM      7  C   UNL A   1     -10.462 -21.902  20.778  0.00  0.00    +0.013 C 
ENDROOT
BRANCH   3   8
ATOM      8  C   UNL A   1     -12.648 -21.205  20.382  0.00  0.00    +0.134 C 
BRANCH   8   9
ATOM      9  N   UNL A   1     -12.498 -20.652  19.342  0.00  0.00    -0.273 NA
ATOM     10  C   UNL A   1     -13.340 -19.845  18.651  0.00  0.00    +0.067 C 
ATOM     11  C   UNL A   1     -13.074 -19.358  17.308  0.00  0.00    +0.053 C 
ENDBRANCH   8   9
ENDBRANCH   3   8
TORSDOF 2
ENDMDL
ENDMDL
