REMARK  Name = outputs/IAG933/test6/raw/output_2277_IAG933_linker_design_.xyz
REMARK  13 active torsions:
REMARK  status: ('A' for Active; 'I' for Inactive)
REMARK    1  A    between atoms: C_1  and  C_2
REMARK    2  A    between atoms: C_1  and  C_8
REMARK    3  A    between atoms: C_1  and  C_35
REMARK    4  A    between atoms: C_13  and  C_29
REMARK    5  A    between atoms: C_14  and  C_15
REMARK    6  A    between atoms: C_21  and  O_22
REMARK    7  A    between atoms: O_22  and  C_23
REMARK    8  A    between atoms: C_23  and  C_24
REMARK    9  A    between atoms: C_28  and  C_34
REMARK   10  A    between atoms: C_28  and  C_44
REMARK   11  A    between atoms: O_31  and  C_41
REMARK   12  A    between atoms: O_31  and  C_44
REMARK   13  A    between atoms: N_32  and  C_33
REMARK                            x       y       z     vdW  Elec       q    Type
REMARK                         _______ _______ _______ _____ _____    ______ ____
ROOT
ATOM      1  C   UNL A   1     -24.768   1.291  27.241  0.00  0.00    +0.078 C 
ATOM      2  C   UNL A   1     -22.889   0.134  29.212  0.00  0.00    +0.019 C 
ATOM      3  C   UNL A   1     -25.256   0.593  28.486  0.00  0.00    +0.155 C 
ATOM      4  C   UNL A   1     -24.370  -0.098  29.315  0.00  0.00    -0.012 C 
ATOM      5  C   UNL A   1     -22.019   0.796  28.270  0.00  0.00    +0.157 C 
ATOM      6  O   UNL A   1     -21.496   2.245  26.502  0.00  0.00    -0.266 OA
ATOM      7  N   UNL A   1     -23.632   1.745  26.747  0.00  0.00    -0.176 NA
ATOM      8  C   UNL A   1     -22.357   1.616  27.129  0.00  0.00    +0.288 C 
ATOM      9  N   UNL A   1     -20.777   0.895  28.665  0.00  0.00    -0.143 NA
ENDROOT
BRANCH   1  10
ATOM     10  C   UNL A   1     -25.688   1.614  26.461  0.00  0.00    +0.051 C 
ATOM     11  C   UNL A   1     -26.250   2.920  26.395  0.00  0.00    +0.078 C 
ATOM     12  C   UNL A   1     -27.438   3.091  25.645  0.00  0.00    +0.107 C 
ATOM     13  N   UNL A   1     -28.075   2.089  25.003  0.00  0.00    -0.208 NA
ATOM     14  C   UNL A   1     -27.543   0.849  25.079  0.00  0.00    +0.253 C 
ATOM     15  C   UNL A   1     -26.354   0.576  25.777  0.00  0.00    +0.194 C 
ATOM     16  F   UNL A   1     -25.860  -0.681  25.795  0.00  0.00    -0.199 F 
BRANCH  11  17
ATOM     17  C   UNL A   1     -25.642   4.093  27.123  0.00  0.00    +0.267 C 
ATOM     18  N   UNL A   1     -25.614   5.252  26.449  0.00  0.00    -0.200 NA
ATOM     19  C   UNL A   1     -25.026   6.479  26.963  0.00  0.00    +0.139 C 
ATOM     20  O   UNL A   1     -25.143   3.966  28.243  0.00  0.00    -0.268 OA
ENDBRANCH  11  17
BRANCH  14  21
ATOM     21  O   UNL A   1     -28.193  -0.208  24.477  0.00  0.00    -0.456 OA
BRANCH  21  22
ATOM     22  C   UNL A   1     -29.460   0.005  23.866  0.00  0.00    +0.243 C 
BRANCH  22  23
ATOM     23  C   UNL A   1     -30.065  -1.377  23.573  0.00  0.00    +0.229 C 
ATOM     24  O   UNL A   1     -30.729  -1.878  24.721  0.00  0.00    -0.216 OA
ENDBRANCH  22  23
ENDBRANCH  21  22
ENDBRANCH  14  21
ENDBRANCH   1  10
BRANCH   3  25
ATOM     25  N   UNL A   1     -26.493   0.879  28.900  0.00  0.00    -0.160 NA
ATOM     26  O   UNL A   1     -28.654   0.358  29.221  0.00  0.00    -0.225 OA
ATOM     27  C   UNL A   1     -27.760   1.101  29.476  0.00  0.00    +0.422 C 
BRANCH  27  28
ATOM     28  O   UNL A   1     -28.000   2.256  30.356  0.00  0.00    -0.433 OA
BRANCH  28  29
ATOM     29  C   UNL A   1     -28.940   3.418  30.714  0.00  0.00    +0.213 C 
BRANCH  29  30
ATOM     30  C   UNL A   1     -29.568   3.450  32.182  0.00  0.00    +0.083 C 
BRANCH  30  31
ATOM     31  C   UNL A   1     -29.654   1.961  32.593  0.00  0.00    +0.186 C 
ATOM     32  O   UNL A   1     -28.351   1.553  32.921  0.00  0.00    -0.220 OA
ENDBRANCH  30  31
ENDBRANCH  29  30
ENDBRANCH  28  29
ENDBRANCH  27  28
ENDBRANCH   3  25
BRANCH   4  33
ATOM     33  C   UNL A   1     -24.855  -1.012  30.143  0.00  0.00    +0.059 C 
BRANCH  33  34
ATOM     34  C   UNL A   1     -24.973  -2.505  29.788  0.00  0.00    -0.017 C 
ATOM     35  C   UNL A   1     -23.906  -3.173  29.146  0.00  0.00    -0.004 C 
ATOM     36  C   UNL A   1     -23.989  -4.549  28.853  0.00  0.00    -0.000 C 
ATOM     37  C   UNL A   1     -25.137  -5.280  29.205  0.00  0.00    -0.000 C 
ATOM     38  C   UNL A   1     -26.232  -4.611  29.784  0.00  0.00    -0.000 C 
ATOM     39  C   UNL A   1     -26.155  -3.232  30.065  0.00  0.00    -0.004 C 
ENDBRANCH  33  34
BRANCH  33  40
ATOM     40  C   UNL A   1     -25.387  -0.679  31.571  0.00  0.00    +0.081 C 
ATOM     41  C   UNL A   1     -25.189   0.773  32.028  0.00  0.00    +0.019 C 
ATOM     42  C   UNL A   1     -25.336   0.684  33.544  0.00  0.00    +0.020 C 
ATOM     43  C   UNL A   1     -24.829  -0.715  33.905  0.00  0.00    +0.089 C 
ATOM     44  N   UNL A   1     -24.758  -1.481  32.646  0.00  0.00    -0.219 NA
ENDBRANCH  33  40
ENDBRANCH   4  33
TORSDOF 13
