MODEL 2277
MODEL 1
REMARK VINA RESULT:    -5.566      0.000      0.000
REMARK INTER + INTRA:          -6.311
REMARK INTER:                  -6.217
REMARK INTRA:                  -0.094
REMARK UNBOUND:                -0.094
REMARK  Name = No_2277-gen_results/8p0m/2024-11-27-11-27-31/
REMARK  2 active torsions:
REMARK  status: ('A' for Active; 'I' for Inactive)
REMARK    1  A    between atoms: C_1  and  C_7
REMARK    2  A    between atoms: C_5  and  C_10
REMARK                            x       y       z     vdW  Elec       q    Type
REMARK                         _______ _______ _______ _____ _____    ______ ____
ROOT
ATOM      1  C   UNL A   1     -26.434  -3.871  29.792  0.00  0.00    +0.080 A 
ATOM      2  C   UNL A   1     -26.008  -4.975  29.543  0.00  0.00    +0.007 A 
ATOM      3  C   UNL A   1     -24.775  -5.206  28.964  0.00  0.00    +0.000 A 
ATOM      4  C   UNL A   1     -23.949  -4.082  28.683  0.00  0.00    +0.007 A 
ATOM      5  C   UNL A   1     -24.396  -2.887  29.135  0.00  0.00    +0.080 A 
ATOM      6  C   UNL A   1     -25.573  -2.765  29.717  0.00  0.00    +0.013 A 
ENDROOT
BRANCH   1   7
ATOM      7  C   UNL A   1     -27.788  -3.712  30.437  0.00  0.00    +0.388 C 
ATOM      8  O   UNL A   1     -28.406  -4.725  30.739  0.00  0.00    -0.241 OA
ATOM      9  O   UNL A   1     -28.480  -2.585  30.221  0.00  0.00    -0.241 OA
ENDBRANCH   1   7
BRANCH   5  10
ATOM     10  C   UNL A   1     -23.506  -1.730  28.874  0.00  0.00    +0.388 C 
ATOM     11  O   UNL A   1     -22.311  -1.671  28.904  0.00  0.00    -0.241 OA
ATOM     12  O   UNL A   1     -24.113  -0.656  28.361  0.00  0.00    -0.241 OA
ENDBRANCH   5  10
TORSDOF 2
ENDMDL
ENDMDL
