REMARK  Name = No_2278-gen_results/8p0m/2024-11-27-11-27-31/
REMARK  8 active torsions:
REMARK  status: ('A' for Active; 'I' for Inactive)
REMARK    1  A    between atoms: C_3  and  C_5
REMARK    2  A    between atoms: N_4  and  C_11
REMARK    3  A    between atoms: C_10  and  C_21
REMARK    4  A    between atoms: C_11  and  C_15
REMARK    5  A    between atoms: C_18  and  C_31
REMARK    6  A    between atoms: C_23  and  C_27
REMARK    7  A    between atoms: C_31  and  C_32
REMARK    8  A    between atoms: C_31  and  C_34
REMARK                            x       y       z     vdW  Elec       q    Type
REMARK                         _______ _______ _______ _____ _____    ______ ____
ROOT
ATOM      1  O   UNL A   1     -28.123  -1.335  28.487  0.00  0.00    -0.275 OA
ATOM      2  C   UNL A   1     -28.521  -0.436  29.078  0.00  0.00    +0.230 C 
ATOM      3  C   UNL A   1     -28.589   0.592  28.946  0.00  0.00    +0.099 C 
ATOM      4  N   UNL A   1     -28.787  -0.887  30.487  0.00  0.00    -0.275 N 
ATOM      5  C   UNL A   1     -29.324   0.000  31.483  0.00  0.00    +0.094 C 
ATOM      6  C   UNL A   1     -29.742   0.989  30.984  0.00  0.00    +0.022 C 
ATOM      7  C   UNL A   1     -29.172   1.666  29.838  0.00  0.00    +0.015 C 
ENDROOT
BRANCH   3   8
ATOM      8  C   UNL A   1     -27.784   1.282  27.987  0.00  0.00    -0.014 A 
ATOM      9  C   UNL A   1     -26.427   1.040  27.994  0.00  0.00    -0.004 A 
ATOM     10  C   UNL A   1     -25.548   1.143  26.940  0.00  0.00    -0.000 A 
ATOM     11  C   UNL A   1     -25.850   1.784  25.777  0.00  0.00    -0.000 A 
ATOM     12  C   UNL A   1     -27.214   2.138  25.656  0.00  0.00    -0.000 A 
ATOM     13  C   UNL A   1     -28.110   1.867  26.682  0.00  0.00    -0.004 A 
BRANCH  13  14
ATOM     14  C   UNL A   1     -29.507   2.214  26.463  0.00  0.00    -0.000 A 
ATOM     15  C   UNL A   1     -30.475   1.380  26.700  0.00  0.00    +0.004 A 
ATOM     16  C   UNL A   1     -31.800   1.715  26.616  0.00  0.00    +0.071 A 
ATOM     17  C   UNL A   1     -32.108   2.982  26.207  0.00  0.00    +0.004 A 
ATOM     18  C   UNL A   1     -29.828   3.560  26.121  0.00  0.00    -0.000 A 
ATOM     19  C   UNL A   1     -31.130   3.961  25.944  0.00  0.00    -0.000 A 
BRANCH  16  20
ATOM     20  C   UNL A   1     -32.931   0.806  26.904  0.00  0.00    +0.419 C 
ATOM     21  F   UNL A   1     -33.235   0.639  28.055  0.00  0.00    -0.166 F 
ATOM     22  F   UNL A   1     -34.018   1.194  26.181  0.00  0.00    -0.166 F 
ATOM     23  F   UNL A   1     -32.533  -0.401  26.345  0.00  0.00    -0.166 F 
ENDBRANCH  16  20
ENDBRANCH  13  14
ENDBRANCH   3   8
BRANCH   4  24
ATOM     24  C   UNL A   1     -28.707  -2.311  30.947  0.00  0.00    +0.120 C 
BRANCH  24  25
ATOM     25  C   UNL A   1     -29.365  -3.345  30.338  0.00  0.00    -0.002 A 
ATOM     26  C   UNL A   1     -30.602  -3.197  30.135  0.00  0.00    -0.003 A 
ATOM     27  C   UNL A   1     -31.337  -4.301  29.504  0.00  0.00    -0.004 A 
ATOM     28  C   UNL A   1     -30.636  -5.508  29.272  0.00  0.00    -0.014 A 
ATOM     29  C   UNL A   1     -29.288  -5.583  29.598  0.00  0.00    -0.004 A 
ATOM     30  C   UNL A   1     -28.601  -4.553  30.215  0.00  0.00    -0.003 A 
BRANCH  28  31
ATOM     31  C   UNL A   1     -31.294  -6.623  28.667  0.00  0.00    +0.066 C 
BRANCH  31  32
ATOM     32  C   UNL A   1     -31.750  -6.700  27.397  0.00  0.00    -0.018 C 
ATOM     33  C   UNL A   1     -32.214  -7.848  26.824  0.00  0.00    -0.004 C 
ENDBRANCH  31  32
BRANCH  31  34
ATOM     34  C   UNL A   1     -31.217  -7.965  29.169  0.00  0.00    -0.018 C 
ATOM     35  C   UNL A   1     -31.684  -9.124  28.725  0.00  0.00    -0.004 C 
ENDBRANCH  31  34
ENDBRANCH  28  31
ENDBRANCH  24  25
ENDBRANCH   4  24
TORSDOF 8
