MODEL 2279
MODEL 1
REMARK VINA RESULT:    -7.835      0.000      0.000
REMARK INTER + INTRA:          -8.240
REMARK INTER:                  -8.293
REMARK INTRA:                   0.053
REMARK UNBOUND:                 0.053
REMARK  Name = No_2279-gen_results/8p0m/2024-11-27-11-27-31/
REMARK  1 active torsions:
REMARK  status: ('A' for Active; 'I' for Inactive)
REMARK    1  A    between atoms: C_4  and  C_11
REMARK                            x       y       z     vdW  Elec       q    Type
REMARK                         _______ _______ _______ _____ _____    ______ ____
ROOT
ATOM      1  C   UNL A   1     -25.108   1.384  25.881  0.00  0.00    +0.000 A 
ATOM      2  C   UNL A   1     -25.069   0.613  26.812  0.00  0.00    +0.000 A 
ATOM      3  C   UNL A   1     -23.929   0.396  27.585  0.00  0.00    +0.004 A 
ATOM      4  C   UNL A   1     -23.789  -0.530  28.726  0.00  0.00    +0.054 A 
ATOM      5  C   UNL A   1     -22.583  -0.760  29.478  0.00  0.00    +0.004 A 
ATOM      6  C   UNL A   1     -21.540   0.129  29.198  0.00  0.00    +0.000 A 
ATOM      7  C   UNL A   1     -23.813   2.012  25.449  0.00  0.00    +0.000 A 
ATOM      8  C   UNL A   1     -22.665   1.924  26.202  0.00  0.00    +0.000 A 
ATOM      9  C   UNL A   1     -22.640   1.074  27.293  0.00  0.00    +0.000 A 
ATOM     10  C   UNL A   1     -21.505   0.955  28.095  0.00  0.00    +0.000 A 
ENDROOT
BRANCH   4  11
ATOM     11  C   UNL A   1     -24.956  -1.362  29.164  0.00  0.00    +0.249 C 
ATOM     12  N   UNL A   1     -24.836  -2.558  29.223  0.00  0.00    -0.276 N 
ATOM     13  O   UNL A   1     -25.913  -0.773  29.806  0.00  0.00    -0.270 OA
ATOM     14  C   UNL A   1     -23.881  -3.469  28.628  0.00  0.00    +0.094 C 
ATOM     15  C   UNL A   1     -24.113  -4.826  28.564  0.00  0.00    +0.022 C 
ATOM     16  C   UNL A   1     -25.319  -5.320  29.133  0.00  0.00    +0.004 C 
ATOM     17  C   UNL A   1     -26.271  -4.475  29.699  0.00  0.00    +0.022 C 
ATOM     18  C   UNL A   1     -26.037  -3.190  29.675  0.00  0.00    +0.094 C 
ENDBRANCH   4  11
TORSDOF 1
ENDMDL
ENDMDL
