REMARK  Name = No_2279-gen_results/8p0m/2024-11-27-11-27-31/
REMARK  1 active torsions:
REMARK  status: ('A' for Active; 'I' for Inactive)
REMARK    1  A    between atoms: C_4  and  C_11
REMARK                            x       y       z     vdW  Elec       q    Type
REMARK                         _______ _______ _______ _____ _____    ______ ____
ROOT
ATOM      1  C   UNL A   1     -28.016  -0.814  28.878  0.00  0.00    +0.000 A 
ATOM      2  C   UNL A   1     -27.064  -0.119  28.608  0.00  0.00    +0.000 A 
ATOM      3  C   UNL A   1     -25.765  -0.390  29.036  0.00  0.00    +0.004 A 
ATOM      4  C   UNL A   1     -24.552   0.406  28.765  0.00  0.00    +0.054 A 
ATOM      5  C   UNL A   1     -23.230   0.118  29.258  0.00  0.00    +0.004 A 
ATOM      6  C   UNL A   1     -23.094  -1.131  29.873  0.00  0.00    +0.000 A 
ATOM      7  C   UNL A   1     -27.798  -1.934  29.856  0.00  0.00    +0.000 A 
ATOM      8  C   UNL A   1     -26.542  -2.327  30.258  0.00  0.00    +0.000 A 
ATOM      9  C   UNL A   1     -25.451  -1.552  29.908  0.00  0.00    +0.000 A 
ATOM     10  C   UNL A   1     -24.156  -1.910  30.281  0.00  0.00    +0.000 A 
ENDROOT
BRANCH   4  11
ATOM     11  C   UNL A   1     -24.645   1.658  27.946  0.00  0.00    +0.249 C 
ATOM     12  N   UNL A   1     -24.882   2.702  28.494  0.00  0.00    -0.276 N 
ATOM     13  O   UNL A   1     -24.115   1.649  26.765  0.00  0.00    -0.270 OA
ATOM     14  C   UNL A   1     -25.455   3.013  29.786  0.00  0.00    +0.094 C 
ATOM     15  C   UNL A   1     -25.935   4.270  30.086  0.00  0.00    +0.022 C 
ATOM     16  C   UNL A   1     -25.823   5.278  29.089  0.00  0.00    +0.004 C 
ATOM     17  C   UNL A   1     -25.294   5.015  27.827  0.00  0.00    +0.022 C 
ATOM     18  C   UNL A   1     -24.916   3.792  27.568  0.00  0.00    +0.094 C 
ENDBRANCH   4  11
TORSDOF 1
