MODEL 2280
MODEL 1
REMARK VINA RESULT:    -3.911      0.000      0.000
REMARK INTER + INTRA:          -6.949
REMARK INTER:                  -6.197
REMARK INTRA:                  -0.752
REMARK UNBOUND:                -0.752
REMARK  Name = No_2280-gen_results/8p0m/2024-11-27-11-27-31/
REMARK  10 active torsions:
REMARK  status: ('A' for Active; 'I' for Inactive)
REMARK    1  A    between atoms: P_1  and  O_2
REMARK    2  A    between atoms: P_1  and  O_3
REMARK    3  A    between atoms: P_1  and  O_4
REMARK    4  A    between atoms: O_3  and  C_7
REMARK    5  A    between atoms: C_7  and  C_9
REMARK    6  A    between atoms: C_9  and  O_10
REMARK    7  A    between atoms: O_10  and  C_11
REMARK    8  A    between atoms: C_11  and  C_12
REMARK    9  A    between atoms: C_12  and  O_13
REMARK   10  A    between atoms: O_13  and  C_14
REMARK                            x       y       z     vdW  Elec       q    Type
REMARK                         _______ _______ _______ _____ _____    ______ ____
ROOT
ATOM      1  C   UNL A   1     -26.256  -1.932  30.631  0.00  0.00    +0.186 C 
ENDROOT
BRANCH   1   2
ATOM      2  O   UNL A   1     -25.195  -2.712  30.222  0.00  0.00    -0.268 OA
BRANCH   2   3
ATOM      3  P   UNL A   1     -24.486  -2.858  28.787  0.00  0.00    +0.525 P 
ATOM      4  O   UNL A   1     -25.047  -1.712  27.950  0.00  0.00    -0.223 OA
BRANCH   3   5
ATOM      5  O   UNL A   1     -24.469  -3.954  28.488  0.00  0.00    -0.173 OA
ATOM      6 CL   UNL A   1     -25.071  -5.202  29.030  0.00  0.00    +0.072 Cl
ENDBRANCH   3   5
BRANCH   3   7
ATOM      7  O   UNL A   1     -23.042  -2.275  29.135  0.00  0.00    -0.082 OA
ATOM      8  F   UNL A   1     -22.497  -1.511  28.616  0.00  0.00    -0.037 F 
ENDBRANCH   3   7
ENDBRANCH   2   3
ENDBRANCH   1   2
BRANCH   1   9
ATOM      9  C   UNL A   1     -25.822  -0.940  31.686  0.00  0.00    +0.175 C 
BRANCH   9  10
ATOM     10  O   UNL A   1     -24.787  -0.352  31.490  0.00  0.00    -0.348 OA
BRANCH  10  11
ATOM     11  C   UNL A   1     -24.821   0.757  30.554  0.00  0.00    +0.174 C 
BRANCH  11  12
ATOM     12  C   UNL A   1     -23.455   1.138  30.259  0.00  0.00    +0.174 C 
BRANCH  12  13
ATOM     13  O   UNL A   1     -23.352   2.074  29.299  0.00  0.00    -0.351 OA
BRANCH  13  14
ATOM     14  C   UNL A   1     -23.350   1.604  27.914  0.00  0.00    +0.142 C 
ATOM     15  C   UNL A   1     -21.890   1.700  27.449  0.00  0.00    +0.035 C 
ENDBRANCH  13  14
ENDBRANCH  12  13
ENDBRANCH  11  12
ENDBRANCH  10  11
ENDBRANCH   9  10
ENDBRANCH   1   9
TORSDOF 10
ENDMDL
ENDMDL
