REMARK  Name = No_2281-gen_results/8p0m/2024-11-27-11-27-31/
REMARK  2 active torsions:
REMARK  status: ('A' for Active; 'I' for Inactive)
REMARK    1  A    between atoms: C_2  and  O_7
REMARK    2  A    between atoms: O_7  and  C_8
REMARK                            x       y       z     vdW  Elec       q    Type
REMARK                         _______ _______ _______ _____ _____    ______ ____
ROOT
ATOM      1  C   UNL A   1     -28.016  -0.814  28.878  0.00  0.00    +0.037 A 
ATOM      2  C   UNL A   1     -28.469  -0.785  29.829  0.00  0.00    +0.139 A 
ATOM      3  C   UNL A   1     -26.504  -0.778  28.877  0.00  0.00    +0.001 A 
ATOM      4  C   UNL A   1     -25.810  -0.853  30.103  0.00  0.00    -0.000 A 
ATOM      5  C   UNL A   1     -27.991  -0.892  31.226  0.00  0.00    +0.037 A 
ATOM      6  C   UNL A   1     -26.604  -0.868  31.265  0.00  0.00    +0.003 A 
ATOM      7  C   UNL A   1     -24.366  -0.801  30.152  0.00  0.00    -0.000 A 
ATOM      8  C   UNL A   1     -23.611  -0.576  29.079  0.00  0.00    -0.000 A 
ATOM      9  C   UNL A   1     -22.157  -0.411  29.245  0.00  0.00    -0.000 A 
ATOM     10  C   UNL A   1     -21.416  -0.011  28.110  0.00  0.00    +0.000 A 
ATOM     11  C   UNL A   1     -22.078   0.916  27.232  0.00  0.00    +0.005 A 
ATOM     12  C   UNL A   1     -23.520   1.055  27.253  0.00  0.00    +0.055 A 
ATOM     13  C   UNL A   1     -24.220   0.426  28.186  0.00  0.00    +0.002 A 
ATOM     14  C   UNL A   1     -23.904   2.007  26.169  0.00  0.00    +0.265 C 
ATOM     15  N   UNL A   1     -25.243   2.132  26.120  0.00  0.00    -0.197 NA
ATOM     16  O   UNL A   1     -23.152   2.418  25.317  0.00  0.00    -0.268 OA
ATOM     17  C   UNL A   1     -26.233   1.822  26.851  0.00  0.00    +0.142 C 
ATOM     18  C   UNL A   1     -25.608   0.643  28.095  0.00  0.00    -0.000 A 
ENDROOT
BRANCH   2  19
ATOM     19  O   UNL A   1     -29.939  -0.819  29.836  0.00  0.00    -0.472 OA
BRANCH  19  20
ATOM     20  C   UNL A   1     -30.698  -1.654  30.350  0.00  0.00    +0.222 C 
ATOM     21  C   UNL A   1     -31.738  -1.970  29.578  0.00  0.00    +0.051 C 
ATOM     22  C   UNL A   1     -32.196  -3.287  29.560  0.00  0.00    +0.005 C 
ATOM     23  C   UNL A   1     -31.327  -4.175  29.677  0.00  0.00    +0.008 C 
ATOM     24  C   UNL A   1     -30.229  -4.061  30.669  0.00  0.00    +0.068 C 
ATOM     25  C   UNL A   1     -29.678  -2.708  30.655  0.00  0.00    +0.190 C 
ATOM     26  O   UNL A   1     -28.540  -2.704  31.309  0.00  0.00    -0.292 OA
ENDBRANCH  19  20
ENDBRANCH   2  19
TORSDOF 2
