MODEL 2282
MODEL 1
REMARK VINA RESULT:    -4.452      0.000      0.000
REMARK INTER + INTRA:          -4.452
REMARK INTER:                  -4.452
REMARK INTRA:                   0.000
REMARK UNBOUND:                 0.000
REMARK  Name = No_2282-gen_results/8p0m/2024-11-27-11-27-31/
REMARK  0 active torsions:
REMARK  status: ('A' for Active; 'I' for Inactive)
REMARK                            x       y       z     vdW  Elec       q    Type
REMARK                         _______ _______ _______ _____ _____    ______ ____
ROOT
ATOM      1  C   UNL A   1     -10.187  -9.762  18.224  0.00  0.00    +0.030 A 
ATOM      2  C   UNL A   1      -9.306 -10.310  18.038  0.00  0.00    +0.140 A 
ATOM      3  C   UNL A   1     -10.273  -9.114  19.588  0.00  0.00    +0.002 A 
ATOM      4  C   UNL A   1      -9.153  -9.155  20.445  0.00  0.00    +0.000 A 
ATOM      5  C   UNL A   1      -8.007 -10.479  18.727  0.00  0.00    +0.030 A 
ATOM      6  C   UNL A   1      -8.046  -9.891  19.983  0.00  0.00    +0.002 A 
ATOM      7  F   UNL A   1      -9.223 -10.919  16.723  0.00  0.00    -0.204 F 
ENDROOT
TORSDOF 0
ENDMDL
ENDMDL
