MODEL 2283
MODEL 1
REMARK VINA RESULT:    -4.608      0.000      0.000
REMARK INTER + INTRA:          -4.608
REMARK INTER:                  -4.608
REMARK INTRA:                   0.000
REMARK UNBOUND:                 0.000
REMARK  Name = No_2283-gen_results/8p0m/2024-11-27-11-27-31/
REMARK  0 active torsions:
REMARK  status: ('A' for Active; 'I' for Inactive)
REMARK                            x       y       z     vdW  Elec       q    Type
REMARK                         _______ _______ _______ _____ _____    ______ ____
ROOT
ATOM      1  C   UNL A   1      -9.208  -9.227  20.283  0.00  0.00    +0.042 A 
ATOM      2  C   UNL A   1     -10.152  -9.139  19.532  0.00  0.00    +0.003 A 
ATOM      3  C   UNL A   1     -10.176  -9.826  18.324  0.00  0.00    +0.000 A 
ATOM      4  C   UNL A   1      -9.055 -10.629  17.906  0.00  0.00    +0.003 A 
ATOM      5  C   UNL A   1      -7.996 -10.656  18.823  0.00  0.00    +0.042 A 
ATOM      6  C   UNL A   1      -8.016  -9.974  19.946  0.00  0.00    +0.196 A 
ATOM      7  O   UNL A   1      -6.929 -10.025  20.763  0.00  0.00    -0.287 OA
ENDROOT
TORSDOF 0
ENDMDL
ENDMDL
