MODEL 2285
MODEL 1
REMARK VINA RESULT:    -6.495      0.000      0.000
REMARK INTER + INTRA:          -7.078
REMARK INTER:                  -6.875
REMARK INTRA:                  -0.203
REMARK UNBOUND:                -0.203
REMARK  Name = No_2285-gen_results/8p0m/2024-11-27-11-27-31/
REMARK  1 active torsions:
REMARK  status: ('A' for Active; 'I' for Inactive)
REMARK    1  A    between atoms: C_9  and  C_11
REMARK                            x       y       z     vdW  Elec       q    Type
REMARK                         _______ _______ _______ _____ _____    ______ ____
ROOT
ATOM      1  C   UNL A   1     -26.560  -3.561  30.027  0.00  0.00    -0.000 A 
ATOM      2  C   UNL A   1     -26.434  -4.542  29.664  0.00  0.00    -0.000 A 
ATOM      3  C   UNL A   1     -25.456  -2.683  29.951  0.00  0.00    -0.000 A 
ATOM      4  C   UNL A   1     -25.497  -1.243  30.316  0.00  0.00    -0.000 A 
ATOM      5  C   UNL A   1     -25.265  -5.217  29.073  0.00  0.00    -0.000 A 
ATOM      6  C   UNL A   1     -24.133  -4.409  28.968  0.00  0.00    -0.000 A 
ATOM      7  C   UNL A   1     -24.207  -3.111  29.358  0.00  0.00    -0.000 A 
ATOM      8  C   UNL A   1     -24.919  -0.315  30.016  0.00  0.00    +0.004 A 
ATOM      9  C   UNL A   1     -23.674  -0.646  29.174  0.00  0.00    +0.071 A 
ATOM     10  C   UNL A   1     -23.354  -1.994  28.886  0.00  0.00    +0.004 A 
ENDROOT
BRANCH   9  11
ATOM     11  C   UNL A   1     -22.716   0.479  28.832  0.00  0.00    +0.419 C 
ATOM     12  F   UNL A   1     -22.576   0.773  27.626  0.00  0.00    -0.166 F 
ATOM     13  F   UNL A   1     -21.396  -0.066  29.118  0.00  0.00    -0.166 F 
ATOM     14  F   UNL A   1     -22.857   1.541  29.554  0.00  0.00    -0.166 F 
ENDBRANCH   9  11
TORSDOF 1
ENDMDL
ENDMDL
