MODEL 2286
MODEL 1
REMARK VINA RESULT:    -4.580      0.000      0.000
REMARK INTER + INTRA:          -4.580
REMARK INTER:                  -4.580
REMARK INTRA:                   0.000
REMARK UNBOUND:                 0.000
REMARK  Name = No_2286-gen_results/8p0m/2024-11-27-11-27-31/
REMARK  0 active torsions:
REMARK  status: ('A' for Active; 'I' for Inactive)
REMARK                            x       y       z     vdW  Elec       q    Type
REMARK                         _______ _______ _______ _____ _____    ______ ____
ROOT
ATOM      1  C   UNL A   1     -24.054  -4.490  28.691  0.00  0.00    +0.030 A 
ATOM      2  C   UNL A   1     -24.940  -5.260  28.981  0.00  0.00    +0.002 A 
ATOM      3  C   UNL A   1     -26.118  -4.811  29.567  0.00  0.00    +0.000 A 
ATOM      4  C   UNL A   1     -26.302  -3.419  29.890  0.00  0.00    +0.002 A 
ATOM      5  C   UNL A   1     -25.218  -2.602  29.542  0.00  0.00    +0.030 A 
ATOM      6  C   UNL A   1     -24.118  -3.079  29.005  0.00  0.00    +0.140 A 
ATOM      7  F   UNL A   1     -23.033  -2.374  28.748  0.00  0.00    -0.204 F 
ENDROOT
TORSDOF 0
ENDMDL
ENDMDL
