REMARK  Name = outputs/IAG933/test6/raw/output_2286_IAG933_linker_design_.xyz
REMARK  10 active torsions:
REMARK  status: ('A' for Active; 'I' for Inactive)
REMARK    1  A    between atoms: C_1  and  C_2
REMARK    2  A    between atoms: C_1  and  C_8
REMARK    3  A    between atoms: C_1  and  C_36
REMARK    4  A    between atoms: C_13  and  C_41
REMARK    5  A    between atoms: C_14  and  C_15
REMARK    6  A    between atoms: C_21  and  O_22
REMARK    7  A    between atoms: O_22  and  C_23
REMARK    8  A    between atoms: C_23  and  C_24
REMARK    9  A    between atoms: S_35  and  C_36
REMARK   10  A    between atoms: C_36  and  N_42
REMARK                            x       y       z     vdW  Elec       q    Type
REMARK                         _______ _______ _______ _____ _____    ______ ____
ROOT
ATOM      1  C   UNL A   1     -25.173   0.142  29.233  0.00  0.00    +0.133 C 
ENDROOT
BRANCH   1   7
ATOM      2  C   UNL A   1     -29.214  -0.037  27.811  0.00  0.00    +0.184 C 
ATOM      3  C   UNL A   1     -30.390   2.097  27.983  0.00  0.00    +0.000 C 
ATOM      4  C   UNL A   1     -28.741   1.401  29.550  0.00  0.00    +0.042 C 
ATOM      5  C   UNL A   1     -29.252   2.247  30.562  0.00  0.00    +0.025 C 
ATOM      6  N   UNL A   1     -31.014   3.664  31.241  0.00  0.00    -0.128 NA
ATOM      7  S   UNL A   1     -27.041   0.605  29.417  0.00  0.00    -0.023 S 
ATOM      8  O   UNL A   1     -28.216  -0.716  28.984  0.00  0.00    -0.301 OA
ATOM      9  C   UNL A   1     -30.854   3.059  28.940  0.00  0.00    +0.018 C 
ATOM     10  C   UNL A   1     -30.371   3.003  30.262  0.00  0.00    +0.090 C 
ATOM     11  C   UNL A   1     -29.411   1.160  28.390  0.00  0.00    +0.016 C 
ENDBRANCH   1   7
BRANCH   1  16
ATOM     12  C   UNL A   1     -22.014   1.272  27.818  0.00  0.00    +0.216 C 
ATOM     13  C   UNL A   1     -22.657   0.284  28.694  0.00  0.00    +0.151 C 
ATOM     14  O   UNL A   1     -20.855   1.637  27.911  0.00  0.00    -0.283 OA
ATOM     15  C   UNL A   1     -24.381   1.472  27.104  0.00  0.00    +0.139 C 
ATOM     16  N   UNL A   1     -24.187   0.684  28.397  0.00  0.00    -0.245 NA
ATOM     17  S   UNL A   1     -22.952   2.006  26.527  0.00  0.00    -0.056 S 
BRANCH  15  18
ATOM     18  C   UNL A   1     -25.688   1.614  26.461  0.00  0.00    +0.041 C 
ATOM     19  C   UNL A   1     -26.250   2.920  26.395  0.00  0.00    +0.075 C 
ATOM     20  C   UNL A   1     -27.438   3.091  25.645  0.00  0.00    +0.106 C 
ATOM     21  N   UNL A   1     -28.075   2.089  25.003  0.00  0.00    -0.208 NA
ATOM     22  C   UNL A   1     -27.543   0.849  25.079  0.00  0.00    +0.253 C 
ATOM     23  C   UNL A   1     -26.354   0.576  25.777  0.00  0.00    +0.191 C 
ATOM     24  F   UNL A   1     -25.860  -0.681  25.795  0.00  0.00    -0.200 F 
BRANCH  19  25
ATOM     25  C   UNL A   1     -25.642   4.093  27.123  0.00  0.00    +0.266 C 
ATOM     26  N   UNL A   1     -25.614   5.252  26.449  0.00  0.00    -0.200 NA
ATOM     27  C   UNL A   1     -25.026   6.479  26.963  0.00  0.00    +0.139 C 
ATOM     28  O   UNL A   1     -25.143   3.966  28.243  0.00  0.00    -0.268 OA
ENDBRANCH  19  25
BRANCH  22  29
ATOM     29  O   UNL A   1     -28.193  -0.208  24.477  0.00  0.00    -0.456 OA
BRANCH  29  30
ATOM     30  C   UNL A   1     -29.460   0.005  23.866  0.00  0.00    +0.243 C 
BRANCH  30  31
ATOM     31  C   UNL A   1     -30.065  -1.377  23.573  0.00  0.00    +0.229 C 
ATOM     32  O   UNL A   1     -30.729  -1.878  24.721  0.00  0.00    -0.216 OA
ENDBRANCH  30  31
ENDBRANCH  29  30
ENDBRANCH  22  29
ENDBRANCH  15  18
ENDBRANCH   1  16
BRANCH   1  33
ATOM     33  C   UNL A   1     -24.855  -1.012  30.143  0.00  0.00    +0.065 C 
BRANCH  33  34
ATOM     34  C   UNL A   1     -24.973  -2.505  29.788  0.00  0.00    -0.019 C 
ATOM     35  C   UNL A   1     -23.906  -3.173  29.146  0.00  0.00    -0.004 C 
ATOM     36  C   UNL A   1     -23.989  -4.549  28.853  0.00  0.00    -0.000 C 
ATOM     37  C   UNL A   1     -25.137  -5.280  29.205  0.00  0.00    -0.000 C 
ATOM     38  C   UNL A   1     -26.232  -4.611  29.784  0.00  0.00    -0.000 C 
ATOM     39  C   UNL A   1     -26.155  -3.232  30.065  0.00  0.00    -0.004 C 
ENDBRANCH  33  34
BRANCH  33  40
ATOM     40  C   UNL A   1     -25.387  -0.679  31.571  0.00  0.00    +0.079 C 
ATOM     41  C   UNL A   1     -25.189   0.773  32.028  0.00  0.00    +0.019 C 
ATOM     42  C   UNL A   1     -25.336   0.684  33.544  0.00  0.00    +0.020 C 
ATOM     43  C   UNL A   1     -24.829  -0.715  33.905  0.00  0.00    +0.089 C 
ATOM     44  N   UNL A   1     -24.758  -1.481  32.646  0.00  0.00    -0.219 NA
ENDBRANCH  33  40
ENDBRANCH   1  33
TORSDOF 10
