REMARK  Name = No_2287-gen_results/8p0m/2024-11-27-11-27-31/
REMARK  0 active torsions:
REMARK  status: ('A' for Active; 'I' for Inactive)
REMARK                            x       y       z     vdW  Elec       q    Type
REMARK                         _______ _______ _______ _____ _____    ______ ____
ROOT
ATOM      1  C   UNL A   1     -28.016  -0.814  28.878  0.00  0.00    -0.000 A 
ATOM      2  C   UNL A   1     -27.064  -0.119  28.608  0.00  0.00    -0.000 A 
ATOM      3  C   UNL A   1     -27.001   0.691  27.491  0.00  0.00    -0.000 A 
ATOM      4  C   UNL A   1     -25.777   1.021  26.913  0.00  0.00    -0.000 A 
ATOM      5  C   UNL A   1     -24.509   0.736  27.569  0.00  0.00    -0.004 A 
ATOM      6  C   UNL A   1     -23.278   1.167  27.102  0.00  0.00    -0.022 A 
ATOM      7  C   UNL A   1     -28.039  -1.592  30.138  0.00  0.00    +0.000 A 
ATOM      8  C   UNL A   1     -26.812  -1.776  30.801  0.00  0.00    -0.000 A 
ATOM      9  C   UNL A   1     -25.654  -1.154  30.415  0.00  0.00    -0.000 A 
ATOM     10  C   UNL A   1     -25.725  -0.320  29.290  0.00  0.00    -0.000 A 
ATOM     11  C   UNL A   1     -24.514   0.156  28.747  0.00  0.00    -0.000 A 
ATOM     12  C   UNL A   1     -23.096   2.210  26.102  0.00  0.00    +0.031 C 
ATOM     13  C   UNL A   1     -22.051   0.938  27.851  0.00  0.00    -0.004 A 
ATOM     14  C   UNL A   1     -21.969   0.100  28.890  0.00  0.00    -0.000 A 
ATOM     15  C   UNL A   1     -23.322  -0.268  29.463  0.00  0.00    -0.000 A 
ENDROOT
TORSDOF 0
