MODEL 2287
MODEL 1
REMARK VINA RESULT:    -6.721      0.000      0.000
REMARK INTER + INTRA:          -6.721
REMARK INTER:                  -6.721
REMARK INTRA:                   0.000
REMARK UNBOUND:                 0.000
REMARK  Name = No_2287-gen_results/8p0m/2024-11-27-11-27-31/
REMARK  0 active torsions:
REMARK  status: ('A' for Active; 'I' for Inactive)
REMARK                            x       y       z     vdW  Elec       q    Type
REMARK                         _______ _______ _______ _____ _____    ______ ____
ROOT
ATOM      1  C   UNL A   1     -24.359   0.869  30.295  0.00  0.00    -0.000 A 
ATOM      2  C   UNL A   1     -24.972  -0.127  29.986  0.00  0.00    -0.000 A 
ATOM      3  C   UNL A   1     -26.251  -0.406  30.427  0.00  0.00    -0.000 A 
ATOM      4  C   UNL A   1     -26.701  -1.720  30.535  0.00  0.00    -0.000 A 
ATOM      5  C   UNL A   1     -25.956  -2.841  29.981  0.00  0.00    -0.004 A 
ATOM      6  C   UNL A   1     -26.428  -4.143  29.941  0.00  0.00    -0.022 A 
ATOM      7  C   UNL A   1     -23.023   1.134  29.714  0.00  0.00    +0.000 A 
ATOM      8  C   UNL A   1     -22.363   0.053  29.103  0.00  0.00    -0.000 A 
ATOM      9  C   UNL A   1     -22.955  -1.166  28.900  0.00  0.00    -0.000 A 
ATOM     10  C   UNL A   1     -24.274  -1.315  29.353  0.00  0.00    -0.000 A 
ATOM     11  C   UNL A   1     -24.827  -2.612  29.352  0.00  0.00    -0.000 A 
ATOM     12  C   UNL A   1     -27.820  -4.521  30.138  0.00  0.00    +0.031 C 
ATOM     13  C   UNL A   1     -25.683  -5.209  29.286  0.00  0.00    -0.004 A 
ATOM     14  C   UNL A   1     -24.407  -5.086  28.903  0.00  0.00    -0.000 A 
ATOM     15  C   UNL A   1     -23.943  -3.646  28.839  0.00  0.00    -0.000 A 
ENDROOT
TORSDOF 0
ENDMDL
ENDMDL
