MODEL 2288
MODEL 1
REMARK VINA RESULT:    -5.508      0.000      0.000
REMARK INTER + INTRA:          -7.188
REMARK INTER:                  -6.796
REMARK INTRA:                  -0.393
REMARK UNBOUND:                -0.393
REMARK  Name = No_2288-gen_results/8p0m/2024-11-27-11-27-31/
REMARK  4 active torsions:
REMARK  status: ('A' for Active; 'I' for Inactive)
REMARK    1  A    between atoms: C_1  and  C_2
REMARK    2  A    between atoms: C_1  and  C_3
REMARK    3  A    between atoms: C_2  and  C_5
REMARK    4  A    between atoms: C_10  and  C_11
REMARK                            x       y       z     vdW  Elec       q    Type
REMARK                         _______ _______ _______ _____ _____    ______ ____
ROOT
ATOM      1  C   UNL A   1     -25.183  -1.161  28.900  0.00  0.00    +0.031 C 
ENDROOT
BRANCH   1   2
ATOM      2  C   UNL A   1     -24.907  -2.546  29.280  0.00  0.00    -0.022 A 
ATOM      3  C   UNL A   1     -23.890  -3.264  28.754  0.00  0.00    -0.004 A 
ATOM      4  C   UNL A   1     -23.999  -4.578  28.557  0.00  0.00    -0.000 A 
ATOM      5  C   UNL A   1     -25.048  -5.386  29.115  0.00  0.00    -0.000 A 
ATOM      6  C   UNL A   1     -26.125  -4.669  29.635  0.00  0.00    -0.000 A 
ATOM      7  C   UNL A   1     -26.061  -3.274  29.599  0.00  0.00    -0.004 A 
ENDBRANCH   1   2
BRANCH   1   8
ATOM      8  C   UNL A   1     -24.660  -0.848  28.040  0.00  0.00    +0.031 C 
BRANCH   8   9
ATOM      9  C   UNL A   1     -24.007   0.443  27.999  0.00  0.00    -0.024 C 
ATOM     10  C   UNL A   1     -22.776   0.667  28.112  0.00  0.00    +0.018 C 
BRANCH  10  11
ATOM     11  C   UNL A   1     -22.114   0.196  28.707  0.00  0.00    +0.122 C 
ATOM     12  N   UNL A   1     -20.739  -0.111  28.438  0.00  0.00    -0.146 NA
ENDBRANCH  10  11
ENDBRANCH   8   9
ENDBRANCH   1   8
TORSDOF 4
ENDMDL
ENDMDL
