REMARK  Name = outputs/IAG933/test6/raw/output_2288_IAG933_linker_design_.xyz
REMARK  17 active torsions:
REMARK  status: ('A' for Active; 'I' for Inactive)
REMARK    1  A    between atoms: C_1  and  C_2
REMARK    2  A    between atoms: C_1  and  C_8
REMARK    3  A    between atoms: C_9  and  N_29
REMARK    4  A    between atoms: C_13  and  N_31
REMARK    5  A    between atoms: C_14  and  C_15
REMARK    6  A    between atoms: C_21  and  O_22
REMARK    7  A    between atoms: O_22  and  C_23
REMARK    8  A    between atoms: C_23  and  C_24
REMARK    9  A    between atoms: C_28  and  C_35
REMARK   10  A    between atoms: C_28  and  C_37
REMARK   11  A    between atoms: N_29  and  C_40
REMARK   12  A    between atoms: C_30  and  N_31
REMARK   13  A    between atoms: C_30  and  C_34
REMARK   14  A    between atoms: C_30  and  C_39
REMARK   15  A    between atoms: C_32  and  S_36
REMARK   16  A    between atoms: C_34  and  S_36
REMARK   17  A    between atoms: C_37  and  C_40
REMARK                            x       y       z     vdW  Elec       q    Type
REMARK                         _______ _______ _______ _____ _____    ______ ____
ROOT
ATOM      1  C   UNL A   1     -22.478   1.492  28.240  0.00  0.00    +0.080 C 
ENDROOT
BRANCH   1   2
ATOM      2  C   UNL A   1     -23.427   1.084  27.111  0.00  0.00    +0.084 C 
BRANCH   2   4
ATOM      3  C   UNL A   1     -22.015   2.350  25.428  0.00  0.00    +0.002 C 
ATOM      4  C   UNL A   1     -23.209   1.467  25.636  0.00  0.00    +0.018 C 
ENDBRANCH   2   4
BRANCH   2   5
ATOM      5  N   UNL A   1     -24.801   1.246  27.422  0.00  0.00    -0.212 NA
BRANCH   5   6
ATOM      6  C   UNL A   1     -25.688   1.614  26.461  0.00  0.00    +0.142 C 
ATOM      7  C   UNL A   1     -26.250   2.920  26.395  0.00  0.00    +0.071 C 
ATOM      8  C   UNL A   1     -27.438   3.091  25.645  0.00  0.00    +0.103 C 
ATOM      9  N   UNL A   1     -28.075   2.089  25.003  0.00  0.00    -0.212 NA
ATOM     10  C   UNL A   1     -27.543   0.849  25.079  0.00  0.00    +0.236 C 
ATOM     11  C   UNL A   1     -26.354   0.576  25.777  0.00  0.00    +0.256 C 
ATOM     12  F   UNL A   1     -25.860  -0.681  25.795  0.00  0.00    -0.225 F 
BRANCH   7  13
ATOM     13  C   UNL A   1     -25.642   4.093  27.123  0.00  0.00    +0.264 C 
ATOM     14  N   UNL A   1     -25.614   5.252  26.449  0.00  0.00    -0.200 NA
ATOM     15  C   UNL A   1     -25.026   6.479  26.963  0.00  0.00    +0.139 C 
ATOM     16  O   UNL A   1     -25.143   3.966  28.243  0.00  0.00    -0.269 OA
ENDBRANCH   7  13
BRANCH  10  17
ATOM     17  O   UNL A   1     -28.193  -0.208  24.477  0.00  0.00    -0.459 OA
BRANCH  17  18
ATOM     18  C   UNL A   1     -29.460   0.005  23.866  0.00  0.00    +0.242 C 
BRANCH  18  19
ATOM     19  C   UNL A   1     -30.065  -1.377  23.573  0.00  0.00    +0.229 C 
ATOM     20  O   UNL A   1     -30.729  -1.878  24.721  0.00  0.00    -0.216 OA
ENDBRANCH  18  19
ENDBRANCH  17  18
ENDBRANCH  10  17
ENDBRANCH   5   6
ENDBRANCH   2   5
ENDBRANCH   1   2
BRANCH   1  21
ATOM     21  S   UNL A   1     -22.939   0.803  29.746  0.00  0.00    -0.111 S 
BRANCH  21  22
ATOM     22  C   UNL A   1     -23.762   2.300  30.314  0.00  0.00    +0.043 C 
ATOM     23  C   UNL A   1     -24.920   2.962  31.057  0.00  0.00    +0.049 C 
BRANCH  23  24
ATOM     24  N   UNL A   1     -25.764   2.018  31.530  0.00  0.00    -0.242 NA
BRANCH  24  26
ATOM     25  C   UNL A   1     -25.387  -0.679  31.571  0.00  0.00    +0.097 C 
ATOM     26  C   UNL A   1     -25.189   0.773  32.028  0.00  0.00    +0.110 C 
ATOM     27  C   UNL A   1     -25.336   0.684  33.544  0.00  0.00    +0.042 C 
ATOM     28  C   UNL A   1     -24.829  -0.715  33.905  0.00  0.00    +0.090 C 
ATOM     29  N   UNL A   1     -24.758  -1.481  32.646  0.00  0.00    -0.217 NA
BRANCH  25  30
ATOM     30  C   UNL A   1     -24.855  -1.012  30.143  0.00  0.00    +0.045 C 
BRANCH  30  31
ATOM     31  C   UNL A   1     -24.973  -2.505  29.788  0.00  0.00    -0.021 C 
ATOM     32  C   UNL A   1     -23.906  -3.173  29.146  0.00  0.00    -0.004 C 
ATOM     33  C   UNL A   1     -23.989  -4.549  28.853  0.00  0.00    -0.000 C 
ATOM     34  C   UNL A   1     -25.137  -5.280  29.205  0.00  0.00    -0.000 C 
ATOM     35  C   UNL A   1     -26.232  -4.611  29.784  0.00  0.00    -0.000 C 
ATOM     36  C   UNL A   1     -26.155  -3.232  30.065  0.00  0.00    -0.004 C 
ENDBRANCH  30  31
ENDBRANCH  25  30
ENDBRANCH  24  26
ENDBRANCH  23  24
BRANCH  23  37
ATOM     37  C   UNL A   1     -25.181   4.312  31.100  0.00  0.00    +0.046 C 
BRANCH  37  38
ATOM     38  C   UNL A   1     -25.635   5.070  32.246  0.00  0.00    +0.042 C 
BRANCH  38  40
ATOM     39  O   UNL A   1     -23.300   5.240  33.027  0.00  0.00    -0.220 OA
ATOM     40  C   UNL A   1     -24.670   5.331  33.435  0.00  0.00    +0.182 C 
ENDBRANCH  38  40
ENDBRANCH  37  38
ENDBRANCH  23  37
ENDBRANCH  21  22
ENDBRANCH   1  21
TORSDOF 17
