MODEL 2289
MODEL 1
REMARK VINA RESULT:    -7.231      0.000      0.000
REMARK INTER + INTRA:          -8.951
REMARK INTER:                  -8.076
REMARK INTRA:                  -0.875
REMARK UNBOUND:                -0.875
REMARK  Name = No_2289-gen_results/8p0m/2024-11-27-11-27-31/
REMARK  2 active torsions:
REMARK  status: ('A' for Active; 'I' for Inactive)
REMARK    1  A    between atoms: C_6  and  C_8
REMARK    2  A    between atoms: C_8  and  C_9
REMARK                            x       y       z     vdW  Elec       q    Type
REMARK                         _______ _______ _______ _____ _____    ______ ____
ROOT
ATOM      1  C   UNL A   1     -24.404  -1.371  29.951  0.00  0.00    +0.038 C 
ATOM      2  C   UNL A   1     -23.284  -1.142  30.904  0.00  0.00    +0.009 C 
ATOM      3  C   UNL A   1     -25.729  -0.681  30.586  0.00  0.00    +0.009 C 
ENDROOT
BRANCH   1   9
ATOM      4  C   UNL A   1     -22.595   1.104  27.751  0.00  0.00    +0.006 A 
ATOM      5  C   UNL A   1     -23.391   1.264  26.855  0.00  0.00    +0.035 A 
ATOM      6  C   UNL A   1     -24.580   0.614  26.772  0.00  0.00    +0.006 A 
ATOM      7  C   UNL A   1     -24.913  -0.302  27.787  0.00  0.00    -0.004 A 
ATOM      8  C   UNL A   1     -22.913   0.255  28.871  0.00  0.00    -0.004 A 
ATOM      9  C   UNL A   1     -24.082  -0.442  28.822  0.00  0.00    -0.019 A 
ATOM     10 BR   UNL A   1     -23.058   2.501  25.430  0.00  0.00    -0.049 Br
ENDBRANCH   1   9
BRANCH   1  11
ATOM     11  C   UNL A   1     -24.676  -2.564  29.628  0.00  0.00    -0.019 A 
ATOM     12  C   UNL A   1     -23.823  -3.387  28.951  0.00  0.00    -0.004 A 
ATOM     13  C   UNL A   1     -24.138  -4.812  28.649  0.00  0.00    -0.000 A 
ATOM     14  C   UNL A   1     -25.290  -5.273  29.009  0.00  0.00    -0.000 A 
ATOM     15  C   UNL A   1     -26.166  -4.493  29.696  0.00  0.00    -0.000 A 
ATOM     16  C   UNL A   1     -25.878  -3.222  29.998  0.00  0.00    -0.004 A 
ENDBRANCH   1  11
TORSDOF 2
ENDMDL
ENDMDL
