REMARK  Name = No_2289-gen_results/8p0m/2024-11-27-11-27-31/
REMARK  2 active torsions:
REMARK  status: ('A' for Active; 'I' for Inactive)
REMARK    1  A    between atoms: C_6  and  C_8
REMARK    2  A    between atoms: C_8  and  C_9
REMARK                            x       y       z     vdW  Elec       q    Type
REMARK                         _______ _______ _______ _____ _____    ______ ____
ROOT
ATOM      1  C   UNL A   1     -30.083   1.512  31.012  0.00  0.00    +0.038 C 
ATOM      2  C   UNL A   1     -30.632   2.628  30.194  0.00  0.00    +0.009 C 
ATOM      3  C   UNL A   1     -31.165   0.304  30.972  0.00  0.00    +0.009 C 
ENDROOT
BRANCH   1   9
ATOM      4  C   UNL A   1     -28.016  -0.814  28.878  0.00  0.00    +0.006 A 
ATOM      5  C   UNL A   1     -27.064  -0.119  28.608  0.00  0.00    +0.035 A 
ATOM      6  C   UNL A   1     -26.929   1.171  29.008  0.00  0.00    +0.006 A 
ATOM      7  C   UNL A   1     -27.956   1.741  29.784  0.00  0.00    -0.004 A 
ATOM      8  C   UNL A   1     -29.057  -0.327  29.747  0.00  0.00    -0.004 A 
ATOM      9  C   UNL A   1     -28.983   0.972  30.152  0.00  0.00    -0.019 A 
ATOM     10 BR   UNL A   1     -25.595  -0.791  27.578  0.00  0.00    -0.049 Br
ENDBRANCH   1   9
BRANCH   1  11
ATOM     11  C   UNL A   1     -29.778   1.752  32.217  0.00  0.00    -0.019 A 
ATOM     12  C   UNL A   1     -28.497   1.831  32.681  0.00  0.00    -0.004 A 
ATOM     13  C   UNL A   1     -28.164   2.190  34.089  0.00  0.00    -0.000 A 
ATOM     14  C   UNL A   1     -29.137   2.393  34.914  0.00  0.00    -0.000 A 
ATOM     15  C   UNL A   1     -30.428   2.337  34.493  0.00  0.00    -0.000 A 
ATOM     16  C   UNL A   1     -30.734   2.046  33.224  0.00  0.00    -0.004 A 
ENDBRANCH   1  11
TORSDOF 2
