REMARK  Name = outputs/IAG933/test6/raw/output_229_IAG933_linker_design_.xyz
REMARK  16 active torsions:
REMARK  status: ('A' for Active; 'I' for Inactive)
REMARK    1  A    between atoms: C_1  and  C_2
REMARK    2  A    between atoms: C_1  and  C_8
REMARK    3  A    between atoms: C_9  and  C_39
REMARK    4  A    between atoms: C_13  and  N_43
REMARK    5  A    between atoms: C_14  and  C_15
REMARK    6  A    between atoms: C_21  and  O_22
REMARK    7  A    between atoms: O_22  and  C_23
REMARK    8  A    between atoms: C_23  and  C_24
REMARK    9  A    between atoms: C_29  and  C_35
REMARK   10  A    between atoms: C_29  and  C_36
REMARK   11  A    between atoms: C_31  and  C_34
REMARK   12  A    between atoms: C_31  and  O_40
REMARK   13  A    between atoms: C_35  and  C_41
REMARK   14  A    between atoms: C_36  and  N_43
REMARK   15  A    between atoms: C_39  and  O_40
REMARK   16  A    between atoms: C_39  and  C_41
REMARK                            x       y       z     vdW  Elec       q    Type
REMARK                         _______ _______ _______ _____ _____    ______ ____
ROOT
ATOM      1  C   UNL A   1     -25.080   1.826  29.916  0.00  0.00    +0.031 C 
ENDROOT
BRANCH   1   2
ATOM      2  C   UNL A   1     -23.606   2.312  29.649  0.00  0.00    +0.023 C 
BRANCH   2   3
ATOM      3  C   UNL A   1     -22.665   1.638  28.594  0.00  0.00    +0.112 C 
ATOM      4  N   UNL A   1     -22.138   0.333  29.312  0.00  0.00    -0.131 NA
BRANCH   3   6
ATOM      5  C   UNL A   1     -22.721   2.064  25.991  0.00  0.00    +0.025 C 
ATOM      6  C   UNL A   1     -23.333   1.378  27.205  0.00  0.00    +0.110 C 
BRANCH   6   7
ATOM      7  N   UNL A   1     -24.783   1.386  27.313  0.00  0.00    -0.235 NA
BRANCH   7   8
ATOM      8  C   UNL A   1     -25.688   1.614  26.461  0.00  0.00    +0.103 C 
ATOM      9  C   UNL A   1     -26.250   2.920  26.395  0.00  0.00    +0.091 C 
ATOM     10  C   UNL A   1     -27.438   3.091  25.645  0.00  0.00    +0.108 C 
ATOM     11  N   UNL A   1     -28.075   2.089  25.003  0.00  0.00    -0.208 NA
ATOM     12  C   UNL A   1     -27.543   0.849  25.079  0.00  0.00    +0.255 C 
ATOM     13  C   UNL A   1     -26.354   0.576  25.777  0.00  0.00    +0.208 C 
ATOM     14  F   UNL A   1     -25.860  -0.681  25.795  0.00  0.00    -0.198 F 
BRANCH   9  15
ATOM     15  C   UNL A   1     -25.642   4.093  27.123  0.00  0.00    +0.268 C 
ATOM     16  N   UNL A   1     -25.614   5.252  26.449  0.00  0.00    -0.200 NA
ATOM     17  C   UNL A   1     -25.026   6.479  26.963  0.00  0.00    +0.139 C 
ATOM     18  O   UNL A   1     -25.143   3.966  28.243  0.00  0.00    -0.268 OA
ENDBRANCH   9  15
BRANCH  12  19
ATOM     19  O   UNL A   1     -28.193  -0.208  24.477  0.00  0.00    -0.456 OA
BRANCH  19  20
ATOM     20  C   UNL A   1     -29.460   0.005  23.866  0.00  0.00    +0.243 C 
BRANCH  20  21
ATOM     21  C   UNL A   1     -30.065  -1.377  23.573  0.00  0.00    +0.229 C 
ATOM     22  O   UNL A   1     -30.729  -1.878  24.721  0.00  0.00    -0.216 OA
ENDBRANCH  20  21
ENDBRANCH  19  20
ENDBRANCH  12  19
ENDBRANCH   7   8
ENDBRANCH   6   7
ENDBRANCH   3   6
ENDBRANCH   2   3
ENDBRANCH   1   2
BRANCH   1  23
ATOM     23  C   UNL A   1     -25.633   2.075  31.342  0.00  0.00    +0.117 C 
BRANCH  23  25
ATOM     24  C   UNL A   1     -25.387  -0.679  31.571  0.00  0.00    +0.080 C 
ATOM     25  C   UNL A   1     -25.189   0.773  32.028  0.00  0.00    +0.045 C 
ATOM     26  C   UNL A   1     -25.336   0.684  33.544  0.00  0.00    +0.023 C 
ATOM     27  C   UNL A   1     -24.829  -0.715  33.905  0.00  0.00    +0.089 C 
ATOM     28  N   UNL A   1     -24.758  -1.481  32.646  0.00  0.00    -0.219 NA
BRANCH  24  29
ATOM     29  C   UNL A   1     -24.855  -1.012  30.143  0.00  0.00    +0.044 C 
BRANCH  29  30
ATOM     30  C   UNL A   1     -24.973  -2.505  29.788  0.00  0.00    -0.021 C 
ATOM     31  C   UNL A   1     -23.906  -3.173  29.146  0.00  0.00    -0.004 C 
ATOM     32  C   UNL A   1     -23.989  -4.549  28.853  0.00  0.00    -0.000 C 
ATOM     33  C   UNL A   1     -25.137  -5.280  29.205  0.00  0.00    -0.000 C 
ATOM     34  C   UNL A   1     -26.232  -4.611  29.784  0.00  0.00    -0.000 C 
ATOM     35  C   UNL A   1     -26.155  -3.232  30.065  0.00  0.00    -0.004 C 
ENDBRANCH  29  30
ENDBRANCH  24  29
ENDBRANCH  23  25
BRANCH  23  36
ATOM     36  O   UNL A   1     -25.232   3.342  31.923  0.00  0.00    -0.351 OA
BRANCH  36  37
ATOM     37  C   UNL A   1     -26.060   4.009  32.893  0.00  0.00    +0.169 C 
BRANCH  37  40
ATOM     38  C   UNL A   1     -25.385   5.995  31.495  0.00  0.00    -0.002 C 
ATOM     39  C   UNL A   1     -25.371   7.686  33.755  0.00  0.00    -0.000 C 
ATOM     40  C   UNL A   1     -25.796   5.502  32.747  0.00  0.00    +0.007 C 
ATOM     41  C   UNL A   1     -24.872   7.293  31.438  0.00  0.00    -0.000 C 
ATOM     42  C   UNL A   1     -25.854   6.374  33.873  0.00  0.00    -0.002 C 
ATOM     43  C   UNL A   1     -24.843   8.129  32.553  0.00  0.00    -0.000 C 
ENDBRANCH  37  40
ENDBRANCH  36  37
ENDBRANCH  23  36
ENDBRANCH   1  23
TORSDOF 16
