MODEL 2290
MODEL 1
REMARK VINA RESULT:    -4.190      0.000      0.000
REMARK INTER + INTRA:          -4.869
REMARK INTER:                  -4.680
REMARK INTRA:                  -0.189
REMARK UNBOUND:                -0.189
REMARK  Name = No_2290-gen_results/8p0m/2024-11-27-11-27-31/
REMARK  2 active torsions:
REMARK  status: ('A' for Active; 'I' for Inactive)
REMARK    1  A    between atoms: C_1  and  C_3
REMARK    2  A    between atoms: C_3  and  C_4
REMARK                            x       y       z     vdW  Elec       q    Type
REMARK                         _______ _______ _______ _____ _____    ______ ____
ROOT
ATOM      1  C   UNL A   1      -8.140  -9.728  20.077  0.00  0.00    +0.103 C 
ENDROOT
BRANCH   1   2
ATOM      2  C   UNL A   1      -9.463  -9.341  19.727  0.00  0.00    -0.017 C 
ATOM      3  C   UNL A   1      -9.998  -9.753  18.442  0.00  0.00    -0.029 C 
ATOM      4  C   UNL A   1      -9.271 -10.802  17.756  0.00  0.00    +0.030 C 
ENDBRANCH   1   2
BRANCH   1   5
ATOM      5  C   UNL A   1      -7.029  -8.872  20.053  0.00  0.00    -0.073 C 
ATOM      6  C   UNL A   1      -7.005  -7.923  19.595  0.00  0.00    -0.014 C 
ENDBRANCH   1   5
TORSDOF 2
ENDMDL
ENDMDL
