REMARK  Name = No_2291-gen_results/8p0m/2024-11-27-11-27-31/
REMARK  1 active torsions:
REMARK  status: ('A' for Active; 'I' for Inactive)
REMARK    1  A    between atoms: C_3  and  C_8
REMARK                            x       y       z     vdW  Elec       q    Type
REMARK                         _______ _______ _______ _____ _____    ______ ____
ROOT
ATOM      1  C   UNL A   1     -28.016  -0.814  28.878  0.00  0.00    +0.042 A 
ATOM      2  C   UNL A   1     -27.064  -0.119  28.608  0.00  0.00    +0.003 A 
ATOM      3  C   UNL A   1     -25.765  -0.390  29.036  0.00  0.00    +0.000 A 
ATOM      4  C   UNL A   1     -25.530  -1.530  29.901  0.00  0.00    +0.003 A 
ATOM      5  C   UNL A   1     -26.689  -2.289  30.181  0.00  0.00    +0.042 A 
ATOM      6  C   UNL A   1     -27.873  -1.951  29.737  0.00  0.00    +0.196 A 
ATOM      7  O   UNL A   1     -28.930  -2.730  30.115  0.00  0.00    -0.287 OA
ENDROOT
BRANCH   3   8
ATOM      8  C   UNL A   1     -24.539   0.421  28.742  0.00  0.00    +0.000 A 
ATOM      9  C   UNL A   1     -24.091   1.393  29.598  0.00  0.00    +0.000 A 
ATOM     10  C   UNL A   1     -22.965   2.202  29.235  0.00  0.00    +0.000 A 
ATOM     11  C   UNL A   1     -22.273   1.976  28.001  0.00  0.00    +0.000 A 
ATOM     12  C   UNL A   1     -22.786   1.040  27.163  0.00  0.00    +0.000 A 
ATOM     13  C   UNL A   1     -23.873   0.277  27.499  0.00  0.00    +0.000 A 
ENDBRANCH   3   8
TORSDOF 1
