REMARK  Name = outputs/IAG933/test6/raw/output_2292_IAG933_linker_design_.xyz
REMARK  11 active torsions:
REMARK  status: ('A' for Active; 'I' for Inactive)
REMARK    1  A    between atoms: C_1  and  C_2
REMARK    2  A    between atoms: C_1  and  C_8
REMARK    3  A    between atoms: C_1  and  C_52
REMARK    4  A    between atoms: C_13  and  C_47
REMARK    5  A    between atoms: C_14  and  C_15
REMARK    6  A    between atoms: C_21  and  O_22
REMARK    7  A    between atoms: O_22  and  C_23
REMARK    8  A    between atoms: C_23  and  C_24
REMARK    9  A    between atoms: C_34  and  C_43
REMARK   10  A    between atoms: C_41  and  C_46
REMARK   11  A    between atoms: C_46  and  C_51
REMARK                            x       y       z     vdW  Elec       q    Type
REMARK                         _______ _______ _______ _____ _____    ______ ____
ROOT
ATOM      1  C   UNL A   1     -25.363   1.067  28.736  0.00  0.00    +0.017 C 
ATOM      2  C   UNL A   1     -26.519   1.736  29.420  0.00  0.00    -0.117 C 
ATOM      3  C   UNL A   1     -21.151   1.424  27.833  0.00  0.00    +0.032 C 
ATOM      4  C   UNL A   1     -23.372   2.032  27.387  0.00  0.00    +0.035 C 
ATOM      5  O   UNL A   1     -23.191   0.435  29.273  0.00  0.00    -0.354 OA
ATOM      6  C   UNL A   1     -27.827   2.631  30.120  0.00  0.00    -0.011 C 
ATOM      7  C   UNL A   1     -24.927   1.514  27.553  0.00  0.00    +0.038 C 
ATOM      8  C   UNL A   1     -24.477   0.193  29.378  0.00  0.00    +0.146 C 
ATOM      9  C   UNL A   1     -22.576   0.888  28.040  0.00  0.00    +0.116 C 
ENDROOT
BRANCH   6  18
ATOM     10  O   UNL A   1     -28.858   7.071  30.762  0.00  0.00    -0.358 OA
ATOM     11  C   UNL A   1     -27.761   7.770  31.292  0.00  0.00    +0.142 C 
ATOM     12  C   UNL A   1     -29.323   4.606  30.616  0.00  0.00    +0.032 C 
ATOM     13  C   UNL A   1     -26.886   6.781  32.145  0.00  0.00    +0.034 C 
ATOM     14  C   UNL A   1     -27.799   5.483  32.134  0.00  0.00    +0.028 C 
ATOM     15  C   UNL A   1     -27.278   5.660  29.477  0.00  0.00    +0.030 C 
ATOM     16  C   UNL A   1     -27.430   4.138  32.098  0.00  0.00    +0.007 C 
ATOM     17  C   UNL A   1     -28.337   5.704  30.692  0.00  0.00    +0.093 C 
ATOM     18  C   UNL A   1     -28.279   3.510  31.155  0.00  0.00    +0.028 C 
ENDBRANCH   6  18
BRANCH   7  19
ATOM     19  C   UNL A   1     -25.688   1.614  26.461  0.00  0.00    +0.075 C 
ATOM     20  C   UNL A   1     -26.250   2.920  26.395  0.00  0.00    +0.055 C 
ATOM     21  C   UNL A   1     -27.438   3.091  25.645  0.00  0.00    +0.102 C 
ATOM     22  N   UNL A   1     -28.075   2.089  25.003  0.00  0.00    -0.212 NA
ATOM     23  C   UNL A   1     -27.543   0.849  25.079  0.00  0.00    +0.234 C 
ATOM     24  C   UNL A   1     -26.354   0.576  25.777  0.00  0.00    +0.240 C 
ATOM     25  F   UNL A   1     -25.860  -0.681  25.795  0.00  0.00    -0.227 F 
BRANCH  20  26
ATOM     26  C   UNL A   1     -25.642   4.093  27.123  0.00  0.00    +0.262 C 
ATOM     27  N   UNL A   1     -25.614   5.252  26.449  0.00  0.00    -0.200 NA
ATOM     28  C   UNL A   1     -25.026   6.479  26.963  0.00  0.00    +0.139 C 
ATOM     29  O   UNL A   1     -25.143   3.966  28.243  0.00  0.00    -0.269 OA
ENDBRANCH  20  26
BRANCH  23  30
ATOM     30  O   UNL A   1     -28.193  -0.208  24.477  0.00  0.00    -0.459 OA
BRANCH  30  31
ATOM     31  C   UNL A   1     -29.460   0.005  23.866  0.00  0.00    +0.242 C 
BRANCH  31  32
ATOM     32  C   UNL A   1     -30.065  -1.377  23.573  0.00  0.00    +0.229 C 
ATOM     33  O   UNL A   1     -30.729  -1.878  24.721  0.00  0.00    -0.216 OA
ENDBRANCH  31  32
ENDBRANCH  30  31
ENDBRANCH  23  30
ENDBRANCH   7  19
BRANCH   6  37
ATOM     34  C   UNL A   1     -30.399   1.458  27.967  0.00  0.00    +0.153 C 
ATOM     35  C   UNL A   1     -30.048   2.611  28.859  0.00  0.00    +0.095 C 
ATOM     36  C   UNL A   1     -29.659   0.154  28.291  0.00  0.00    +0.065 C 
ATOM     37  C   UNL A   1     -28.951   1.974  29.586  0.00  0.00    +0.035 C 
ATOM     38  C   UNL A   1     -28.954   0.533  29.588  0.00  0.00    +0.013 C 
ATOM     39  O   UNL A   1     -31.064   1.502  26.928  0.00  0.00    -0.296 OA
BRANCH  35  41
ATOM     40  O   UNL A   1     -31.003   4.220  27.261  0.00  0.00    -0.220 OA
ATOM     41  C   UNL A   1     -29.790   3.894  27.955  0.00  0.00    +0.190 C 
ENDBRANCH  35  41
ENDBRANCH   6  37
BRANCH   8  42
ATOM     42  C   UNL A   1     -24.855  -1.012  30.143  0.00  0.00    +0.070 C 
BRANCH  42  43
ATOM     43  C   UNL A   1     -24.973  -2.505  29.788  0.00  0.00    -0.018 C 
ATOM     44  C   UNL A   1     -23.906  -3.173  29.146  0.00  0.00    -0.004 C 
ATOM     45  C   UNL A   1     -23.989  -4.549  28.853  0.00  0.00    -0.000 C 
ATOM     46  C   UNL A   1     -25.137  -5.280  29.205  0.00  0.00    -0.000 C 
ATOM     47  C   UNL A   1     -26.232  -4.611  29.784  0.00  0.00    -0.000 C 
ATOM     48  C   UNL A   1     -26.155  -3.232  30.065  0.00  0.00    -0.004 C 
ENDBRANCH  42  43
BRANCH  42  49
ATOM     49  C   UNL A   1     -25.387  -0.679  31.571  0.00  0.00    +0.080 C 
ATOM     50  C   UNL A   1     -25.189   0.773  32.028  0.00  0.00    +0.019 C 
ATOM     51  C   UNL A   1     -25.336   0.684  33.544  0.00  0.00    +0.020 C 
ATOM     52  C   UNL A   1     -24.829  -0.715  33.905  0.00  0.00    +0.089 C 
ATOM     53  N   UNL A   1     -24.758  -1.481  32.646  0.00  0.00    -0.219 NA
ENDBRANCH  42  49
ENDBRANCH   8  42
TORSDOF 11
