MODEL 2293
MODEL 1
REMARK VINA RESULT:    -5.199      0.000      0.000
REMARK INTER + INTRA:          -5.709
REMARK INTER:                  -5.503
REMARK INTRA:                  -0.206
REMARK UNBOUND:                -0.206
REMARK  Name = No_2293-gen_results/8p0m/2024-11-27-11-27-31/
REMARK  1 active torsions:
REMARK  status: ('A' for Active; 'I' for Inactive)
REMARK    1  A    between atoms: C_3  and  C_7
REMARK                            x       y       z     vdW  Elec       q    Type
REMARK                         _______ _______ _______ _____ _____    ______ ____
ROOT
ATOM      1  C   UNL A   1     -23.875  -3.976  28.631  0.00  0.00    +0.004 A 
ATOM      2  C   UNL A   1     -24.442  -4.850  28.789  0.00  0.00    -0.000 A 
ATOM      3  C   UNL A   1     -24.429  -2.746  29.049  0.00  0.00    +0.071 A 
ATOM      4  C   UNL A   1     -25.676  -2.669  29.637  0.00  0.00    +0.004 A 
ATOM      5  C   UNL A   1     -26.350  -3.867  29.814  0.00  0.00    -0.000 A 
ATOM      6  C   UNL A   1     -25.754  -5.047  29.422  0.00  0.00    -0.000 A 
ENDROOT
BRANCH   3   7
ATOM      7  C   UNL A   1     -23.721  -1.432  28.906  0.00  0.00    +0.419 C 
ATOM      8  F   UNL A   1     -24.072  -0.674  29.832  0.00  0.00    -0.166 F 
ATOM      9  F   UNL A   1     -24.137  -0.831  27.768  0.00  0.00    -0.166 F 
ATOM     10  F   UNL A   1     -22.393  -1.549  28.901  0.00  0.00    -0.166 F 
ENDBRANCH   3   7
TORSDOF 1
ENDMDL
ENDMDL
