REMARK  Name = outputs/IAG933/test6/raw/output_2294_IAG933_linker_design_.xyz
REMARK  9 active torsions:
REMARK  status: ('A' for Active; 'I' for Inactive)
REMARK    1  A    between atoms: C_1  and  C_2
REMARK    2  A    between atoms: C_1  and  C_8
REMARK    3  A    between atoms: C_1  and  C_31
REMARK    4  A    between atoms: C_13  and  N_38
REMARK    5  A    between atoms: C_14  and  C_15
REMARK    6  A    between atoms: C_21  and  O_22
REMARK    7  A    between atoms: O_22  and  C_23
REMARK    8  A    between atoms: C_23  and  C_24
REMARK    9  A    between atoms: C_31  and  C_41
REMARK                            x       y       z     vdW  Elec       q    Type
REMARK                         _______ _______ _______ _____ _____    ______ ____
ROOT
ATOM      1  O   UNL A   1     -23.344   2.095  25.150  0.00  0.00    -0.199 OA
ATOM      2  C   UNL A   1     -23.489   1.581  26.478  0.00  0.00    +0.236 C 
ATOM      3  C   UNL A   1     -21.664  -0.327  29.397  0.00  0.00    +0.174 C 
ATOM      4  F   UNL A   1     -20.063   2.124  27.137  0.00  0.00    -0.201 F 
ATOM      5  O   UNL A   1     -22.648   0.418  30.326  0.00  0.00    -0.280 OA
ATOM      6  C   UNL A   1     -20.580   0.301  28.566  0.00  0.00    +0.141 C 
ATOM      7  O   UNL A   1     -22.098   2.491  24.916  0.00  0.00    -0.185 OA
ATOM      8  N   UNL A   1     -19.791  -0.365  27.895  0.00  0.00    -0.129 NA
ATOM      9  C   UNL A   1     -21.316   2.131  26.508  0.00  0.00    +0.315 C 
ATOM     10  N   UNL A   1     -24.608   1.345  27.140  0.00  0.00    -0.266 N 
ATOM     11  N   UNL A   1     -23.179   0.989  28.887  0.00  0.00    -0.144 NA
ATOM     12  C   UNL A   1     -22.169   0.370  28.012  0.00  0.00    +0.128 C 
ATOM     13  C   UNL A   1     -24.504   1.135  28.578  0.00  0.00    +0.191 C 
ATOM     14  C   UNL A   1     -22.278   1.446  27.060  0.00  0.00    +0.134 C 
ENDROOT
BRANCH  10  15
ATOM     15  C   UNL A   1     -25.688   1.614  26.461  0.00  0.00    +0.089 C 
ATOM     16  C   UNL A   1     -26.250   2.920  26.395  0.00  0.00    +0.090 C 
ATOM     17  C   UNL A   1     -27.438   3.091  25.645  0.00  0.00    +0.108 C 
ATOM     18  N   UNL A   1     -28.075   2.089  25.003  0.00  0.00    -0.208 NA
ATOM     19  C   UNL A   1     -27.543   0.849  25.079  0.00  0.00    +0.255 C 
ATOM     20  C   UNL A   1     -26.354   0.576  25.777  0.00  0.00    +0.206 C 
ATOM     21  F   UNL A   1     -25.860  -0.681  25.795  0.00  0.00    -0.198 F 
BRANCH  16  22
ATOM     22  C   UNL A   1     -25.642   4.093  27.123  0.00  0.00    +0.268 C 
ATOM     23  N   UNL A   1     -25.614   5.252  26.449  0.00  0.00    -0.200 NA
ATOM     24  C   UNL A   1     -25.026   6.479  26.963  0.00  0.00    +0.139 C 
ATOM     25  O   UNL A   1     -25.143   3.966  28.243  0.00  0.00    -0.268 OA
ENDBRANCH  16  22
BRANCH  19  26
ATOM     26  O   UNL A   1     -28.193  -0.208  24.477  0.00  0.00    -0.456 OA
BRANCH  26  27
ATOM     27  C   UNL A   1     -29.460   0.005  23.866  0.00  0.00    +0.243 C 
BRANCH  27  28
ATOM     28  C   UNL A   1     -30.065  -1.377  23.573  0.00  0.00    +0.229 C 
ATOM     29  O   UNL A   1     -30.729  -1.878  24.721  0.00  0.00    -0.216 OA
ENDBRANCH  27  28
ENDBRANCH  26  27
ENDBRANCH  19  26
ENDBRANCH  10  15
BRANCH  13  30
ATOM     30  C   UNL A   1     -25.309  -0.156  28.918  0.00  0.00    +0.193 C 
ATOM     31  O   UNL A   1     -25.079  -1.008  27.847  0.00  0.00    -0.219 OA
BRANCH  30  32
ATOM     32  C   UNL A   1     -24.855  -1.012  30.143  0.00  0.00    +0.072 C 
BRANCH  32  33
ATOM     33  C   UNL A   1     -24.973  -2.505  29.788  0.00  0.00    -0.019 C 
ATOM     34  C   UNL A   1     -23.906  -3.173  29.146  0.00  0.00    -0.004 C 
ATOM     35  C   UNL A   1     -23.989  -4.549  28.853  0.00  0.00    -0.000 C 
ATOM     36  C   UNL A   1     -25.137  -5.280  29.205  0.00  0.00    -0.000 C 
ATOM     37  C   UNL A   1     -26.232  -4.611  29.784  0.00  0.00    -0.000 C 
ATOM     38  C   UNL A   1     -26.155  -3.232  30.065  0.00  0.00    -0.004 C 
ENDBRANCH  32  33
BRANCH  32  39
ATOM     39  C   UNL A   1     -25.387  -0.679  31.571  0.00  0.00    +0.079 C 
ATOM     40  C   UNL A   1     -25.189   0.773  32.028  0.00  0.00    +0.019 C 
ATOM     41  C   UNL A   1     -25.336   0.684  33.544  0.00  0.00    +0.020 C 
ATOM     42  C   UNL A   1     -24.829  -0.715  33.905  0.00  0.00    +0.089 C 
ATOM     43  N   UNL A   1     -24.758  -1.481  32.646  0.00  0.00    -0.219 NA
ENDBRANCH  32  39
ENDBRANCH  30  32
ENDBRANCH  13  30
TORSDOF 9
