MODEL 2294
MODEL 1
REMARK VINA RESULT:    -8.396      0.000      0.000
REMARK INTER + INTRA:         -13.001
REMARK INTER:                 -10.360
REMARK INTRA:                  -2.641
REMARK UNBOUND:                -2.641
REMARK  Name = No_2294-gen_results/8p0m/2024-11-27-11-27-31/
REMARK  4 active torsions:
REMARK  status: ('A' for Active; 'I' for Inactive)
REMARK    1  A    between atoms: C_3  and  C_11
REMARK    2  A    between atoms: C_5  and  C_7
REMARK    3  A    between atoms: C_12  and  C_17
REMARK    4  A    between atoms: C_22  and  C_30
REMARK                            x       y       z     vdW  Elec       q    Type
REMARK                         _______ _______ _______ _____ _____    ______ ____
ROOT
ATOM      1  C   UNL A   1      -8.962   0.367  36.933  0.00  0.00    -0.001 A 
ATOM      2  C   UNL A   1      -9.652  -0.744  36.677  0.00  0.00    -0.005 A 
ATOM      3  C   UNL A   1      -8.743   0.798  38.280  0.00  0.00    -0.005 A 
ATOM      4  C   UNL A   1      -9.779   0.607  39.248  0.00  0.00    -0.026 A 
ATOM      5  C   UNL A   1     -10.502  -0.608  39.083  0.00  0.00    -0.027 A 
ATOM      6  C   UNL A   1     -11.532  -1.030  40.022  0.00  0.00    +0.037 C 
ATOM      7  C   UNL A   1     -10.544  -1.261  37.785  0.00  0.00    -0.026 A 
ATOM      8  C   UNL A   1     -12.321  -1.774  39.772  0.00  0.00    +0.008 C 
ATOM      9  C   UNL A   1     -12.300  -2.704  38.607  0.00  0.00    +0.005 C 
ATOM     10  C   UNL A   1     -11.428  -2.358  37.540  0.00  0.00    +0.026 C 
ATOM     11  C   UNL A   1     -10.677   1.808  39.408  0.00  0.00    +0.026 C 
ATOM     12  C   UNL A   1     -11.629   1.688  40.454  0.00  0.00    +0.005 C 
ATOM     13  C   UNL A   1     -12.422   0.379  40.443  0.00  0.00    +0.008 C 
ENDROOT
BRANCH   1  15
ATOM     14  C   UNL A   1      -9.164   2.135  35.097  0.00  0.00    +0.000 A 
ATOM     15  C   UNL A   1      -8.444   1.165  35.894  0.00  0.00    -0.000 A 
ATOM     16  C   UNL A   1      -7.058   1.075  35.562  0.00  0.00    -0.000 A 
ATOM     17  C   UNL A   1      -6.496   1.853  34.519  0.00  0.00    -0.000 A 
ATOM     18  C   UNL A   1      -8.438   2.757  34.067  0.00  0.00    +0.000 A 
ATOM     19  C   UNL A   1      -7.227   2.673  33.808  0.00  0.00    +0.000 A 
BRANCH  14  22
ATOM     20  C   UNL A   1     -12.722   1.557  34.379  0.00  0.00    +0.000 A 
ATOM     21  C   UNL A   1     -11.516   1.473  34.377  0.00  0.00    +0.000 A 
ATOM     22  C   UNL A   1     -10.669   2.115  35.264  0.00  0.00    +0.000 A 
ATOM     23  C   UNL A   1     -11.277   2.914  36.277  0.00  0.00    +0.005 A 
ATOM     24  C   UNL A   1     -12.617   2.864  36.357  0.00  0.00    +0.055 A 
ATOM     25  C   UNL A   1     -13.333   2.194  35.501  0.00  0.00    +0.005 A 
BRANCH  24  26
ATOM     26  C   UNL A   1     -13.369   3.535  37.425  0.00  0.00    +0.265 C 
ATOM     27  N   UNL A   1     -14.116   2.969  38.194  0.00  0.00    -0.200 NA
ATOM     28  O   UNL A   1     -13.381   4.879  37.440  0.00  0.00    -0.268 OA
ATOM     29  C   UNL A   1     -15.023   3.666  39.153  0.00  0.00    +0.139 C 
ENDBRANCH  24  26
ENDBRANCH  14  22
ENDBRANCH   1  15
BRANCH   6  30
ATOM     30  C   UNL A   1     -10.645  -1.279  41.283  0.00  0.00    -0.019 A 
ATOM     31  C   UNL A   1     -11.065  -1.327  42.478  0.00  0.00    -0.004 A 
ATOM     32  C   UNL A   1     -10.288  -1.644  43.564  0.00  0.00    -0.000 A 
ATOM     33  C   UNL A   1      -8.976  -1.883  43.356  0.00  0.00    -0.000 A 
ATOM     34  C   UNL A   1      -8.435  -1.879  42.100  0.00  0.00    -0.000 A 
ATOM     35  C   UNL A   1      -9.230  -1.592  41.038  0.00  0.00    -0.004 A 
ENDBRANCH   6  30
TORSDOF 4
ENDMDL
ENDMDL
