MODEL 2295
MODEL 1
REMARK VINA RESULT:    -8.468      0.000      0.000
REMARK INTER + INTRA:         -13.324
REMARK INTER:                 -11.438
REMARK INTRA:                  -1.886
REMARK UNBOUND:                -1.886
REMARK  Name = No_2295-gen_results/8p0m/2024-11-27-11-27-31/
REMARK  6 active torsions:
REMARK  status: ('A' for Active; 'I' for Inactive)
REMARK    1  A    between atoms: C_4  and  C_11
REMARK    2  A    between atoms: C_11  and  C_12
REMARK    3  A    between atoms: C_11  and  C_15
REMARK    4  A    between atoms: C_15  and  C_18
REMARK    5  A    between atoms: C_19  and  C_20
REMARK    6  A    between atoms: C_20  and  C_21
REMARK                            x       y       z     vdW  Elec       q    Type
REMARK                         _______ _______ _______ _____ _____    ______ ____
ROOT
ATOM      1  C   UNL A   1     -23.531   2.291  26.327  0.00  0.00    +0.122 C 
ENDROOT
BRANCH   1   5
ATOM      2  C   UNL A   1     -26.293  -0.499  24.646  0.00  0.00    +0.011 A 
ATOM      3  C   UNL A   1     -25.488   0.275  25.110  0.00  0.00    +0.001 A 
ATOM      4  C   UNL A   1     -25.877   1.532  25.560  0.00  0.00    -0.004 A 
ATOM      5  C   UNL A   1     -24.983   2.575  26.139  0.00  0.00    -0.014 A 
ATOM      6  C   UNL A   1     -25.401   3.879  26.582  0.00  0.00    -0.004 A 
ATOM      7  C   UNL A   1     -27.670  -0.057  24.374  0.00  0.00    +0.058 A 
ATOM      8  C   UNL A   1     -28.150   1.138  24.851  0.00  0.00    +0.011 A 
ATOM      9  C   UNL A   1     -27.254   2.044  25.444  0.00  0.00    +0.001 A 
ATOM     10  C   UNL A   1     -26.822   4.061  26.532  0.00  0.00    -0.000 A 
ATOM     11  C   UNL A   1     -27.678   3.260  25.961  0.00  0.00    +0.000 A 
ATOM     12 CL   UNL A   1     -28.745  -1.210  23.663  0.00  0.00    -0.082 Cl
ENDBRANCH   1   5
BRANCH   1  13
ATOM     13  C   UNL A   1     -22.798   2.355  25.265  0.00  0.00    +0.401 C 
ATOM     14  F   UNL A   1     -22.575   3.446  24.707  0.00  0.00    -0.170 F 
ATOM     15  F   UNL A   1     -22.861   1.377  24.366  0.00  0.00    -0.170 F 
ATOM     16  F   UNL A   1     -21.500   2.090  25.910  0.00  0.00    -0.170 F 
ENDBRANCH   1  13
BRANCH   1  17
ATOM     17  C   UNL A   1     -23.192   1.853  27.626  0.00  0.00    +0.039 C 
BRANCH  17  18
ATOM     18  C   UNL A   1     -23.914   0.995  28.412  0.00  0.00    -0.030 C 
ATOM     19  C   UNL A   1     -23.637  -0.381  28.183  0.00  0.00    -0.026 C 
BRANCH  19  20
ATOM     20  C   UNL A   1     -24.698  -1.283  28.268  0.00  0.00    +0.052 C 
BRANCH  20  21
ATOM     21  C   UNL A   1     -24.598  -2.465  29.034  0.00  0.00    -0.018 A 
ATOM     22  C   UNL A   1     -25.752  -2.898  29.745  0.00  0.00    -0.004 A 
ATOM     23  C   UNL A   1     -26.344  -4.088  29.679  0.00  0.00    -0.000 A 
ATOM     24  C   UNL A   1     -25.573  -5.224  29.489  0.00  0.00    -0.000 A 
ATOM     25  C   UNL A   1     -24.298  -4.921  28.770  0.00  0.00    -0.000 A 
ATOM     26  C   UNL A   1     -23.990  -3.681  28.381  0.00  0.00    -0.004 A 
ENDBRANCH  20  21
ENDBRANCH  19  20
ENDBRANCH  17  18
ENDBRANCH   1  17
TORSDOF 6
ENDMDL
ENDMDL
