MODEL 2296
MODEL 1
REMARK VINA RESULT:    -7.000      0.000      0.000
REMARK INTER + INTRA:          -9.266
REMARK INTER:                  -8.228
REMARK INTRA:                  -1.038
REMARK UNBOUND:                -1.038
REMARK  Name = No_2296-gen_results/8p0m/2024-11-27-11-27-31/
REMARK  3 active torsions:
REMARK  status: ('A' for Active; 'I' for Inactive)
REMARK    1  A    between atoms: C_3  and  C_4
REMARK    2  A    between atoms: C_4  and  C_8
REMARK    3  A    between atoms: C_7  and  C_14
REMARK                            x       y       z     vdW  Elec       q    Type
REMARK                         _______ _______ _______ _____ _____    ______ ____
ROOT
ATOM      1  C   UNL A   1     -25.761  -0.317  26.674  0.00  0.00    -0.004 A 
ATOM      2  C   UNL A   1     -25.226   0.184  25.917  0.00  0.00    -0.000 A 
ATOM      3  C   UNL A   1     -25.116  -0.399  27.994  0.00  0.00    -0.018 A 
ATOM      4  C   UNL A   1     -24.006   1.024  25.967  0.00  0.00    -0.000 A 
ATOM      5  C   UNL A   1     -23.339   1.005  27.187  0.00  0.00    -0.001 A 
ATOM      6  C   UNL A   1     -23.866   0.321  28.262  0.00  0.00    -0.008 A 
ENDROOT
BRANCH   6   7
ATOM      7  C   UNL A   1     -23.215   0.377  29.517  0.00  0.00    -0.022 C 
ATOM      8  C   UNL A   1     -23.482   1.170  30.541  0.00  0.00    -0.005 C 
ATOM      9  C   UNL A   1     -21.954  -0.352  29.608  0.00  0.00    +0.031 C 
ENDBRANCH   6   7
BRANCH   3  10
ATOM     10  C   UNL A   1     -25.571  -1.154  29.151  0.00  0.00    +0.053 C 
BRANCH  10  11
ATOM     11  C   UNL A   1     -25.258  -2.593  29.144  0.00  0.00    -0.018 A 
ATOM     12  C   UNL A   1     -26.213  -3.361  29.727  0.00  0.00    -0.004 A 
ATOM     13  C   UNL A   1     -26.076  -4.783  29.648  0.00  0.00    -0.000 A 
ATOM     14  C   UNL A   1     -24.149  -3.138  28.562  0.00  0.00    -0.004 A 
ATOM     15  C   UNL A   1     -23.966  -4.478  28.462  0.00  0.00    -0.000 A 
ATOM     16  C   UNL A   1     -24.980  -5.359  29.044  0.00  0.00    -0.000 A 
ENDBRANCH  10  11
ENDBRANCH   3  10
TORSDOF 3
ENDMDL
ENDMDL
