REMARK  Name = No_2299-gen_results/8p0m/2024-11-27-11-27-31/
REMARK  2 active torsions:
REMARK  status: ('A' for Active; 'I' for Inactive)
REMARK    1  A    between atoms: C_3  and  C_7
REMARK    2  A    between atoms: C_8  and  C_11
REMARK                            x       y       z     vdW  Elec       q    Type
REMARK                         _______ _______ _______ _____ _____    ______ ____
ROOT
ATOM      1  C   UNL A   1     -26.399   0.295  27.228  0.00  0.00    -0.000 A 
ATOM      2  C   UNL A   1     -25.039   0.236  27.354  0.00  0.00    -0.001 A 
ATOM      3  C   UNL A   1     -27.029   0.396  26.009  0.00  0.00    -0.000 A 
ATOM      4  C   UNL A   1     -26.273   0.305  24.864  0.00  0.00    -0.000 A 
ATOM      5  C   UNL A   1     -24.841   0.267  24.962  0.00  0.00    -0.000 A 
ATOM      6  C   UNL A   1     -24.274   0.322  26.157  0.00  0.00    -0.000 A 
ENDROOT
BRANCH   1   9
ATOM      7  C   UNL A   1     -28.016  -0.814  28.878  0.00  0.00    -0.000 A 
ATOM      8  C   UNL A   1     -28.469  -0.785  29.829  0.00  0.00    -0.000 A 
ATOM      9  C   UNL A   1     -27.136   0.236  28.535  0.00  0.00    -0.000 A 
ATOM     10  C   UNL A   1     -26.875   1.282  29.398  0.00  0.00    -0.000 A 
ATOM     11  C   UNL A   1     -28.361   0.199  30.924  0.00  0.00    +0.000 A 
ATOM     12  C   UNL A   1     -27.528   1.223  30.636  0.00  0.00    -0.000 A 
ENDBRANCH   1   9
BRANCH   2  13
ATOM     13  C   UNL A   1     -24.336   0.099  28.651  0.00  0.00    +0.012 C 
ATOM     14  C   UNL A   1     -23.957  -1.091  29.154  0.00  0.00    -0.002 C 
ATOM     15  C   UNL A   1     -23.336  -1.197  30.304  0.00  0.00    -0.002 C 
ATOM     16  C   UNL A   1     -23.361  -0.157  31.134  0.00  0.00    +0.011 C 
ATOM     17  C   UNL A   1     -24.261   1.048  29.838  0.00  0.00    +0.196 C 
ATOM     18  O   UNL A   1     -23.294   2.061  29.781  0.00  0.00    -0.213 OA
ENDBRANCH   2  13
TORSDOF 2
