MODEL 229
MODEL 1
REMARK VINA RESULT:    -7.416      0.000      0.000
REMARK INTER + INTRA:          -8.678
REMARK INTER:                  -8.283
REMARK INTRA:                  -0.394
REMARK UNBOUND:                -0.394
REMARK  Name = No_229-gen_results/8p0m/2024-11-27-11-27-31/
REMARK  2 active torsions:
REMARK  status: ('A' for Active; 'I' for Inactive)
REMARK    1  A    between atoms: C_2  and  C_7
REMARK    2  A    between atoms: C_6  and  C_14
REMARK                            x       y       z     vdW  Elec       q    Type
REMARK                         _______ _______ _______ _____ _____    ______ ____
ROOT
ATOM      1  C   UNL A   1     -23.986  -2.122  28.724  0.00  0.00    -0.000 A 
ATOM      2  C   UNL A   1     -24.288  -0.972  28.944  0.00  0.00    +0.002 A 
ATOM      3  C   UNL A   1     -25.351  -0.658  29.784  0.00  0.00    +0.030 A 
ATOM      4  C   UNL A   1     -26.155  -1.693  30.381  0.00  0.00    +0.140 A 
ATOM      5  C   UNL A   1     -25.751  -2.993  30.054  0.00  0.00    +0.029 A 
ATOM      6  C   UNL A   1     -24.748  -3.238  29.241  0.00  0.00    +0.028 A 
ATOM      7  F   UNL A   1     -27.093  -1.394  31.163  0.00  0.00    -0.204 F 
ENDROOT
BRANCH   2   8
ATOM      8  C   UNL A   1     -23.523   0.060  28.246  0.00  0.00    -0.004 A 
ATOM      9  C   UNL A   1     -22.568   0.466  28.361  0.00  0.00    -0.000 A 
ATOM     10  C   UNL A   1     -24.369   0.466  26.975  0.00  0.00    -0.022 A 
ATOM     11  C   UNL A   1     -25.519  -0.103  26.526  0.00  0.00    +0.031 C 
ATOM     12  C   UNL A   1     -21.923   1.552  27.597  0.00  0.00    -0.000 A 
ATOM     13  C   UNL A   1     -22.576   2.033  26.447  0.00  0.00    -0.000 A 
ATOM     14  C   UNL A   1     -23.778   1.465  26.129  0.00  0.00    -0.004 A 
ENDBRANCH   2   8
BRANCH   6  15
ATOM     15  C   UNL A   1     -24.493  -4.667  28.900  0.00  0.00    +0.262 C 
ATOM     16 CL   UNL A   1     -25.083  -5.595  29.317  0.00  0.00    -0.072 Cl
ATOM     17  F   UNL A   1     -23.565  -4.707  27.973  0.00  0.00    -0.214 F 
ENDBRANCH   6  15
TORSDOF 2
ENDMDL
ENDMDL
