MODEL 22
MODEL 1
REMARK VINA RESULT:    -6.420      0.000      0.000
REMARK INTER + INTRA:          -7.709
REMARK INTER:                  -7.546
REMARK INTRA:                  -0.163
REMARK UNBOUND:                -0.163
REMARK  Name = No_22-gen_results/8p0m/2024-11-27-11-27-31/
REMARK  3 active torsions:
REMARK  status: ('A' for Active; 'I' for Inactive)
REMARK    1  A    between atoms: C_1  and  C_2
REMARK    2  A    between atoms: C_1  and  N_12
REMARK    3  A    between atoms: C_13  and  C_14
REMARK                            x       y       z     vdW  Elec       q    Type
REMARK                         _______ _______ _______ _____ _____    ______ ____
ROOT
ATOM      1  C   UNL A   1     -23.733  -0.294  29.683  0.00  0.00    +0.002 A 
ATOM      2  C   UNL A   1     -24.993  -0.162  30.232  0.00  0.00    -0.002 A 
ATOM      3  C   UNL A   1     -25.971  -1.225  30.371  0.00  0.00    -0.000 A 
ATOM      4  C   UNL A   1     -25.642  -2.517  29.905  0.00  0.00    -0.000 A 
ATOM      5  C   UNL A   1     -26.476  -3.657  29.995  0.00  0.00    -0.000 A 
ATOM      6  C   UNL A   1     -23.332  -1.598  29.082  0.00  0.00    -0.002 A 
ATOM      7  C   UNL A   1     -24.320  -2.736  29.256  0.00  0.00    -0.000 A 
ATOM      8  C   UNL A   1     -26.024  -4.855  29.390  0.00  0.00    -0.000 A 
ATOM      9  C   UNL A   1     -24.729  -4.964  28.970  0.00  0.00    -0.000 A 
ATOM     10  C   UNL A   1     -23.870  -3.944  28.790  0.00  0.00    -0.000 A 
ENDROOT
BRANCH   1  11
ATOM     11  C   UNL A   1     -22.922   0.602  29.645  0.00  0.00    +0.152 C 
BRANCH  11  12
ATOM     12  N   UNL A   1     -23.053   1.664  28.601  0.00  0.00    -0.265 NA
ATOM     13  C   UNL A   1     -23.020   1.354  27.261  0.00  0.00    +0.119 C 
BRANCH  13  14
ATOM     14  C   UNL A   1     -23.384   2.423  26.348  0.00  0.00    +0.280 C 
ATOM     15 CL   UNL A   1     -22.651   2.454  25.143  0.00  0.00    -0.070 Cl
ATOM     16  F   UNL A   1     -24.824   2.408  26.152  0.00  0.00    -0.213 F 
ENDBRANCH  13  14
ENDBRANCH  11  12
ENDBRANCH   1  11
TORSDOF 3
ENDMDL
ENDMDL
