REMARK  Name = No_230-gen_results/8p0m/2024-11-27-11-27-31/
REMARK  3 active torsions:
REMARK  status: ('A' for Active; 'I' for Inactive)
REMARK    1  A    between atoms: C_5  and  C_8
REMARK    2  A    between atoms: N_9  and  C_10
REMARK    3  A    between atoms: C_10  and  C_11
REMARK                            x       y       z     vdW  Elec       q    Type
REMARK                         _______ _______ _______ _____ _____    ______ ____
ROOT
ATOM      1  C   UNL A   1     -23.098   1.845  28.751  0.00  0.00    +0.265 C 
ATOM      2  N   UNL A   1     -22.895   2.479  27.564  0.00  0.00    -0.199 NA
ATOM      3  O   UNL A   1     -22.175   1.505  29.556  0.00  0.00    -0.268 OA
ENDROOT
BRANCH   1   8
ATOM      4 CL   UNL A   1     -28.149  -0.820  28.908  0.00  0.00    -0.082 Cl
ATOM      5  C   UNL A   1     -26.912  -0.080  28.945  0.00  0.00    +0.058 A 
ATOM      6  C   UNL A   1     -26.738   1.044  29.253  0.00  0.00    +0.011 A 
ATOM      7  C   UNL A   1     -25.439   1.712  29.276  0.00  0.00    +0.005 A 
ATOM      8  C   UNL A   1     -24.281   0.989  28.854  0.00  0.00    +0.055 A 
ATOM      9  C   UNL A   1     -24.487  -0.304  28.496  0.00  0.00    +0.005 A 
ATOM     10  C   UNL A   1     -25.705  -0.867  28.524  0.00  0.00    +0.011 A 
ENDBRANCH   1   8
BRANCH   2  11
ATOM     11  C   UNL A   1     -23.924   2.967  26.906  0.00  0.00    +0.118 C 
ATOM     12  C   UNL A   1     -24.101   2.587  25.539  0.00  0.00    +0.028 C 
BRANCH  11  13
ATOM     13  C   UNL A   1     -24.683   3.900  27.421  0.00  0.00    -0.003 A 
ATOM     14  C   UNL A   1     -25.684   4.603  26.697  0.00  0.00    -0.003 A 
ATOM     15  C   UNL A   1     -26.462   5.537  27.356  0.00  0.00    -0.000 A 
ATOM     16  C   UNL A   1     -26.234   5.848  28.678  0.00  0.00    -0.000 A 
ATOM     17  C   UNL A   1     -25.301   5.178  29.438  0.00  0.00    -0.000 A 
ATOM     18  C   UNL A   1     -24.585   4.279  28.878  0.00  0.00    -0.003 A 
ENDBRANCH  11  13
ENDBRANCH   2  11
TORSDOF 3
