REMARK  Name = outputs/IAG933/test6/raw/output_2300_IAG933_linker_design_.xyz
REMARK  7 active torsions:
REMARK  status: ('A' for Active; 'I' for Inactive)
REMARK    1  A    between atoms: C_1  and  C_2
REMARK    2  A    between atoms: C_1  and  C_8
REMARK    3  A    between atoms: C_1  and  N_47
REMARK    4  A    between atoms: C_21  and  O_22
REMARK    5  A    between atoms: O_22  and  C_23
REMARK    6  A    between atoms: C_23  and  C_24
REMARK    7  A    between atoms: C_29  and  C_41
REMARK                            x       y       z     vdW  Elec       q    Type
REMARK                         _______ _______ _______ _____ _____    ______ ____
ROOT
ATOM      1  C   UNL A   1     -25.688   1.614  26.461  0.00  0.00    +0.073 C 
ATOM      2  C   UNL A   1     -26.250   2.920  26.395  0.00  0.00    +0.053 C 
ATOM      3  C   UNL A   1     -25.642   4.093  27.123  0.00  0.00    +0.218 C 
ATOM      4  N   UNL A   1     -25.614   5.252  26.449  0.00  0.00    -0.236 NA
ATOM      5  C   UNL A   1     -25.026   6.479  26.963  0.00  0.00    +0.155 C 
ATOM      6  O   UNL A   1     -25.143   3.966  28.243  0.00  0.00    -0.459 OA
ATOM      7  C   UNL A   1     -27.438   3.091  25.645  0.00  0.00    +0.102 C 
ATOM      8  N   UNL A   1     -28.075   2.089  25.003  0.00  0.00    -0.212 NA
ATOM      9  C   UNL A   1     -27.543   0.849  25.079  0.00  0.00    +0.234 C 
ATOM     10  C   UNL A   1     -26.354   0.576  25.777  0.00  0.00    +0.240 C 
ATOM     11  F   UNL A   1     -25.860  -0.681  25.795  0.00  0.00    -0.227 F 
ATOM     12  C   UNL A   1     -23.485   1.971  27.087  0.00  0.00    +0.123 C 
ATOM     13  C   UNL A   1     -22.573   1.241  27.934  0.00  0.00    +0.251 C 
ATOM     14  C   UNL A   1     -22.945   0.456  29.096  0.00  0.00    +0.260 C 
ATOM     15  C   UNL A   1     -25.209   3.074  29.203  0.00  0.00    +0.224 C 
ATOM     16  C   UNL A   1     -24.624   1.348  27.515  0.00  0.00    +0.048 C 
ATOM     17 CL   UNL A   1     -22.759   2.664  25.511  0.00  0.00    -0.112 Cl
ATOM     18  F   UNL A   1     -21.258   1.534  27.804  0.00  0.00    -0.226 F 
ATOM     19  O   UNL A   1     -22.254  -0.363  29.702  0.00  0.00    -0.272 OA
ATOM     20  N   UNL A   1     -24.372   0.321  29.421  0.00  0.00    -0.272 N 
ATOM     21  C   UNL A   1     -25.130   1.526  28.726  0.00  0.00    +0.120 C 
ENDROOT
BRANCH  15  23
ATOM     22  F   UNL A   1     -26.118   3.306  31.383  0.00  0.00    -0.226 F 
ATOM     23  C   UNL A   1     -26.234   3.883  30.173  0.00  0.00    +0.245 C 
ATOM     24  O   UNL A   1     -25.015   5.851  30.467  0.00  0.00    -0.272 OA
ATOM     25  C   UNL A   1     -27.128   7.493  31.154  0.00  0.00    +0.122 C 
ATOM     26  F   UNL A   1     -29.490   6.476  29.799  0.00  0.00    -0.186 F 
ATOM     27  C   UNL A   1     -26.119   5.346  30.425  0.00  0.00    +0.265 C 
ATOM     28  C   UNL A   1     -27.480   3.553  29.585  0.00  0.00    +0.094 C 
ATOM     29  C   UNL A   1     -28.374   5.754  29.941  0.00  0.00    +0.211 C 
ATOM     30  C   UNL A   1     -28.482   4.463  29.397  0.00  0.00    +0.112 C 
ATOM     31  N   UNL A   1     -29.575   4.125  28.697  0.00  0.00    -0.129 NA
ATOM     32  N   UNL A   1     -27.243   6.183  30.504  0.00  0.00    -0.231 N 
ENDBRANCH  15  23
BRANCH  20  33
ATOM     33  C   UNL A   1     -24.855  -1.012  30.143  0.00  0.00    +0.114 C 
BRANCH  33  34
ATOM     34  C   UNL A   1     -24.973  -2.505  29.788  0.00  0.00    -0.003 C 
ATOM     35  C   UNL A   1     -23.906  -3.173  29.146  0.00  0.00    -0.003 C 
ATOM     36  C   UNL A   1     -23.989  -4.549  28.853  0.00  0.00    -0.000 C 
ATOM     37  C   UNL A   1     -25.137  -5.280  29.205  0.00  0.00    -0.000 C 
ATOM     38  C   UNL A   1     -26.232  -4.611  29.784  0.00  0.00    -0.000 C 
ATOM     39  C   UNL A   1     -26.155  -3.232  30.065  0.00  0.00    -0.003 C 
ENDBRANCH  33  34
BRANCH  33  40
ATOM     40  C   UNL A   1     -25.387  -0.679  31.571  0.00  0.00    +0.095 C 
ATOM     41  C   UNL A   1     -25.189   0.773  32.028  0.00  0.00    +0.021 C 
ATOM     42  C   UNL A   1     -25.336   0.684  33.544  0.00  0.00    +0.020 C 
ATOM     43  C   UNL A   1     -24.829  -0.715  33.905  0.00  0.00    +0.089 C 
ATOM     44  N   UNL A   1     -24.758  -1.481  32.646  0.00  0.00    -0.217 NA
ENDBRANCH  33  40
ENDBRANCH  20  33
BRANCH   9  45
ATOM     45  O   UNL A   1     -28.193  -0.208  24.477  0.00  0.00    -0.459 OA
BRANCH  45  46
ATOM     46  C   UNL A   1     -29.460   0.005  23.866  0.00  0.00    +0.242 C 
BRANCH  46  47
ATOM     47  C   UNL A   1     -30.065  -1.377  23.573  0.00  0.00    +0.229 C 
ATOM     48  O   UNL A   1     -30.729  -1.878  24.721  0.00  0.00    -0.216 OA
ENDBRANCH  46  47
ENDBRANCH  45  46
ENDBRANCH   9  45
TORSDOF 7
