MODEL 2300
MODEL 1
REMARK VINA RESULT:    -6.742      0.000      0.000
REMARK INTER + INTRA:          -8.246
REMARK INTER:                  -7.530
REMARK INTRA:                  -0.715
REMARK UNBOUND:                -0.715
REMARK  Name = No_2300-gen_results/8p0m/2024-11-27-11-27-31/
REMARK  2 active torsions:
REMARK  status: ('A' for Active; 'I' for Inactive)
REMARK    1  A    between atoms: C_3  and  C_7
REMARK    2  A    between atoms: C_7  and  C_9
REMARK                            x       y       z     vdW  Elec       q    Type
REMARK                         _______ _______ _______ _____ _____    ______ ____
ROOT
ATOM      1  C   UNL A   1     -24.416  -1.287  29.612  0.00  0.00    +0.045 C 
ATOM      2  C   UNL A   1     -23.378  -1.021  30.410  0.00  0.00    +0.009 C 
ENDROOT
BRANCH   1   5
ATOM      3  C   UNL A   1     -23.802  -3.584  28.714  0.00  0.00    -0.004 A 
ATOM      4  C   UNL A   1     -24.041  -4.596  28.542  0.00  0.00    -0.000 A 
ATOM      5  C   UNL A   1     -24.766  -2.781  29.363  0.00  0.00    -0.018 A 
ATOM      6  C   UNL A   1     -25.739  -3.199  29.810  0.00  0.00    -0.004 A 
ATOM      7  C   UNL A   1     -25.213  -5.352  28.984  0.00  0.00    -0.000 A 
ATOM      8  C   UNL A   1     -26.107  -4.583  29.651  0.00  0.00    -0.000 A 
ENDBRANCH   1   5
BRANCH   1   9
ATOM      9  C   UNL A   1     -24.270  -0.532  28.320  0.00  0.00    -0.018 A 
ATOM     10  C   UNL A   1     -23.325   0.463  28.155  0.00  0.00    -0.004 A 
ATOM     11  C   UNL A   1     -23.357   1.249  26.967  0.00  0.00    -0.000 A 
ATOM     12  C   UNL A   1     -24.317   1.004  25.957  0.00  0.00    -0.000 A 
ATOM     13  C   UNL A   1     -25.325   0.072  26.210  0.00  0.00    -0.000 A 
ATOM     14  C   UNL A   1     -25.332  -0.621  27.392  0.00  0.00    -0.004 A 
ENDBRANCH   1   9
TORSDOF 2
ENDMDL
ENDMDL
