REMARK  Name = outputs/IAG933/test6/raw/output_2301_IAG933_linker_design_.xyz
REMARK  12 active torsions:
REMARK  status: ('A' for Active; 'I' for Inactive)
REMARK    1  A    between atoms: C_1  and  C_2
REMARK    2  A    between atoms: C_1  and  C_8
REMARK    3  A    between atoms: C_13  and  C_33
REMARK    4  A    between atoms: C_14  and  C_15
REMARK    5  A    between atoms: C_21  and  O_22
REMARK    6  A    between atoms: O_22  and  C_23
REMARK    7  A    between atoms: C_23  and  C_24
REMARK    8  A    between atoms: C_29  and  C_43
REMARK    9  A    between atoms: N_32  and  C_35
REMARK   10  A    between atoms: C_33  and  N_39
REMARK   11  A    between atoms: C_35  and  N_39
REMARK   12  A    between atoms: N_42  and  C_43
REMARK                            x       y       z     vdW  Elec       q    Type
REMARK                         _______ _______ _______ _____ _____    ______ ____
ROOT
ATOM      1  C   UNL A   1     -24.855  -1.012  30.143  0.00  0.00    +0.035 C 
ATOM      2  C   UNL A   1     -25.025   0.706  28.606  0.00  0.00    +0.362 C 
ATOM      3  C   UNL A   1     -24.997  -0.173  29.261  0.00  0.00    -0.019 C 
ENDROOT
BRANCH   2   5
ATOM      4  N   UNL A   1     -28.357   1.838  30.013  0.00  0.00    -0.199 N 
ATOM      5  N   UNL A   1     -26.412   1.246  28.893  0.00  0.00    +0.053 NA
ATOM      6  C   UNL A   1     -27.601   0.668  29.402  0.00  0.00    +0.443 C 
ATOM      7  C   UNL A   1     -29.425   1.590  30.822  0.00  0.00    +0.089 C 
ATOM      8  C   UNL A   1     -30.026   2.768  31.056  0.00  0.00    +0.079 C 
ATOM      9  N   UNL A   1     -29.293   3.773  30.357  0.00  0.00    -0.288 N 
ATOM     10  O   UNL A   1     -27.896  -0.474  29.290  0.00  0.00    -0.219 OA
ATOM     11  C   UNL A   1     -28.282   3.072  29.827  0.00  0.00    +0.198 C 
BRANCH   9  12
ATOM     12  C   UNL A   1     -29.367   5.255  30.233  0.00  0.00    +0.092 C 
BRANCH  12  13
ATOM     13  C   UNL A   1     -29.788   5.928  31.545  0.00  0.00    +0.021 C 
ATOM     14  C   UNL A   1     -31.240   5.588  31.861  0.00  0.00    +0.002 C 
ENDBRANCH  12  13
ENDBRANCH   9  12
ENDBRANCH   2   5
BRANCH   1  15
ATOM     15  C   UNL A   1     -24.973  -2.505  29.788  0.00  0.00    +0.005 C 
ATOM     16  C   UNL A   1     -23.906  -3.173  29.146  0.00  0.00    +0.000 C 
ATOM     17  C   UNL A   1     -23.989  -4.549  28.853  0.00  0.00    +0.000 C 
ATOM     18  C   UNL A   1     -25.137  -5.280  29.205  0.00  0.00    +0.000 C 
ATOM     19  C   UNL A   1     -26.232  -4.611  29.784  0.00  0.00    +0.000 C 
ATOM     20  C   UNL A   1     -26.155  -3.232  30.065  0.00  0.00    +0.000 C 
ENDBRANCH   1  15
BRANCH   1  21
ATOM     21  C   UNL A   1     -25.387  -0.679  31.571  0.00  0.00    +0.102 C 
ATOM     22  C   UNL A   1     -25.189   0.773  32.028  0.00  0.00    +0.024 C 
ATOM     23  C   UNL A   1     -25.336   0.684  33.544  0.00  0.00    +0.021 C 
ATOM     24  C   UNL A   1     -24.829  -0.715  33.905  0.00  0.00    +0.089 C 
ATOM     25  N   UNL A   1     -24.758  -1.481  32.646  0.00  0.00    -0.214 NA
ENDBRANCH   1  21
BRANCH   2  29
ATOM     26  C   UNL A   1     -21.425   1.312  27.504  0.00  0.00    +0.125 C 
ATOM     27  C   UNL A   1     -22.619   0.701  28.186  0.00  0.00    +0.314 C 
ATOM     28  O   UNL A   1     -22.433   0.197  29.245  0.00  0.00    -0.247 OA
ATOM     29  N   UNL A   1     -23.925   1.098  27.742  0.00  0.00    -0.135 N 
BRANCH  29  30
ATOM     30  C   UNL A   1     -24.175   1.692  26.407  0.00  0.00    +0.218 C 
BRANCH  30  31
ATOM     31  C   UNL A   1     -25.688   1.614  26.461  0.00  0.00    +0.117 C 
ATOM     32  C   UNL A   1     -26.250   2.920  26.395  0.00  0.00    +0.059 C 
ATOM     33  C   UNL A   1     -27.438   3.091  25.645  0.00  0.00    +0.102 C 
ATOM     34  N   UNL A   1     -28.075   2.089  25.003  0.00  0.00    -0.212 NA
ATOM     35  C   UNL A   1     -27.543   0.849  25.079  0.00  0.00    +0.234 C 
ATOM     36  C   UNL A   1     -26.354   0.576  25.777  0.00  0.00    +0.244 C 
ATOM     37  F   UNL A   1     -25.860  -0.681  25.795  0.00  0.00    -0.227 F 
BRANCH  32  38
ATOM     38  C   UNL A   1     -25.642   4.093  27.123  0.00  0.00    +0.263 C 
ATOM     39  N   UNL A   1     -25.614   5.252  26.449  0.00  0.00    -0.200 NA
ATOM     40  C   UNL A   1     -25.026   6.479  26.963  0.00  0.00    +0.139 C 
ATOM     41  O   UNL A   1     -25.143   3.966  28.243  0.00  0.00    -0.269 OA
ENDBRANCH  32  38
BRANCH  35  42
ATOM     42  O   UNL A   1     -28.193  -0.208  24.477  0.00  0.00    -0.459 OA
BRANCH  42  43
ATOM     43  C   UNL A   1     -29.460   0.005  23.866  0.00  0.00    +0.242 C 
BRANCH  43  44
ATOM     44  C   UNL A   1     -30.065  -1.377  23.573  0.00  0.00    +0.229 C 
ATOM     45  O   UNL A   1     -30.729  -1.878  24.721  0.00  0.00    -0.216 OA
ENDBRANCH  43  44
ENDBRANCH  42  43
ENDBRANCH  35  42
ENDBRANCH  30  31
ENDBRANCH  29  30
ENDBRANCH   2  29
TORSDOF 12
