MODEL 2301
MODEL 1
REMARK VINA RESULT:    -6.748      0.000      0.000
REMARK INTER + INTRA:          -6.748
REMARK INTER:                  -6.748
REMARK INTRA:                   0.000
REMARK UNBOUND:                 0.000
REMARK  Name = No_2301-gen_results/8p0m/2024-11-27-11-27-31/
REMARK  0 active torsions:
REMARK  status: ('A' for Active; 'I' for Inactive)
REMARK                            x       y       z     vdW  Elec       q    Type
REMARK                         _______ _______ _______ _____ _____    ______ ____
ROOT
ATOM      1  O   UNL A   1     -27.096   1.200  28.668  0.00  0.00    -0.273 OA
ATOM      2  C   UNL A   1     -26.478   0.179  28.990  0.00  0.00    +0.246 C 
ATOM      3  N   UNL A   1     -26.779  -0.900  29.159  0.00  0.00    -0.179 NA
ATOM      4  C   UNL A   1     -25.902  -2.081  29.380  0.00  0.00    +0.070 A 
ATOM      5  C   UNL A   1     -24.848   0.293  28.883  0.00  0.00    +0.090 C 
ATOM      6  C   UNL A   1     -24.574  -1.892  29.318  0.00  0.00    +0.000 A 
ATOM      7  C   UNL A   1     -24.061  -0.698  29.054  0.00  0.00    +0.090 C 
ATOM      8  C   UNL A   1     -26.493  -3.410  29.685  0.00  0.00    +0.016 A 
ATOM      9  C   UNL A   1     -25.744  -4.583  29.435  0.00  0.00    +0.001 A 
ATOM     10  C   UNL A   1     -24.374  -4.422  29.129  0.00  0.00    -0.000 A 
ATOM     11  C   UNL A   1     -23.789  -3.189  29.188  0.00  0.00    -0.003 A 
ATOM     12  C   UNL A   1     -24.456   1.723  28.668  0.00  0.00    +0.010 C 
ATOM     13  C   UNL A   1     -23.297   1.817  27.874  0.00  0.00    +0.008 C 
ATOM     14  C   UNL A   1     -22.246   0.912  28.175  0.00  0.00    +0.065 C 
ATOM     15  C   UNL A   1     -22.640  -0.432  28.654  0.00  0.00    +0.155 C 
ATOM     16  O   UNL A   1     -21.773  -1.425  28.777  0.00  0.00    -0.296 OA
ATOM     17  C   UNL A   1     -23.602   1.921  26.356  0.00  0.00    +0.001 C 
ENDROOT
TORSDOF 0
ENDMDL
ENDMDL
