MODEL 2302
MODEL 1
REMARK VINA RESULT:    -4.358      0.000      0.000
REMARK INTER + INTRA:          -4.358
REMARK INTER:                  -4.358
REMARK INTRA:                   0.000
REMARK UNBOUND:                 0.000
REMARK  Name = No_2302-gen_results/8p0m/2024-11-27-11-27-31/
REMARK  0 active torsions:
REMARK  status: ('A' for Active; 'I' for Inactive)
REMARK                            x       y       z     vdW  Elec       q    Type
REMARK                         _______ _______ _______ _____ _____    ______ ____
ROOT
ATOM      1  C   UNL A   1     -24.937  -5.413  29.033  0.00  0.00    +0.000 A 
ATOM      2  C   UNL A   1     -24.202  -4.752  28.669  0.00  0.00    +0.000 A 
ATOM      3  C   UNL A   1     -26.108  -4.733  29.598  0.00  0.00    +0.000 A 
ATOM      4  C   UNL A   1     -26.145  -3.414  29.795  0.00  0.00    +0.000 A 
ATOM      5  C   UNL A   1     -24.013  -3.326  28.783  0.00  0.00    +0.000 A 
ATOM      6  C   UNL A   1     -25.101  -2.715  29.333  0.00  0.00    +0.000 A 
ENDROOT
TORSDOF 0
ENDMDL
ENDMDL
