REMARK  Name = outputs/IAG933/test6/raw/output_2302_IAG933_linker_design_.xyz
REMARK  12 active torsions:
REMARK  status: ('A' for Active; 'I' for Inactive)
REMARK    1  A    between atoms: C_1  and  C_2
REMARK    2  A    between atoms: C_1  and  C_8
REMARK    3  A    between atoms: C_1  and  N_29
REMARK    4  A    between atoms: C_13  and  C_28
REMARK    5  A    between atoms: C_14  and  C_15
REMARK    6  A    between atoms: C_21  and  O_22
REMARK    7  A    between atoms: O_22  and  C_23
REMARK    8  A    between atoms: C_23  and  C_24
REMARK    9  A    between atoms: N_29  and  C_43
REMARK   10  A    between atoms: C_33  and  C_34
REMARK   11  A    between atoms: C_34  and  C_38
REMARK   12  A    between atoms: C_34  and  O_42
REMARK                            x       y       z     vdW  Elec       q    Type
REMARK                         _______ _______ _______ _____ _____    ______ ____
ROOT
ATOM      1  C   UNL A   1     -24.389   1.381  27.191  0.00  0.00    +0.046 C 
ATOM      2  F   UNL A   1     -23.082   2.236  25.282  0.00  0.00    -0.202 F 
ATOM      3  C   UNL A   1     -22.003   1.538  27.341  0.00  0.00    +0.168 C 
ATOM      4  F   UNL A   1     -20.864   1.632  27.263  0.00  0.00    -0.202 F 
ATOM      5  C   UNL A   1     -23.088   0.683  29.228  0.00  0.00    +0.017 C 
ATOM      6  C   UNL A   1     -23.153   1.766  26.602  0.00  0.00    +0.169 C 
ATOM      7  C   UNL A   1     -21.903   1.042  28.538  0.00  0.00    +0.033 C 
ATOM      8  C   UNL A   1     -24.299   0.695  28.513  0.00  0.00    +0.057 C 
ENDROOT
BRANCH   1   9
ATOM      9  C   UNL A   1     -25.688   1.614  26.461  0.00  0.00    +0.042 C 
ATOM     10  C   UNL A   1     -26.250   2.920  26.395  0.00  0.00    +0.077 C 
ATOM     11  C   UNL A   1     -27.438   3.091  25.645  0.00  0.00    +0.107 C 
ATOM     12  N   UNL A   1     -28.075   2.089  25.003  0.00  0.00    -0.208 NA
ATOM     13  C   UNL A   1     -27.543   0.849  25.079  0.00  0.00    +0.253 C 
ATOM     14  C   UNL A   1     -26.354   0.576  25.777  0.00  0.00    +0.193 C 
ATOM     15  F   UNL A   1     -25.860  -0.681  25.795  0.00  0.00    -0.199 F 
BRANCH  10  16
ATOM     16  C   UNL A   1     -25.642   4.093  27.123  0.00  0.00    +0.266 C 
ATOM     17  N   UNL A   1     -25.614   5.252  26.449  0.00  0.00    -0.200 NA
ATOM     18  C   UNL A   1     -25.026   6.479  26.963  0.00  0.00    +0.139 C 
ATOM     19  O   UNL A   1     -25.143   3.966  28.243  0.00  0.00    -0.268 OA
ENDBRANCH  10  16
BRANCH  13  20
ATOM     20  O   UNL A   1     -28.193  -0.208  24.477  0.00  0.00    -0.456 OA
BRANCH  20  21
ATOM     21  C   UNL A   1     -29.460   0.005  23.866  0.00  0.00    +0.243 C 
BRANCH  21  22
ATOM     22  C   UNL A   1     -30.065  -1.377  23.573  0.00  0.00    +0.229 C 
ATOM     23  O   UNL A   1     -30.729  -1.878  24.721  0.00  0.00    -0.216 OA
ENDBRANCH  21  22
ENDBRANCH  20  21
ENDBRANCH  13  20
ENDBRANCH   1   9
BRANCH   8  24
ATOM     24  N   UNL A   1     -25.387  -0.043  29.148  0.00  0.00    -0.253 N 
ATOM     25  C   UNL A   1     -26.835  -0.110  28.762  0.00  0.00    +0.257 C 
ATOM     26  O   UNL A   1     -27.697  -0.837  28.412  0.00  0.00    -0.272 OA
BRANCH  24  27
ATOM     27  C   UNL A   1     -24.855  -1.012  30.143  0.00  0.00    +0.118 C 
BRANCH  27  28
ATOM     28  C   UNL A   1     -24.973  -2.505  29.788  0.00  0.00    -0.003 C 
ATOM     29  C   UNL A   1     -23.906  -3.173  29.146  0.00  0.00    -0.003 C 
ATOM     30  C   UNL A   1     -23.989  -4.549  28.853  0.00  0.00    -0.000 C 
ATOM     31  C   UNL A   1     -25.137  -5.280  29.205  0.00  0.00    -0.000 C 
ATOM     32  C   UNL A   1     -26.232  -4.611  29.784  0.00  0.00    -0.000 C 
ATOM     33  C   UNL A   1     -26.155  -3.232  30.065  0.00  0.00    -0.003 C 
ENDBRANCH  27  28
BRANCH  27  34
ATOM     34  C   UNL A   1     -25.387  -0.679  31.571  0.00  0.00    +0.096 C 
ATOM     35  C   UNL A   1     -25.189   0.773  32.028  0.00  0.00    +0.021 C 
ATOM     36  C   UNL A   1     -25.336   0.684  33.544  0.00  0.00    +0.020 C 
ATOM     37  C   UNL A   1     -24.829  -0.715  33.905  0.00  0.00    +0.089 C 
ATOM     38  N   UNL A   1     -24.758  -1.481  32.646  0.00  0.00    -0.217 NA
ENDBRANCH  27  34
ENDBRANCH  24  27
BRANCH  25  39
ATOM     39  C   UNL A   1     -27.419   1.197  29.872  0.00  0.00    +0.191 C 
BRANCH  39  41
ATOM     40  C   UNL A   1     -27.723   3.415  30.791  0.00  0.00    +0.175 C 
ATOM     41  O   UNL A   1     -27.217   2.640  29.715  0.00  0.00    -0.344 OA
ENDBRANCH  39  41
BRANCH  39  43
ATOM     42  C   UNL A   1     -29.665   1.543  28.717  0.00  0.00    +0.003 C 
ATOM     43  C   UNL A   1     -28.808   0.999  29.916  0.00  0.00    +0.039 C 
ENDBRANCH  39  43
ENDBRANCH  25  39
ENDBRANCH   8  24
TORSDOF 12
