MODEL 2303
MODEL 1
REMARK VINA RESULT:    -7.515      0.000      0.000
REMARK INTER + INTRA:         -14.802
REMARK INTER:                 -11.469
REMARK INTRA:                  -3.333
REMARK UNBOUND:                -3.333
REMARK  Name = No_2303-gen_results/8p0m/2024-11-27-11-27-31/
REMARK  9 active torsions:
REMARK  status: ('A' for Active; 'I' for Inactive)
REMARK    1  A    between atoms: C_11  and  N_12
REMARK    2  A    between atoms: N_12  and  C_13
REMARK    3  A    between atoms: N_12  and  C_15
REMARK    4  A    between atoms: C_14  and  C_17
REMARK    5  A    between atoms: C_15  and  C_16
REMARK    6  A    between atoms: C_17  and  C_24
REMARK    7  A    between atoms: C_19  and  C_31
REMARK    8  A    between atoms: C_24  and  C_25
REMARK    9  A    between atoms: C_32  and  C_33
REMARK                            x       y       z     vdW  Elec       q    Type
REMARK                         _______ _______ _______ _____ _____    ______ ____
ROOT
ATOM      1  N   UNL A   1     -26.268   0.875  27.822  0.00  0.00    -0.260 N 
ENDROOT
BRANCH   1  12
ATOM      2  C   UNL A   1     -27.772  -1.460  31.981  0.00  0.00    +0.030 A 
ATOM      3  C   UNL A   1     -27.894  -1.642  30.792  0.00  0.00    +0.140 A 
ATOM      4  C   UNL A   1     -27.531  -0.854  29.821  0.00  0.00    +0.031 A 
ATOM      5  C   UNL A   1     -26.921   0.392  30.160  0.00  0.00    +0.016 A 
ATOM      6  C   UNL A   1     -27.058  -0.269  32.400  0.00  0.00    +0.002 A 
ATOM      7  C   UNL A   1     -26.667   0.602  31.469  0.00  0.00    +0.001 A 
ATOM      8  F   UNL A   1     -28.498  -2.817  30.359  0.00  0.00    -0.204 F 
ATOM      9  C   UNL A   1     -25.986   1.863  31.886  0.00  0.00    +0.000 A 
ATOM     10  C   UNL A   1     -25.125   2.335  31.052  0.00  0.00    +0.001 A 
ATOM     11  C   UNL A   1     -25.420   2.306  29.623  0.00  0.00    +0.015 A 
ATOM     12  C   UNL A   1     -26.132   1.107  29.151  0.00  0.00    +0.054 A 
ENDBRANCH   1  12
BRANCH   1  13
ATOM     13  C   UNL A   1     -27.019   1.521  27.007  0.00  0.00    +0.192 C 
ATOM     14  C   UNL A   1     -26.763   1.357  25.556  0.00  0.00    +0.020 C 
ATOM     15  F   UNL A   1     -28.020   2.104  27.489  0.00  0.00    -0.188 F 
BRANCH  14  16
ATOM     16  C   UNL A   1     -27.527   2.260  24.759  0.00  0.00    +0.034 C 
BRANCH  16  17
ATOM     17  C   UNL A   1     -28.135   1.806  23.609  0.00  0.00    +0.031 C 
BRANCH  17  18
ATOM     18  C   UNL A   1     -29.056   0.808  23.562  0.00  0.00    -0.022 A 
ATOM     19  C   UNL A   1     -28.717  -0.549  23.679  0.00  0.00    -0.004 A 
ATOM     20  C   UNL A   1     -29.777  -1.568  23.593  0.00  0.00    -0.000 A 
ATOM     21  C   UNL A   1     -31.109  -1.120  23.491  0.00  0.00    -0.000 A 
ATOM     22  C   UNL A   1     -31.394   0.205  23.366  0.00  0.00    -0.000 A 
ATOM     23  C   UNL A   1     -30.412   1.112  23.397  0.00  0.00    -0.004 A 
ENDBRANCH  17  18
ENDBRANCH  16  17
ENDBRANCH  14  16
ENDBRANCH   1  13
BRANCH   1  24
ATOM     24  C   UNL A   1     -25.431  -0.118  27.211  0.00  0.00    +0.124 C 
BRANCH  24  25
ATOM     25  C   UNL A   1     -24.048  -0.048  27.507  0.00  0.00    +0.000 A 
ATOM     26  C   UNL A   1     -23.463  -0.765  28.525  0.00  0.00    +0.025 A 
ATOM     27  C   UNL A   1     -22.330  -0.346  29.214  0.00  0.00    +0.002 A 
ATOM     28  C   UNL A   1     -21.649   0.832  28.720  0.00  0.00    +0.000 A 
ATOM     29  C   UNL A   1     -22.193   1.523  27.595  0.00  0.00    -0.000 A 
ATOM     30  C   UNL A   1     -23.352   1.136  27.038  0.00  0.00    -0.003 A 
BRANCH  26  31
ATOM     31  C   UNL A   1     -24.182  -1.910  29.134  0.00  0.00    +0.140 C 
ATOM     32  C   UNL A   1     -24.146  -3.175  28.642  0.00  0.00    +0.030 C 
ATOM     33  F   UNL A   1     -24.370  -1.662  30.331  0.00  0.00    -0.204 F 
BRANCH  32  34
ATOM     34  C   UNL A   1     -24.977  -4.127  29.371  0.00  0.00    +0.002 C 
ATOM     35  C   UNL A   1     -24.989  -5.447  29.095  0.00  0.00    +0.000 C 
ENDBRANCH  32  34
ENDBRANCH  26  31
ENDBRANCH  24  25
ENDBRANCH   1  24
TORSDOF 9
ENDMDL
ENDMDL
