REMARK  Name = outputs/IAG933/test6/raw/output_2303_IAG933_linker_design_.xyz
REMARK  12 active torsions:
REMARK  status: ('A' for Active; 'I' for Inactive)
REMARK    1  A    between atoms: C_1  and  C_2
REMARK    2  A    between atoms: C_1  and  C_8
REMARK    3  A    between atoms: C_1  and  N_39
REMARK    4  A    between atoms: C_13  and  C_44
REMARK    5  A    between atoms: C_14  and  C_15
REMARK    6  A    between atoms: C_21  and  O_22
REMARK    7  A    between atoms: O_22  and  C_23
REMARK    8  A    between atoms: C_23  and  C_24
REMARK    9  A    between atoms: C_30  and  C_31
REMARK   10  A    between atoms: C_31  and  C_37
REMARK   11  A    between atoms: N_32  and  C_33
REMARK   12  A    between atoms: N_32  and  C_46
REMARK                            x       y       z     vdW  Elec       q    Type
REMARK                         _______ _______ _______ _____ _____    ______ ____
ROOT
ATOM      1  C   UNL A   1     -23.260   0.296  29.142  0.00  0.00    +0.269 C 
ATOM      2  C   UNL A   1     -21.215   1.460  27.428  0.00  0.00    +0.068 C 
ATOM      3  N   UNL A   1     -24.543  -0.055  29.299  0.00  0.00    -0.255 N 
ATOM      4  S   UNL A   1     -22.971   1.122  27.629  0.00  0.00    -0.101 S 
ATOM      5  C   UNL A   1     -24.807   1.173  27.470  0.00  0.00    +0.089 C 
ATOM      6  C   UNL A   1     -25.410   0.656  28.574  0.00  0.00    +0.162 C 
ATOM      7  O   UNL A   1     -22.378   0.132  29.994  0.00  0.00    -0.264 OA
ENDROOT
BRANCH   5   8
ATOM      8  C   UNL A   1     -25.688   1.614  26.461  0.00  0.00    +0.083 C 
ATOM      9  C   UNL A   1     -26.250   2.920  26.395  0.00  0.00    +0.056 C 
ATOM     10  C   UNL A   1     -27.438   3.091  25.645  0.00  0.00    +0.102 C 
ATOM     11  N   UNL A   1     -28.075   2.089  25.003  0.00  0.00    -0.212 NA
ATOM     12  C   UNL A   1     -27.543   0.849  25.079  0.00  0.00    +0.234 C 
ATOM     13  C   UNL A   1     -26.354   0.576  25.777  0.00  0.00    +0.241 C 
ATOM     14  F   UNL A   1     -25.860  -0.681  25.795  0.00  0.00    -0.227 F 
BRANCH   9  15
ATOM     15  C   UNL A   1     -25.642   4.093  27.123  0.00  0.00    +0.263 C 
ATOM     16  N   UNL A   1     -25.614   5.252  26.449  0.00  0.00    -0.200 NA
ATOM     17  C   UNL A   1     -25.026   6.479  26.963  0.00  0.00    +0.139 C 
ATOM     18  O   UNL A   1     -25.143   3.966  28.243  0.00  0.00    -0.269 OA
ENDBRANCH   9  15
BRANCH  12  19
ATOM     19  O   UNL A   1     -28.193  -0.208  24.477  0.00  0.00    -0.459 OA
BRANCH  19  20
ATOM     20  C   UNL A   1     -29.460   0.005  23.866  0.00  0.00    +0.242 C 
BRANCH  20  21
ATOM     21  C   UNL A   1     -30.065  -1.377  23.573  0.00  0.00    +0.229 C 
ATOM     22  O   UNL A   1     -30.729  -1.878  24.721  0.00  0.00    -0.216 OA
ENDBRANCH  20  21
ENDBRANCH  19  20
ENDBRANCH  12  19
ENDBRANCH   5   8
BRANCH   3  23
ATOM     23  C   UNL A   1     -24.855  -1.012  30.143  0.00  0.00    +0.116 C 
BRANCH  23  24
ATOM     24  C   UNL A   1     -24.973  -2.505  29.788  0.00  0.00    -0.003 C 
ATOM     25  C   UNL A   1     -23.906  -3.173  29.146  0.00  0.00    -0.003 C 
ATOM     26  C   UNL A   1     -23.989  -4.549  28.853  0.00  0.00    -0.000 C 
ATOM     27  C   UNL A   1     -25.137  -5.280  29.205  0.00  0.00    -0.000 C 
ATOM     28  C   UNL A   1     -26.232  -4.611  29.784  0.00  0.00    -0.000 C 
ATOM     29  C   UNL A   1     -26.155  -3.232  30.065  0.00  0.00    -0.003 C 
ENDBRANCH  23  24
BRANCH  23  30
ATOM     30  C   UNL A   1     -25.387  -0.679  31.571  0.00  0.00    +0.095 C 
ATOM     31  C   UNL A   1     -25.189   0.773  32.028  0.00  0.00    +0.021 C 
ATOM     32  C   UNL A   1     -25.336   0.684  33.544  0.00  0.00    +0.020 C 
ATOM     33  C   UNL A   1     -24.829  -0.715  33.905  0.00  0.00    +0.089 C 
ATOM     34  N   UNL A   1     -24.758  -1.481  32.646  0.00  0.00    -0.217 NA
ENDBRANCH  23  30
ENDBRANCH   3  23
BRANCH   6  35
ATOM     35  N   UNL A   1     -26.689   0.907  28.735  0.00  0.00    -0.177 NA
BRANCH  35  37
ATOM     36  N   UNL A   1     -28.351   1.338  30.201  0.00  0.00    -0.225 NA
ATOM     37  C   UNL A   1     -27.769   0.551  29.329  0.00  0.00    +0.184 C 
ATOM     38  O   UNL A   1     -29.780   1.468  28.392  0.00  0.00    -0.463 OA
ATOM     39  C   UNL A   1     -29.456   1.994  29.726  0.00  0.00    +0.201 C 
ATOM     40  C   UNL A   1     -28.620  -0.631  28.907  0.00  0.00    +0.090 C 
ATOM     41  C   UNL A   1     -29.650   0.052  28.051  0.00  0.00    +0.210 C 
BRANCH  39  42
ATOM     42  C   UNL A   1     -30.016   3.192  30.230  0.00  0.00    +0.111 C 
BRANCH  42  43
ATOM     43  C   UNL A   1     -29.310   4.364  29.695  0.00  0.00    -0.013 C 
ATOM     44  C   UNL A   1     -29.274   4.469  28.318  0.00  0.00    -0.004 C 
ATOM     45  C   UNL A   1     -28.210   6.442  29.822  0.00  0.00    -0.000 C 
ATOM     46  C   UNL A   1     -28.794   5.612  27.632  0.00  0.00    -0.000 C 
ATOM     47  C   UNL A   1     -28.273   6.603  28.442  0.00  0.00    -0.000 C 
ATOM     48  C   UNL A   1     -28.704   5.300  30.479  0.00  0.00    -0.004 C 
ENDBRANCH  42  43
ENDBRANCH  39  42
ENDBRANCH  35  37
ENDBRANCH   6  35
TORSDOF 12
