MODEL 2304
MODEL 1
REMARK VINA RESULT:    -5.481      0.000      0.000
REMARK INTER + INTRA:          -5.864
REMARK INTER:                  -5.801
REMARK INTRA:                  -0.063
REMARK UNBOUND:                -0.063
REMARK  Name = No_2304-gen_results/8p0m/2024-11-27-11-27-31/
REMARK  1 active torsions:
REMARK  status: ('A' for Active; 'I' for Inactive)
REMARK    1  A    between atoms: C_5  and  C_7
REMARK                            x       y       z     vdW  Elec       q    Type
REMARK                         _______ _______ _______ _____ _____    ______ ____
ROOT
ATOM      1  C   UNL A   1     -24.660  -5.178  28.998  0.00  0.00    +0.000 A 
ATOM      2  C   UNL A   1     -25.793  -5.075  29.409  0.00  0.00    +0.000 A 
ATOM      3  C   UNL A   1     -26.394  -3.891  29.801  0.00  0.00    +0.000 A 
ATOM      4  C   UNL A   1     -25.621  -2.700  29.679  0.00  0.00    +0.005 A 
ATOM      5  C   UNL A   1     -24.420  -2.830  29.078  0.00  0.00    +0.055 A 
ATOM      6  C   UNL A   1     -23.969  -4.014  28.656  0.00  0.00    +0.005 A 
ENDROOT
BRANCH   5   7
ATOM      7  C   UNL A   1     -23.666  -1.570  28.925  0.00  0.00    +0.265 C 
ATOM      8  N   UNL A   1     -22.484  -1.608  29.038  0.00  0.00    -0.200 NA
ATOM      9  O   UNL A   1     -24.210  -0.575  28.399  0.00  0.00    -0.268 OA
ATOM     10  C   UNL A   1     -21.617  -0.373  28.957  0.00  0.00    +0.139 C 
ENDBRANCH   5   7
TORSDOF 1
ENDMDL
ENDMDL
