MODEL 2306
MODEL 1
REMARK VINA RESULT:    -4.261      0.000      0.000
REMARK INTER + INTRA:          -4.261
REMARK INTER:                  -4.261
REMARK INTRA:                   0.000
REMARK UNBOUND:                 0.000
REMARK  Name = No_2306-gen_results/8p0m/2024-11-27-11-27-31/
REMARK  0 active torsions:
REMARK  status: ('A' for Active; 'I' for Inactive)
REMARK                            x       y       z     vdW  Elec       q    Type
REMARK                         _______ _______ _______ _____ _____    ______ ____
ROOT
ATOM      1  C   UNL A   1     -26.055  -4.888  29.665  0.00  0.00    +0.000 A 
ATOM      2  C   UNL A   1     -26.226  -3.693  29.738  0.00  0.00    +0.000 A 
ATOM      3  C   UNL A   1     -25.285  -2.762  29.345  0.00  0.00    +0.000 A 
ATOM      4  C   UNL A   1     -24.066  -3.239  28.787  0.00  0.00    +0.000 A 
ATOM      5  C   UNL A   1     -23.993  -4.573  28.569  0.00  0.00    +0.000 A 
ATOM      6  C   UNL A   1     -24.962  -5.387  28.942  0.00  0.00    +0.000 A 
ENDROOT
TORSDOF 0
ENDMDL
ENDMDL
