REMARK  Name = No_2307-gen_results/8p0m/2024-11-27-11-27-31/
REMARK  2 active torsions:
REMARK  status: ('A' for Active; 'I' for Inactive)
REMARK    1  A    between atoms: C_10  and  O_15
REMARK    2  A    between atoms: O_15  and  C_16
REMARK                            x       y       z     vdW  Elec       q    Type
REMARK                         _______ _______ _______ _____ _____    ______ ____
ROOT
ATOM      1  C   UNL A   1     -28.016  -0.814  28.878  0.00  0.00    +0.081 A 
ATOM      2  C   UNL A   1     -27.064  -0.119  28.608  0.00  0.00    +0.018 A 
ATOM      3  C   UNL A   1     -25.792  -0.430  29.076  0.00  0.00    +0.002 A 
ATOM      4  C   UNL A   1     -25.576  -1.565  29.936  0.00  0.00    +0.000 A 
ATOM      5  C   UNL A   1     -26.735  -2.300  30.217  0.00  0.00    +0.002 A 
ATOM      6  C   UNL A   1     -27.918  -1.954  29.763  0.00  0.00    +0.019 A 
ATOM      7  C   UNL A   1     -27.106   1.102  27.759  0.00  0.00    +0.003 A 
ATOM      8  C   UNL A   1     -27.858   1.531  27.216  0.00  0.00    +0.021 A 
ATOM      9  C   UNL A   1     -29.242   0.882  27.292  0.00  0.00    +0.116 A 
ATOM     10  C   UNL A   1     -30.136   1.122  26.292  0.00  0.00    +0.163 A 
ATOM     11  C   UNL A   1     -29.899   2.240  25.431  0.00  0.00    +0.039 A 
ATOM     12  C   UNL A   1     -28.714   2.951  25.357  0.00  0.00    +0.003 A 
ATOM     13  C   UNL A   1     -27.729   2.576  26.133  0.00  0.00    +0.002 A 
ATOM     14  N   UNL A   1     -29.236  -0.289  28.244  0.00  0.00    -0.242 NA
ENDROOT
BRANCH  10  15
ATOM     15  O   UNL A   1     -31.379   0.730  26.360  0.00  0.00    -0.449 OA
BRANCH  15  16
ATOM     16  C   UNL A   1     -32.228   0.850  27.287  0.00  0.00    +0.175 C 
ATOM     17  C   UNL A   1     -32.408   1.857  27.851  0.00  0.00    +0.015 C 
ATOM     18  C   UNL A   1     -33.370   2.030  29.002  0.00  0.00    +0.034 C 
ENDBRANCH  15  16
ENDBRANCH  10  15
TORSDOF 2
