MODEL 2307
MODEL 1
REMARK VINA RESULT:    -6.571      0.000      0.000
REMARK INTER + INTRA:          -7.574
REMARK INTER:                  -7.339
REMARK INTRA:                  -0.234
REMARK UNBOUND:                -0.234
REMARK  Name = No_2307-gen_results/8p0m/2024-11-27-11-27-31/
REMARK  2 active torsions:
REMARK  status: ('A' for Active; 'I' for Inactive)
REMARK    1  A    between atoms: C_10  and  O_15
REMARK    2  A    between atoms: O_15  and  C_16
REMARK                            x       y       z     vdW  Elec       q    Type
REMARK                         _______ _______ _______ _____ _____    ______ ____
ROOT
ATOM      1  C   UNL A   1     -25.453   2.101  27.468  0.00  0.00    +0.081 A 
ATOM      2  C   UNL A   1     -24.482   2.739  27.133  0.00  0.00    +0.018 A 
ATOM      3  C   UNL A   1     -24.606   4.047  26.676  0.00  0.00    +0.002 A 
ATOM      4  C   UNL A   1     -25.899   4.667  26.545  0.00  0.00    +0.000 A 
ATOM      5  C   UNL A   1     -26.968   3.850  26.933  0.00  0.00    +0.002 A 
ATOM      6  C   UNL A   1     -26.800   2.613  27.342  0.00  0.00    +0.019 A 
ATOM      7  C   UNL A   1     -23.078   2.251  27.175  0.00  0.00    +0.003 A 
ATOM      8  C   UNL A   1     -22.665   1.386  27.531  0.00  0.00    +0.021 A 
ATOM      9  C   UNL A   1     -23.620   0.324  28.082  0.00  0.00    +0.116 A 
ATOM     10  C   UNL A   1     -23.132  -0.615  28.941  0.00  0.00    +0.163 A 
ATOM     11  C   UNL A   1     -21.715  -0.806  28.996  0.00  0.00    +0.039 A 
ATOM     12  C   UNL A   1     -20.775   0.048  28.447  0.00  0.00    +0.003 A 
ATOM     13  C   UNL A   1     -21.209   1.116  27.828  0.00  0.00    +0.002 A 
ATOM     14  N   UNL A   1     -25.056   0.763  27.935  0.00  0.00    -0.242 NA
ENDROOT
BRANCH  10  15
ATOM     15  O   UNL A   1     -23.844  -1.636  29.334  0.00  0.00    -0.449 OA
BRANCH  15  16
ATOM     16  C   UNL A   1     -23.828  -2.841  28.956  0.00  0.00    +0.175 C 
ATOM     17  C   UNL A   1     -24.619  -3.623  29.311  0.00  0.00    +0.015 C 
ATOM     18  C   UNL A   1     -24.604  -5.085  28.930  0.00  0.00    +0.034 C 
ENDBRANCH  15  16
ENDBRANCH  10  15
TORSDOF 2
ENDMDL
ENDMDL
