MODEL 2309
MODEL 1
REMARK VINA RESULT:    -5.001      0.000      0.000
REMARK INTER + INTRA:          -5.371
REMARK INTER:                  -5.294
REMARK INTRA:                  -0.077
REMARK UNBOUND:                -0.077
REMARK  Name = No_2309-gen_results/8p0m/2024-11-27-11-27-31/
REMARK  1 active torsions:
REMARK  status: ('A' for Active; 'I' for Inactive)
REMARK    1  A    between atoms: C_3  and  C_4
REMARK                            x       y       z     vdW  Elec       q    Type
REMARK                         _______ _______ _______ _____ _____    ______ ____
ROOT
ATOM      1  C   UNL A   1     -25.789  -2.594  29.807  0.00  0.00    -0.000 A 
ATOM      2  C   UNL A   1     -26.400  -3.443  29.937  0.00  0.00    -0.000 A 
ATOM      3  C   UNL A   1     -24.507  -2.784  29.246  0.00  0.00    -0.000 A 
ATOM      4  C   UNL A   1     -26.160  -4.867  29.644  0.00  0.00    -0.000 A 
ATOM      5  C   UNL A   1     -24.909  -5.131  29.088  0.00  0.00    -0.000 A 
ATOM      6  C   UNL A   1     -24.067  -4.097  28.830  0.00  0.00    -0.000 A 
ENDROOT
BRANCH   3   7
ATOM      7  C   UNL A   1     -23.569  -1.686  28.897  0.00  0.00    -0.005 C 
ATOM      8  C   UNL A   1     -22.888  -0.988  29.475  0.00  0.00    -0.026 C 
ATOM      9  C   UNL A   1     -23.125  -1.063  30.994  0.00  0.00    +0.031 C 
ENDBRANCH   3   7
TORSDOF 1
ENDMDL
ENDMDL
