MODEL 230
MODEL 1
REMARK VINA RESULT:    -7.080      0.000      0.000
REMARK INTER + INTRA:          -8.452
REMARK INTER:                  -8.322
REMARK INTRA:                  -0.130
REMARK UNBOUND:                -0.130
REMARK  Name = No_230-gen_results/8p0m/2024-11-27-11-27-31/
REMARK  3 active torsions:
REMARK  status: ('A' for Active; 'I' for Inactive)
REMARK    1  A    between atoms: C_5  and  C_8
REMARK    2  A    between atoms: N_9  and  C_10
REMARK    3  A    between atoms: C_10  and  C_11
REMARK                            x       y       z     vdW  Elec       q    Type
REMARK                         _______ _______ _______ _____ _____    ______ ____
ROOT
ATOM      1  C   UNL A   1     -22.502  -0.637  29.024  0.00  0.00    +0.265 C 
ATOM      2  N   UNL A   1     -23.110  -1.123  30.140  0.00  0.00    -0.199 NA
ATOM      3  O   UNL A   1     -21.249  -0.455  28.905  0.00  0.00    -0.268 OA
ENDROOT
BRANCH   1   8
ATOM      4 CL   UNL A   1     -24.851   3.300  25.616  0.00  0.00    -0.082 Cl
ATOM      5  C   UNL A   1     -24.237   2.386  26.547  0.00  0.00    +0.058 A 
ATOM      6  C   UNL A   1     -23.407   2.608  27.354  0.00  0.00    +0.011 A 
ATOM      7  C   UNL A   1     -22.849   1.618  28.271  0.00  0.00    +0.005 A 
ATOM      8  C   UNL A   1     -23.287   0.261  28.176  0.00  0.00    +0.055 A 
ATOM      9  C   UNL A   1     -24.239   0.010  27.242  0.00  0.00    +0.005 A 
ATOM     10  C   UNL A   1     -24.731   0.973  26.447  0.00  0.00    +0.011 A 
ENDBRANCH   1   8
BRANCH   2  11
ATOM     11  C   UNL A   1     -24.379  -1.465  30.089  0.00  0.00    +0.118 C 
ATOM     12  C   UNL A   1     -25.356  -0.533  30.561  0.00  0.00    +0.028 C 
BRANCH  11  13
ATOM     13  C   UNL A   1     -24.746  -2.680  29.771  0.00  0.00    -0.003 A 
ATOM     14  C   UNL A   1     -26.006  -3.245  30.105  0.00  0.00    -0.003 A 
ATOM     15  C   UNL A   1     -26.307  -4.524  29.674  0.00  0.00    -0.000 A 
ATOM     16  C   UNL A   1     -25.381  -5.282  28.992  0.00  0.00    -0.000 A 
ATOM     17  C   UNL A   1     -24.157  -4.777  28.613  0.00  0.00    -0.000 A 
ATOM     18  C   UNL A   1     -23.852  -3.584  28.958  0.00  0.00    -0.003 A 
ENDBRANCH  11  13
ENDBRANCH   2  11
TORSDOF 3
ENDMDL
ENDMDL
