MODEL 2310
MODEL 1
REMARK VINA RESULT:    -7.651      0.000      0.000
REMARK INTER + INTRA:         -13.342
REMARK INTER:                 -11.229
REMARK INTRA:                  -2.113
REMARK UNBOUND:                -2.113
REMARK  Name = No_2310-gen_results/8p0m/2024-11-27-11-27-31/
REMARK  8 active torsions:
REMARK  status: ('A' for Active; 'I' for Inactive)
REMARK    1  A    between atoms: C_1  and  C_2
REMARK    2  A    between atoms: C_1  and  C_8
REMARK    3  A    between atoms: C_3  and  C_17
REMARK    4  A    between atoms: C_5  and  C_11
REMARK    5  A    between atoms: N_19  and  C_20
REMARK    6  A    between atoms: C_20  and  C_22
REMARK    7  A    between atoms: C_22  and  C_23
REMARK    8  A    between atoms: C_25  and  N_29
REMARK                            x       y       z     vdW  Elec       q    Type
REMARK                         _______ _______ _______ _____ _____    ______ ____
ROOT
ATOM      1  C   UNL A   1     -25.105   0.468  31.203  0.00  0.00    +0.249 C 
ATOM      2  O   UNL A   1     -25.145   1.569  30.773  0.00  0.00    -0.270 OA
ATOM      3  N   UNL A   1     -23.904  -0.077  31.379  0.00  0.00    -0.274 N 
ATOM      4  C   UNL A   1     -23.650  -1.410  31.991  0.00  0.00    +0.115 C 
ENDROOT
BRANCH   1   6
ATOM      5  C   UNL A   1     -27.088  -1.023  31.116  0.00  0.00    -0.013 A 
ATOM      6  C   UNL A   1     -26.255  -0.199  31.852  0.00  0.00    +0.050 A 
ATOM      7  C   UNL A   1     -26.358   0.079  33.265  0.00  0.00    +0.011 A 
ATOM      8  C   UNL A   1     -27.404  -0.530  33.999  0.00  0.00    +0.080 A 
ATOM      9  C   UNL A   1     -28.297  -1.385  33.302  0.00  0.00    +0.006 A 
ATOM     10  C   UNL A   1     -28.099  -1.607  31.974  0.00  0.00    -0.004 A 
BRANCH   8  11
ATOM     11  C   UNL A   1     -27.564  -0.305  35.427  0.00  0.00    +0.388 C 
ATOM     12  O   UNL A   1     -28.254   0.582  35.906  0.00  0.00    -0.241 OA
ATOM     13  O   UNL A   1     -26.448  -0.644  36.259  0.00  0.00    -0.241 OA
ENDBRANCH   8  11
BRANCH   5  14
ATOM     14  C   UNL A   1     -26.942  -1.296  29.947  0.00  0.00    +0.053 C 
BRANCH  14  15
ATOM     15  C   UNL A   1     -26.277  -2.603  29.689  0.00  0.00    -0.018 A 
ATOM     16  C   UNL A   1     -26.818  -3.616  30.017  0.00  0.00    -0.004 A 
ATOM     17  C   UNL A   1     -26.161  -4.962  29.699  0.00  0.00    -0.000 A 
ATOM     18  C   UNL A   1     -24.944  -4.926  29.063  0.00  0.00    -0.000 A 
ATOM     19  C   UNL A   1     -24.948  -2.597  28.971  0.00  0.00    -0.004 A 
ATOM     20  C   UNL A   1     -24.316  -3.773  28.701  0.00  0.00    -0.000 A 
ENDBRANCH  14  15
ENDBRANCH   5  14
ENDBRANCH   1   6
BRANCH   3  21
ATOM     21  C   UNL A   1     -22.705   0.399  30.795  0.00  0.00    +0.098 C 
BRANCH  21  22
ATOM     22  C   UNL A   1     -22.412  -0.206  29.609  0.00  0.00    +0.048 C 
BRANCH  22  23
ATOM     23  C   UNL A   1     -22.660   0.471  28.364  0.00  0.00    -0.019 A 
ATOM     24  C   UNL A   1     -23.974   0.533  27.820  0.00  0.00    +0.010 A 
ATOM     25  C   UNL A   1     -24.186   1.179  26.578  0.00  0.00    +0.048 A 
ATOM     26  C   UNL A   1     -23.093   1.950  26.086  0.00  0.00    +0.015 A 
ATOM     27  C   UNL A   1     -21.885   1.978  26.688  0.00  0.00    +0.001 A 
ATOM     28  C   UNL A   1     -21.680   1.262  27.803  0.00  0.00    -0.004 A 
BRANCH  25  29
ATOM     29  N   UNL A   1     -25.406   1.208  25.991  0.00  0.00    -0.307 N 
ATOM     30  C   UNL A   1     -26.119   2.297  25.658  0.00  0.00    +0.091 C 
ATOM     31  C   UNL A   1     -27.392   2.126  25.120  0.00  0.00    +0.020 C 
ATOM     32  C   UNL A   1     -25.951   0.003  25.499  0.00  0.00    +0.091 C 
ATOM     33  C   UNL A   1     -26.585  -0.012  24.410  0.00  0.00    +0.021 C 
ATOM     34  C   UNL A   1     -27.765   0.917  24.448  0.00  0.00    +0.004 C 
ATOM     35  C   UNL A   1     -28.238   3.325  24.894  0.00  0.00    +0.002 C 
ENDBRANCH  25  29
ENDBRANCH  22  23
ENDBRANCH  21  22
ENDBRANCH   3  21
TORSDOF 8
ENDMDL
ENDMDL
