REMARK  Name = No_2311-gen_results/8p0m/2024-11-27-11-27-31/
REMARK  8 active torsions:
REMARK  status: ('A' for Active; 'I' for Inactive)
REMARK    1  A    between atoms: C_2  and  C_7
REMARK    2  A    between atoms: C_7  and  C_8
REMARK    3  A    between atoms: C_7  and  C_9
REMARK    4  A    between atoms: C_8  and  C_16
REMARK    5  A    between atoms: C_9  and  C_10
REMARK    6  A    between atoms: C_10  and  C_12
REMARK    7  A    between atoms: C_12  and  C_13
REMARK    8  A    between atoms: C_17  and  C_18
REMARK                            x       y       z     vdW  Elec       q    Type
REMARK                         _______ _______ _______ _____ _____    ______ ____
ROOT
ATOM      1  C   UNL A   1     -25.891  -0.626  27.786  0.00  0.00    +0.030 C 
ENDROOT
BRANCH   1   3
ATOM      2  C   UNL A   1     -28.016  -0.814  28.878  0.00  0.00    -0.004 A 
ATOM      3  C   UNL A   1     -27.064  -0.119  28.608  0.00  0.00    -0.022 A 
ATOM      4  C   UNL A   1     -26.929   1.171  29.008  0.00  0.00    -0.004 A 
ATOM      5  C   UNL A   1     -27.956   1.741  29.784  0.00  0.00    -0.000 A 
ATOM      6  C   UNL A   1     -29.057  -0.327  29.747  0.00  0.00    -0.000 A 
ATOM      7  C   UNL A   1     -28.983   0.972  30.152  0.00  0.00    -0.000 A 
ENDBRANCH   1   3
BRANCH   1   8
ATOM      8  C   UNL A   1     -25.463   0.112  26.681  0.00  0.00    +0.026 C 
ATOM      9  C   UNL A   1     -26.155  -0.001  25.446  0.00  0.00    +0.005 C 
BRANCH   8  10
ATOM     10  C   UNL A   1     -24.893   1.416  26.781  0.00  0.00    -0.026 C 
ATOM     11  C   UNL A   1     -23.863   1.890  26.528  0.00  0.00    -0.005 C 
BRANCH  11  12
ATOM     12  C   UNL A   1     -23.298   3.215  26.748  0.00  0.00    -0.000 C 
ATOM     13  C   UNL A   1     -24.347   4.117  27.142  0.00  0.00    -0.000 C 
ENDBRANCH  11  12
ENDBRANCH   8  10
ENDBRANCH   1   8
BRANCH   1  14
ATOM     14  C   UNL A   1     -25.031  -1.670  28.241  0.00  0.00    +0.027 C 
BRANCH  14  15
ATOM     15  C   UNL A   1     -24.396  -1.719  29.477  0.00  0.00    -0.044 C 
ATOM     16  C   UNL A   1     -23.719  -2.693  29.873  0.00  0.00    -0.009 C 
BRANCH  15  17
ATOM     17  C   UNL A   1     -24.885  -0.879  30.529  0.00  0.00    +0.022 C 
BRANCH  17  18
ATOM     18  C   UNL A   1     -24.067  -0.619  31.719  0.00  0.00    +0.004 C 
ATOM     19  C   UNL A   1     -23.438   0.461  31.792  0.00  0.00    +0.000 C 
ENDBRANCH  17  18
ENDBRANCH  15  17
ENDBRANCH  14  15
ENDBRANCH   1  14
TORSDOF 8
