MODEL 2311
MODEL 1
REMARK VINA RESULT:    -6.265      0.000      0.000
REMARK INTER + INTRA:         -11.311
REMARK INTER:                  -9.195
REMARK INTRA:                  -2.116
REMARK UNBOUND:                -2.116
REMARK  Name = No_2311-gen_results/8p0m/2024-11-27-11-27-31/
REMARK  8 active torsions:
REMARK  status: ('A' for Active; 'I' for Inactive)
REMARK    1  A    between atoms: C_2  and  C_7
REMARK    2  A    between atoms: C_7  and  C_8
REMARK    3  A    between atoms: C_7  and  C_9
REMARK    4  A    between atoms: C_8  and  C_16
REMARK    5  A    between atoms: C_9  and  C_10
REMARK    6  A    between atoms: C_10  and  C_12
REMARK    7  A    between atoms: C_12  and  C_13
REMARK    8  A    between atoms: C_17  and  C_18
REMARK                            x       y       z     vdW  Elec       q    Type
REMARK                         _______ _______ _______ _____ _____    ______ ____
ROOT
ATOM      1  C   UNL A   1     -25.120  -1.358  29.157  0.00  0.00    +0.030 C 
ENDROOT
BRANCH   1   3
ATOM      2  C   UNL A   1     -26.010  -3.514  29.707  0.00  0.00    -0.004 A 
ATOM      3  C   UNL A   1     -25.128  -2.877  29.178  0.00  0.00    -0.022 A 
ATOM      4  C   UNL A   1     -24.066  -3.434  28.543  0.00  0.00    -0.004 A 
ATOM      5  C   UNL A   1     -23.978  -4.838  28.494  0.00  0.00    -0.000 A 
ATOM      6  C   UNL A   1     -26.033  -4.952  29.613  0.00  0.00    -0.000 A 
ATOM      7  C   UNL A   1     -24.974  -5.561  29.011  0.00  0.00    -0.000 A 
ENDBRANCH   1   3
BRANCH   1   8
ATOM      8  C   UNL A   1     -25.849  -0.685  28.175  0.00  0.00    +0.026 C 
ATOM      9  C   UNL A   1     -26.955   0.125  28.547  0.00  0.00    +0.005 C 
BRANCH   8  10
ATOM     10  C   UNL A   1     -25.263  -0.160  26.984  0.00  0.00    -0.026 C 
ATOM     11  C   UNL A   1     -24.606   0.761  26.723  0.00  0.00    -0.005 C 
BRANCH  11  12
ATOM     12  C   UNL A   1     -24.118   1.309  25.464  0.00  0.00    -0.000 C 
ATOM     13  C   UNL A   1     -24.635   0.524  24.375  0.00  0.00    -0.000 C 
ENDBRANCH  11  12
ENDBRANCH   8  10
ENDBRANCH   1   8
BRANCH   1  14
ATOM     14  C   UNL A   1     -24.631  -0.579  30.249  0.00  0.00    +0.027 C 
BRANCH  14  15
ATOM     15  C   UNL A   1     -23.492  -0.854  30.997  0.00  0.00    -0.044 C 
ATOM     16  C   UNL A   1     -23.466  -0.863  32.247  0.00  0.00    -0.009 C 
BRANCH  15  17
ATOM     17  C   UNL A   1     -22.211  -0.660  30.385  0.00  0.00    +0.022 C 
BRANCH  17  18
ATOM     18  C   UNL A   1     -22.080   0.145  29.166  0.00  0.00    +0.004 C 
ATOM     19  C   UNL A   1     -21.018   0.070  28.507  0.00  0.00    +0.000 C 
ENDBRANCH  17  18
ENDBRANCH  15  17
ENDBRANCH  14  15
ENDBRANCH   1  14
TORSDOF 8
ENDMDL
ENDMDL
