MODEL 2312
MODEL 1
REMARK VINA RESULT:    -5.423      0.000      0.000
REMARK INTER + INTRA:          -6.037
REMARK INTER:                  -6.058
REMARK INTRA:                   0.021
REMARK UNBOUND:                 0.021
REMARK  Name = No_2312-gen_results/8p0m/2024-11-27-11-27-31/
REMARK  2 active torsions:
REMARK  status: ('A' for Active; 'I' for Inactive)
REMARK    1  A    between atoms: C_2  and  C_3
REMARK    2  A    between atoms: C_3  and  C_5
REMARK                            x       y       z     vdW  Elec       q    Type
REMARK                         _______ _______ _______ _____ _____    ______ ____
ROOT
ATOM      1  C   UNL A   1     -24.892  -2.654  29.236  0.00  0.00    -0.013 A 
ATOM      2  C   UNL A   1     -26.089  -3.112  29.700  0.00  0.00    -0.004 A 
ATOM      3  C   UNL A   1     -26.250  -4.530  29.713  0.00  0.00    -0.000 A 
ATOM      4  C   UNL A   1     -25.253  -5.268  29.098  0.00  0.00    -0.000 A 
ATOM      5  C   UNL A   1     -24.133  -4.727  28.606  0.00  0.00    -0.000 A 
ATOM      6  C   UNL A   1     -23.834  -3.447  28.674  0.00  0.00    -0.004 A 
ENDROOT
BRANCH   1   7
ATOM      7  C   UNL A   1     -24.601  -1.269  29.336  0.00  0.00    +0.113 C 
BRANCH   7   9
ATOM      8  O   UNL A   1     -23.783  -0.083  27.657  0.00  0.00    -0.273 OA
ATOM      9  C   UNL A   1     -23.582  -0.651  28.640  0.00  0.00    +0.246 C 
ATOM     10  N   UNL A   1     -22.277  -0.653  29.326  0.00  0.00    -0.203 NA
ATOM     11  C   UNL A   1     -21.161  -0.017  28.660  0.00  0.00    +0.139 C 
ENDBRANCH   7   9
ENDBRANCH   1   7
TORSDOF 2
ENDMDL
ENDMDL
