MODEL 2313
MODEL 1
REMARK VINA RESULT:    -3.887      0.000      0.000
REMARK INTER + INTRA:          -4.366
REMARK INTER:                  -4.342
REMARK INTRA:                  -0.024
REMARK UNBOUND:                -0.024
REMARK  Name = No_2313-gen_results/8p0m/2024-11-27-11-27-31/
REMARK  2 active torsions:
REMARK  status: ('A' for Active; 'I' for Inactive)
REMARK    1  A    between atoms: C_2  and  C_3
REMARK    2  A    between atoms: C_2  and  C_5
REMARK                            x       y       z     vdW  Elec       q    Type
REMARK                         _______ _______ _______ _____ _____    ______ ____
ROOT
ATOM      1  O   UNL A   1     -28.654 -10.183  32.918  0.00  0.00    -0.211 OA
ATOM      2  C   UNL A   1     -27.948 -11.192  32.818  0.00  0.00    +0.254 C 
ENDROOT
BRANCH   2   3
ATOM      3  C   UNL A   1     -27.128 -11.596  33.790  0.00  0.00    +0.395 C 
ATOM      4  O   UNL A   1     -26.841 -12.728  33.870  0.00  0.00    -0.243 OA
ATOM      5  O   UNL A   1     -26.918 -10.751  34.749  0.00  0.00    -0.243 OA
ENDBRANCH   2   3
BRANCH   2   6
ATOM      6  C   UNL A   1     -27.992 -12.099  31.633  0.00  0.00    +0.045 C 
ATOM      7  C   UNL A   1     -28.649 -11.686  30.501  0.00  0.00    +0.003 C 
ENDBRANCH   2   6
TORSDOF 2
ENDMDL
ENDMDL
