MODEL 2314
MODEL 1
REMARK VINA RESULT:    -3.464      0.000      0.000
REMARK INTER + INTRA:          -3.464
REMARK INTER:                  -3.464
REMARK INTRA:                   0.000
REMARK UNBOUND:                 0.000
REMARK  Name = No_2314-gen_results/8p0m/2024-11-27-11-27-31/
REMARK  0 active torsions:
REMARK  status: ('A' for Active; 'I' for Inactive)
REMARK                            x       y       z     vdW  Elec       q    Type
REMARK                         _______ _______ _______ _____ _____    ______ ____
ROOT
ATOM      1  P   UNL A   1      -9.818  -9.960  17.969  0.00  0.00    +0.559 P 
ATOM      2  O   UNL A   1      -9.178 -10.810  18.368  0.00  0.00    -0.220 OA
ATOM      3  O   UNL A   1      -8.758  -8.909  17.408  0.00  0.00    -0.113 OA
ATOM      4  O   UNL A   1     -10.801 -10.303  16.891  0.00  0.00    -0.113 OA
ATOM      5  O   UNL A   1     -10.538  -8.999  18.996  0.00  0.00    -0.113 OA
ENDROOT
TORSDOF 0
ENDMDL
ENDMDL
