MODEL 2315
MODEL 1
REMARK VINA RESULT:    -6.977      0.000      0.000
REMARK INTER + INTRA:          -8.733
REMARK INTER:                  -8.201
REMARK INTRA:                  -0.532
REMARK UNBOUND:                -0.532
REMARK  Name = No_2315-gen_results/8p0m/2024-11-27-11-27-31/
REMARK  3 active torsions:
REMARK  status: ('A' for Active; 'I' for Inactive)
REMARK    1  A    between atoms: C_1  and  C_19
REMARK    2  A    between atoms: C_3  and  C_10
REMARK    3  A    between atoms: C_5  and  C_6
REMARK                            x       y       z     vdW  Elec       q    Type
REMARK                         _______ _______ _______ _____ _____    ______ ____
ROOT
ATOM      1  C   UNL A   1     -26.318  -1.871  30.050  0.00  0.00    +0.080 A 
ATOM      2  C   UNL A   1     -25.624  -1.044  29.507  0.00  0.00    +0.003 A 
ATOM      3  C   UNL A   1     -24.448  -1.312  28.826  0.00  0.00    -0.016 A 
ATOM      4  C   UNL A   1     -24.047  -2.677  28.737  0.00  0.00    +0.003 A 
ATOM      5  C   UNL A   1     -24.913  -3.589  29.209  0.00  0.00    +0.080 A 
ATOM      6  C   UNL A   1     -26.011  -3.225  29.869  0.00  0.00    +0.013 A 
ENDROOT
BRANCH   3   7
ATOM      7  C   UNL A   1     -23.533  -0.196  28.326  0.00  0.00    +0.069 C 
ATOM      8  C   UNL A   1     -24.016   0.730  27.495  0.00  0.00    +0.017 A 
ATOM      9  C   UNL A   1     -23.069   1.745  26.984  0.00  0.00    +0.144 A 
ATOM     10  N   UNL A   1     -21.895   1.723  27.669  0.00  0.00    -0.220 NA
ATOM     11  C   UNL A   1     -22.174   0.161  28.650  0.00  0.00    +0.123 C 
ATOM     12  N   UNL A   1     -23.267   2.777  26.210  0.00  0.00    -0.227 NA
ATOM     13  C   UNL A   1     -24.514   2.929  25.609  0.00  0.00    +0.112 A 
ATOM     14  C   UNL A   1     -25.578   2.097  25.970  0.00  0.00    +0.077 A 
ATOM     15  C   UNL A   1     -25.344   0.968  26.843  0.00  0.00    +0.012 A 
ATOM     16 CL   UNL A   1     -27.105   2.262  25.273  0.00  0.00    -0.081 Cl
ENDBRANCH   3   7
BRANCH   5  17
ATOM     17  C   UNL A   1     -24.537  -4.947  29.037  0.00  0.00    +0.388 C 
ATOM     18  O   UNL A   1     -25.140  -5.871  29.612  0.00  0.00    -0.241 OA
ATOM     19  O   UNL A   1     -23.699  -5.316  28.091  0.00  0.00    -0.241 OA
ENDBRANCH   5  17
BRANCH   1  20
ATOM     20  C   UNL A   1     -27.647  -1.764  30.681  0.00  0.00    +0.388 C 
ATOM     21  O   UNL A   1     -27.800  -1.326  31.802  0.00  0.00    -0.241 OA
ATOM     22  O   UNL A   1     -28.573  -2.406  30.084  0.00  0.00    -0.241 OA
ENDBRANCH   1  20
TORSDOF 3
ENDMDL
ENDMDL
