REMARK  Name = outputs/IAG933/test6/raw/output_2316_IAG933_linker_design_.xyz
REMARK  15 active torsions:
REMARK  status: ('A' for Active; 'I' for Inactive)
REMARK    1  A    between atoms: C_1  and  C_2
REMARK    2  A    between atoms: C_1  and  C_8
REMARK    3  A    between atoms: C_9  and  C_39
REMARK    4  A    between atoms: C_13  and  N_36
REMARK    5  A    between atoms: C_14  and  C_15
REMARK    6  A    between atoms: C_21  and  O_22
REMARK    7  A    between atoms: O_22  and  C_23
REMARK    8  A    between atoms: C_23  and  C_24
REMARK    9  A    between atoms: C_28  and  N_34
REMARK   10  A    between atoms: C_28  and  C_37
REMARK   11  A    between atoms: C_29  and  C_37
REMARK   12  A    between atoms: C_29  and  N_42
REMARK   13  A    between atoms: N_34  and  C_39
REMARK   14  A    between atoms: N_36  and  N_42
REMARK   15  A    between atoms: C_39  and  C_41
REMARK                            x       y       z     vdW  Elec       q    Type
REMARK                         _______ _______ _______ _____ _____    ______ ____
ROOT
ATOM      1  C   UNL A   1     -23.615   1.783  29.295  0.00  0.00    +0.109 C 
ENDROOT
BRANCH   1   3
ATOM      2  N   UNL A   1     -21.989  -0.012  29.543  0.00  0.00    -0.130 NA
ATOM      3  C   UNL A   1     -22.672   0.864  28.678  0.00  0.00    +0.127 C 
BRANCH   3   4
ATOM      4  C   UNL A   1     -22.078   1.446  27.335  0.00  0.00    +0.114 C 
BRANCH   4   6
ATOM      5  C   UNL A   1     -23.025   2.375  25.329  0.00  0.00    +0.113 C 
ATOM      6  N   UNL A   1     -23.325   2.012  26.685  0.00  0.00    -0.184 NA
BRANCH   6   7
ATOM      7  N   UNL A   1     -24.512   1.301  26.980  0.00  0.00    -0.161 NA
BRANCH   7   8
ATOM      8  C   UNL A   1     -25.688   1.614  26.461  0.00  0.00    +0.122 C 
ATOM      9  C   UNL A   1     -26.250   2.920  26.395  0.00  0.00    +0.093 C 
ATOM     10  C   UNL A   1     -27.438   3.091  25.645  0.00  0.00    +0.108 C 
ATOM     11  N   UNL A   1     -28.075   2.089  25.003  0.00  0.00    -0.208 NA
ATOM     12  C   UNL A   1     -27.543   0.849  25.079  0.00  0.00    +0.255 C 
ATOM     13  C   UNL A   1     -26.354   0.576  25.777  0.00  0.00    +0.209 C 
ATOM     14  F   UNL A   1     -25.860  -0.681  25.795  0.00  0.00    -0.198 F 
BRANCH   9  15
ATOM     15  C   UNL A   1     -25.642   4.093  27.123  0.00  0.00    +0.268 C 
ATOM     16  N   UNL A   1     -25.614   5.252  26.449  0.00  0.00    -0.200 NA
ATOM     17  C   UNL A   1     -25.026   6.479  26.963  0.00  0.00    +0.139 C 
ATOM     18  O   UNL A   1     -25.143   3.966  28.243  0.00  0.00    -0.268 OA
ENDBRANCH   9  15
BRANCH  12  19
ATOM     19  O   UNL A   1     -28.193  -0.208  24.477  0.00  0.00    -0.456 OA
BRANCH  19  20
ATOM     20  C   UNL A   1     -29.460   0.005  23.866  0.00  0.00    +0.243 C 
BRANCH  20  21
ATOM     21  C   UNL A   1     -30.065  -1.377  23.573  0.00  0.00    +0.229 C 
ATOM     22  O   UNL A   1     -30.729  -1.878  24.721  0.00  0.00    -0.216 OA
ENDBRANCH  20  21
ENDBRANCH  19  20
ENDBRANCH  12  19
ENDBRANCH   7   8
ENDBRANCH   6   7
ENDBRANCH   4   6
ENDBRANCH   3   4
ENDBRANCH   1   3
BRANCH   1  23
ATOM     23  N   UNL A   1     -24.139   2.061  30.352  0.00  0.00    -0.213 NA
BRANCH  23  24
ATOM     24  C   UNL A   1     -24.964   2.134  31.356  0.00  0.00    +0.096 C 
BRANCH  24  30
ATOM     25  C   UNL A   1     -26.190   6.233  31.627  0.00  0.00    +0.140 C 
ATOM     26  C   UNL A   1     -25.360   5.659  32.592  0.00  0.00    +0.029 C 
ATOM     27  F   UNL A   1     -26.297   7.578  31.602  0.00  0.00    -0.204 F 
ATOM     28  C   UNL A   1     -25.104   4.303  32.604  0.00  0.00    -0.001 C 
ATOM     29  C   UNL A   1     -26.581   3.997  30.712  0.00  0.00    -0.001 C 
ATOM     30  C   UNL A   1     -25.591   3.457  31.583  0.00  0.00    -0.006 C 
ATOM     31  C   UNL A   1     -26.820   5.404  30.661  0.00  0.00    +0.029 C 
ENDBRANCH  24  30
BRANCH  24  33
ATOM     32  C   UNL A   1     -25.387  -0.679  31.571  0.00  0.00    +0.079 C 
ATOM     33  C   UNL A   1     -25.189   0.773  32.028  0.00  0.00    +0.038 C 
ATOM     34  C   UNL A   1     -25.336   0.684  33.544  0.00  0.00    +0.022 C 
ATOM     35  C   UNL A   1     -24.829  -0.715  33.905  0.00  0.00    +0.089 C 
ATOM     36  N   UNL A   1     -24.758  -1.481  32.646  0.00  0.00    -0.219 NA
BRANCH  32  37
ATOM     37  C   UNL A   1     -24.855  -1.012  30.143  0.00  0.00    +0.044 C 
BRANCH  37  38
ATOM     38  C   UNL A   1     -24.973  -2.505  29.788  0.00  0.00    -0.021 C 
ATOM     39  C   UNL A   1     -23.906  -3.173  29.146  0.00  0.00    -0.004 C 
ATOM     40  C   UNL A   1     -23.989  -4.549  28.853  0.00  0.00    -0.000 C 
ATOM     41  C   UNL A   1     -25.137  -5.280  29.205  0.00  0.00    -0.000 C 
ATOM     42  C   UNL A   1     -26.232  -4.611  29.784  0.00  0.00    -0.000 C 
ATOM     43  C   UNL A   1     -26.155  -3.232  30.065  0.00  0.00    -0.004 C 
ENDBRANCH  37  38
ENDBRANCH  32  37
ENDBRANCH  24  33
ENDBRANCH  23  24
ENDBRANCH   1  23
TORSDOF 15
