MODEL 2316
MODEL 1
REMARK VINA RESULT:    -7.222      0.000      0.000
REMARK INTER + INTRA:          -8.764
REMARK INTER:                  -8.489
REMARK INTRA:                  -0.275
REMARK UNBOUND:                -0.275
REMARK  Name = No_2316-gen_results/8p0m/2024-11-27-11-27-31/
REMARK  3 active torsions:
REMARK  status: ('A' for Active; 'I' for Inactive)
REMARK    1  A    between atoms: C_2  and  O_7
REMARK    2  A    between atoms: O_7  and  C_8
REMARK    3  A    between atoms: C_13  and  C_15
REMARK                            x       y       z     vdW  Elec       q    Type
REMARK                         _______ _______ _______ _____ _____    ______ ____
ROOT
ATOM      1  C   UNL A   1     -24.011  -0.241  28.901  0.00  0.00    +0.145 A 
ATOM      2  C   UNL A   1     -22.835   0.011  29.487  0.00  0.00    +0.037 A 
ATOM      3  C   UNL A   1     -21.841   0.814  28.794  0.00  0.00    +0.003 A 
ATOM      4  C   UNL A   1     -22.227   1.391  27.537  0.00  0.00    +0.004 A 
ATOM      5  C   UNL A   1     -23.442   1.102  26.980  0.00  0.00    +0.074 A 
ATOM      6  C   UNL A   1     -24.317   0.235  27.584  0.00  0.00    +0.041 A 
ENDROOT
BRANCH   5   7
ATOM      7  C   UNL A   1     -23.762   1.732  25.650  0.00  0.00    +0.419 C 
ATOM      8  F   UNL A   1     -23.968   1.001  24.842  0.00  0.00    -0.166 F 
ATOM      9  F   UNL A   1     -24.823   2.529  25.822  0.00  0.00    -0.166 F 
ATOM     10  F   UNL A   1     -22.655   2.492  25.323  0.00  0.00    -0.166 F 
ENDBRANCH   5   7
BRANCH   1  11
ATOM     11  O   UNL A   1     -24.682  -1.102  29.489  0.00  0.00    -0.454 OA
BRANCH  11  13
ATOM     12  C   UNL A   1     -23.873  -2.956  28.767  0.00  0.00    +0.040 A 
ATOM     13  C   UNL A   1     -24.694  -2.559  29.294  0.00  0.00    +0.145 A 
ATOM     14  C   UNL A   1     -23.890  -4.456  28.570  0.00  0.00    +0.033 A 
ATOM     15  C   UNL A   1     -25.030  -5.191  28.959  0.00  0.00    +0.140 A 
ATOM     16  C   UNL A   1     -25.996  -3.085  29.764  0.00  0.00    +0.040 A 
ATOM     17  C   UNL A   1     -26.051  -4.461  29.594  0.00  0.00    +0.033 A 
ATOM     18  F   UNL A   1     -25.056  -6.473  28.834  0.00  0.00    -0.204 F 
ENDBRANCH  11  13
ENDBRANCH   1  11
TORSDOF 3
ENDMDL
ENDMDL
