MODEL 2317
MODEL 1
REMARK VINA RESULT:    -5.110      0.000      0.000
REMARK INTER + INTRA:          -5.580
REMARK INTER:                  -5.408
REMARK INTRA:                  -0.172
REMARK UNBOUND:                -0.172
REMARK  Name = No_2317-gen_results/8p0m/2024-11-27-11-27-31/
REMARK  1 active torsions:
REMARK  status: ('A' for Active; 'I' for Inactive)
REMARK    1  A    between atoms: C_5  and  C_7
REMARK                            x       y       z     vdW  Elec       q    Type
REMARK                         _______ _______ _______ _____ _____    ______ ____
ROOT
ATOM      1  C   UNL A   1     -24.630  -5.259  28.972  0.00  0.00    -0.000 A 
ATOM      2  C   UNL A   1     -25.748  -5.158  29.421  0.00  0.00    -0.000 A 
ATOM      3  C   UNL A   1     -26.359  -3.968  29.778  0.00  0.00    -0.000 A 
ATOM      4  C   UNL A   1     -25.616  -2.769  29.569  0.00  0.00    -0.001 A 
ATOM      5  C   UNL A   1     -24.436  -2.906  28.930  0.00  0.00    +0.021 A 
ATOM      6  C   UNL A   1     -23.977  -4.100  28.549  0.00  0.00    -0.001 A 
ENDROOT
BRANCH   5   7
ATOM      7  C   UNL A   1     -23.808  -1.527  28.808  0.00  0.00    +0.239 C 
ATOM      8 BR   UNL A   1     -24.307  -0.638  28.500  0.00  0.00    -0.038 Br
ATOM      9  F   UNL A   1     -22.462  -1.722  28.945  0.00  0.00    -0.220 F 
ENDBRANCH   5   7
TORSDOF 1
ENDMDL
ENDMDL
