MODEL 2318
MODEL 1
REMARK VINA RESULT:    -6.339      0.000      0.000
REMARK INTER + INTRA:         -13.189
REMARK INTER:                 -10.415
REMARK INTRA:                  -2.774
REMARK UNBOUND:                -2.774
REMARK  Name = No_2318-gen_results/8p0m/2024-11-27-11-27-31/
REMARK  11 active torsions:
REMARK  status: ('A' for Active; 'I' for Inactive)
REMARK    1  A    between atoms: C_1  and  C_14
REMARK    2  A    between atoms: C_3  and  C_11
REMARK    3  A    between atoms: C_5  and  C_7
REMARK    4  A    between atoms: C_11  and  O_12
REMARK    5  A    between atoms: O_12  and  C_17
REMARK    6  A    between atoms: C_17  and  C_18
REMARK    7  A    between atoms: C_18  and  O_20
REMARK    8  A    between atoms: O_20  and  C_21
REMARK    9  A    between atoms: C_21  and  C_22
REMARK   10  A    between atoms: C_24  and  N_28
REMARK   11  A    between atoms: N_28  and  C_29
REMARK                            x       y       z     vdW  Elec       q    Type
REMARK                         _______ _______ _______ _____ _____    ______ ____
ROOT
ATOM      1  C   UNL A   1     -26.995   0.021  29.036  0.00  0.00    +0.342 C 
ATOM      2  O   UNL A   1     -28.040  -0.296  28.435  0.00  0.00    -0.245 OA
ENDROOT
BRANCH   1   5
ATOM      3  C   UNL A   1     -24.701  -2.838  29.084  0.00  0.00    +0.080 A 
ATOM      4  C   UNL A   1     -25.704  -2.170  28.986  0.00  0.00    +0.013 A 
ATOM      5  C   UNL A   1     -25.703  -0.789  28.966  0.00  0.00    +0.076 A 
ATOM      6  C   UNL A   1     -24.448  -0.122  29.024  0.00  0.00    +0.010 A 
ATOM      7  C   UNL A   1     -23.351  -0.911  28.959  0.00  0.00    +0.072 A 
ATOM      8  C   UNL A   1     -23.447  -2.227  28.940  0.00  0.00    +0.010 A 
BRANCH   7   9
ATOM      9  C   UNL A   1     -22.056  -0.199  28.990  0.00  0.00    +0.419 C 
ATOM     10  F   UNL A   1     -21.952   0.516  29.904  0.00  0.00    -0.166 F 
ATOM     11  F   UNL A   1     -21.084  -1.127  28.931  0.00  0.00    -0.166 F 
ATOM     12  F   UNL A   1     -21.902   0.547  27.844  0.00  0.00    -0.166 F 
ENDBRANCH   7   9
BRANCH   3  13
ATOM     13  C   UNL A   1     -24.744  -4.350  29.048  0.00  0.00    +0.388 C 
ATOM     14  O   UNL A   1     -25.841  -4.875  29.378  0.00  0.00    -0.241 OA
ATOM     15  O   UNL A   1     -23.827  -5.036  28.517  0.00  0.00    -0.241 OA
ENDBRANCH   3  13
ENDBRANCH   1   5
BRANCH   1  16
ATOM     16  O   UNL A   1     -26.915   1.014  29.767  0.00  0.00    -0.433 OA
BRANCH  16  17
ATOM     17  C   UNL A   1     -27.420   2.131  29.561  0.00  0.00    +0.317 C 
BRANCH  17  18
ATOM     18  C   UNL A   1     -26.454   3.117  29.021  0.00  0.00    +0.362 C 
ATOM     19  O   UNL A   1     -25.401   3.230  29.506  0.00  0.00    -0.246 OA
BRANCH  18  20
ATOM     20  O   UNL A   1     -26.693   3.553  27.787  0.00  0.00    -0.441 OA
BRANCH  20  21
ATOM     21  C   UNL A   1     -25.683   3.471  26.818  0.00  0.00    +0.235 C 
BRANCH  21  22
ATOM     22  C   UNL A   1     -25.805   2.174  26.049  0.00  0.00    +0.022 A 
ATOM     23  C   UNL A   1     -27.120   1.791  25.709  0.00  0.00    +0.015 A 
ATOM     24  C   UNL A   1     -27.196   0.459  25.112  0.00  0.00    +0.067 A 
ATOM     25  C   UNL A   1     -25.945  -0.228  24.834  0.00  0.00    +0.016 A 
ATOM     26  C   UNL A   1     -24.699   0.275  25.160  0.00  0.00    +0.001 A 
ATOM     27  C   UNL A   1     -24.629   1.493  25.855  0.00  0.00    -0.001 A 
BRANCH  24  28
ATOM     28  N   UNL A   1     -28.349  -0.044  24.812  0.00  0.00    -0.217 NA
BRANCH  28  29
ATOM     29  C   UNL A   1     -28.807  -0.550  23.684  0.00  0.00    +0.221 C 
ATOM     30  N   UNL A   1     -29.797  -1.450  23.814  0.00  0.00    -0.106 NA
ENDBRANCH  28  29
ENDBRANCH  24  28
ENDBRANCH  21  22
ENDBRANCH  20  21
ENDBRANCH  18  20
ENDBRANCH  17  18
ENDBRANCH  16  17
ENDBRANCH   1  16
TORSDOF 11
ENDMDL
ENDMDL
