MODEL 231
MODEL 1
REMARK VINA RESULT:    -6.942      0.000      0.000
REMARK INTER + INTRA:         -14.071
REMARK INTER:                 -10.595
REMARK INTRA:                  -3.477
REMARK UNBOUND:                -3.477
REMARK  Name = No_231-gen_results/8p0m/2024-11-27-11-27-31/
REMARK  9 active torsions:
REMARK  status: ('A' for Active; 'I' for Inactive)
REMARK    1  A    between atoms: C_2  and  C_11
REMARK    2  A    between atoms: C_3  and  C_7
REMARK    3  A    between atoms: C_6  and  C_14
REMARK    4  A    between atoms: C_14  and  O_16
REMARK    5  A    between atoms: O_16  and  C_17
REMARK    6  A    between atoms: C_17  and  C_18
REMARK    7  A    between atoms: C_18  and  C_19
REMARK    8  A    between atoms: N_21  and  C_22
REMARK    9  A    between atoms: C_26  and  C_27
REMARK                            x       y       z     vdW  Elec       q    Type
REMARK                         _______ _______ _______ _____ _____    ______ ____
ROOT
ATOM      1  C   UNL A   1     -34.091 -11.464   9.073  0.00  0.00    +0.272 C 
ATOM      2  O   UNL A   1     -35.236 -11.838   9.541  0.00  0.00    -0.282 OA
ENDROOT
BRANCH   1   3
ATOM      3  C   UNL A   1     -33.505 -10.352   8.961  0.00  0.00    +0.308 C 
ATOM      4  O   UNL A   1     -33.774  -9.489   8.350  0.00  0.00    -0.265 OA
ATOM      5  N   UNL A   1     -32.509 -10.172  10.014  0.00  0.00    -0.173 NA
BRANCH   5   6
ATOM      6  C   UNL A   1     -31.643  -8.974  10.066  0.00  0.00    +0.074 A 
ATOM      7  C   UNL A   1     -31.813  -8.064  10.504  0.00  0.00    +0.017 A 
ATOM      8  C   UNL A   1     -30.962  -6.898  10.506  0.00  0.00    +0.001 A 
ATOM      9  C   UNL A   1     -30.390  -9.330   9.426  0.00  0.00    +0.015 A 
ATOM     10  C   UNL A   1     -29.717  -7.184   9.935  0.00  0.00    +0.000 A 
ATOM     11  C   UNL A   1     -29.409  -8.364   9.416  0.00  0.00    +0.001 A 
BRANCH   9  12
ATOM     12  C   UNL A   1     -30.056 -10.616   8.803  0.00  0.00    -0.003 A 
ATOM     13  C   UNL A   1     -29.902 -10.599   7.480  0.00  0.00    -0.000 A 
ATOM     14  C   UNL A   1     -29.306 -11.752   6.797  0.00  0.00    -0.000 A 
ATOM     15  C   UNL A   1     -28.699 -12.747   7.620  0.00  0.00    -0.000 A 
ATOM     16  C   UNL A   1     -28.713 -12.630   8.979  0.00  0.00    -0.004 A 
ATOM     17  C   UNL A   1     -29.384 -11.563   9.590  0.00  0.00    -0.022 A 
ATOM     18  C   UNL A   1     -29.350 -11.462  11.037  0.00  0.00    +0.031 C 
ENDBRANCH   9  12
ENDBRANCH   5   6
ENDBRANCH   1   3
BRANCH   1  19
ATOM     19  C   UNL A   1     -33.152 -12.574   8.905  0.00  0.00    +0.282 C 
BRANCH  19  20
ATOM     20  O   UNL A   1     -33.300 -13.672   9.665  0.00  0.00    -0.437 OA
BRANCH  20  21
ATOM     21  C   UNL A   1     -32.918 -14.863   9.081  0.00  0.00    +0.342 C 
ATOM     22  O   UNL A   1     -33.676 -15.464   8.558  0.00  0.00    -0.245 OA
BRANCH  21  28
ATOM     23  C   UNL A   1     -29.157 -16.001  10.654  0.00  0.00    +0.010 A 
ATOM     24  C   UNL A   1     -29.909 -15.579  11.260  0.00  0.00    +0.080 A 
ATOM     25  C   UNL A   1     -29.436 -16.169   9.280  0.00  0.00    +0.072 A 
ATOM     26  C   UNL A   1     -30.651 -15.810   8.731  0.00  0.00    +0.010 A 
ATOM     27  C   UNL A   1     -31.271 -15.115  10.932  0.00  0.00    +0.013 A 
ATOM     28  C   UNL A   1     -31.579 -15.259   9.624  0.00  0.00    +0.076 A 
BRANCH  25  29
ATOM     29  C   UNL A   1     -28.436 -16.712   8.297  0.00  0.00    +0.419 C 
ATOM     30  F   UNL A   1     -27.880 -17.520   8.628  0.00  0.00    -0.166 F 
ATOM     31  F   UNL A   1     -27.534 -15.726   7.836  0.00  0.00    -0.166 F 
ATOM     32  F   UNL A   1     -29.167 -16.989   7.079  0.00  0.00    -0.166 F 
ENDBRANCH  25  29
BRANCH  24  33
ATOM     33  C   UNL A   1     -29.602 -15.257  12.820  0.00  0.00    +0.388 C 
ATOM     34  O   UNL A   1     -28.779 -15.828  13.398  0.00  0.00    -0.241 OA
ATOM     35  O   UNL A   1     -29.912 -14.120  13.229  0.00  0.00    -0.241 OA
ENDBRANCH  24  33
ENDBRANCH  21  28
ENDBRANCH  20  21
ENDBRANCH  19  20
ENDBRANCH   1  19
TORSDOF 9
ENDMDL
ENDMDL
