REMARK  Name = outputs/IAG933/test6/raw/output_2320_IAG933_linker_design_.xyz
REMARK  13 active torsions:
REMARK  status: ('A' for Active; 'I' for Inactive)
REMARK    1  A    between atoms: C_1  and  C_2
REMARK    2  A    between atoms: C_1  and  C_8
REMARK    3  A    between atoms: C_1  and  C_34
REMARK    4  A    between atoms: C_13  and  C_33
REMARK    5  A    between atoms: C_14  and  C_15
REMARK    6  A    between atoms: C_21  and  O_22
REMARK    7  A    between atoms: O_22  and  C_23
REMARK    8  A    between atoms: C_23  and  C_24
REMARK    9  A    between atoms: C_34  and  C_39
REMARK   10  A    between atoms: C_34  and  C_42
REMARK   11  A    between atoms: N_35  and  C_38
REMARK   12  A    between atoms: C_37  and  C_40
REMARK   13  A    between atoms: C_38  and  C_40
REMARK                            x       y       z     vdW  Elec       q    Type
REMARK                         _______ _______ _______ _____ _____    ______ ____
ROOT
ATOM      1  C   UNL A   1     -25.362  -0.148  29.005  0.00  0.00    +0.107 C 
ENDROOT
BRANCH   1   7
ATOM      2  C   UNL A   1     -23.192   1.692  26.691  0.00  0.00    +0.041 C 
ATOM      3 CL   UNL A   1     -22.822   2.501  25.190  0.00  0.00    -0.086 Cl
ATOM      4  C   UNL A   1     -22.200   1.319  27.660  0.00  0.00    +0.082 C 
ATOM      5  C   UNL A   1     -24.451   1.285  27.078  0.00  0.00    +0.007 C 
ATOM      6  C   UNL A   1     -22.905   0.583  28.578  0.00  0.00    +0.069 C 
ATOM      7  C   UNL A   1     -24.288   0.538  28.261  0.00  0.00    +0.000 C 
ATOM      8  N   UNL A   1     -22.348  -0.049  29.705  0.00  0.00    -0.133 NA
BRANCH   5   9
ATOM      9  C   UNL A   1     -25.688   1.614  26.461  0.00  0.00    +0.038 C 
ATOM     10  C   UNL A   1     -26.250   2.920  26.395  0.00  0.00    +0.076 C 
ATOM     11  C   UNL A   1     -27.438   3.091  25.645  0.00  0.00    +0.107 C 
ATOM     12  N   UNL A   1     -28.075   2.089  25.003  0.00  0.00    -0.208 NA
ATOM     13  C   UNL A   1     -27.543   0.849  25.079  0.00  0.00    +0.253 C 
ATOM     14  C   UNL A   1     -26.354   0.576  25.777  0.00  0.00    +0.193 C 
ATOM     15  F   UNL A   1     -25.860  -0.681  25.795  0.00  0.00    -0.199 F 
BRANCH  10  16
ATOM     16  C   UNL A   1     -25.642   4.093  27.123  0.00  0.00    +0.266 C 
ATOM     17  N   UNL A   1     -25.614   5.252  26.449  0.00  0.00    -0.200 NA
ATOM     18  C   UNL A   1     -25.026   6.479  26.963  0.00  0.00    +0.139 C 
ATOM     19  O   UNL A   1     -25.143   3.966  28.243  0.00  0.00    -0.268 OA
ENDBRANCH  10  16
BRANCH  13  20
ATOM     20  O   UNL A   1     -28.193  -0.208  24.477  0.00  0.00    -0.456 OA
BRANCH  20  21
ATOM     21  C   UNL A   1     -29.460   0.005  23.866  0.00  0.00    +0.243 C 
BRANCH  21  22
ATOM     22  C   UNL A   1     -30.065  -1.377  23.573  0.00  0.00    +0.229 C 
ATOM     23  O   UNL A   1     -30.729  -1.878  24.721  0.00  0.00    -0.216 OA
ENDBRANCH  21  22
ENDBRANCH  20  21
ENDBRANCH  13  20
ENDBRANCH   5   9
ENDBRANCH   1   7
BRANCH   1  25
ATOM     24  N   UNL A   1     -27.715   0.449  29.649  0.00  0.00    -0.206 NA
ATOM     25  C   UNL A   1     -26.928  -0.234  28.856  0.00  0.00    +0.245 C 
ATOM     26  O   UNL A   1     -27.426  -1.030  28.098  0.00  0.00    -0.273 OA
BRANCH  24  27
ATOM     27  C   UNL A   1     -29.097   0.808  29.225  0.00  0.00    +0.104 C 
ATOM     28  C   UNL A   1     -29.684   1.226  27.834  0.00  0.00    +0.024 C 
BRANCH  27  29
ATOM     29  C   UNL A   1     -29.577   1.987  30.059  0.00  0.00    +0.108 C 
BRANCH  29  33
ATOM     30  N   UNL A   1     -28.364   2.517  32.060  0.00  0.00    -0.203 NA
ATOM     31  O   UNL A   1     -27.420   3.065  30.130  0.00  0.00    -0.273 OA
ATOM     32  C   UNL A   1     -28.776   3.885  32.545  0.00  0.00    +0.139 C 
ATOM     33  C   UNL A   1     -28.338   2.521  30.752  0.00  0.00    +0.243 C 
ENDBRANCH  29  33
ENDBRANCH  27  29
ENDBRANCH  24  27
ENDBRANCH   1  25
BRANCH   1  34
ATOM     34  C   UNL A   1     -24.855  -1.012  30.143  0.00  0.00    +0.051 C 
BRANCH  34  35
ATOM     35  C   UNL A   1     -24.973  -2.505  29.788  0.00  0.00    -0.020 C 
ATOM     36  C   UNL A   1     -23.906  -3.173  29.146  0.00  0.00    -0.004 C 
ATOM     37  C   UNL A   1     -23.989  -4.549  28.853  0.00  0.00    -0.000 C 
ATOM     38  C   UNL A   1     -25.137  -5.280  29.205  0.00  0.00    -0.000 C 
ATOM     39  C   UNL A   1     -26.232  -4.611  29.784  0.00  0.00    -0.000 C 
ATOM     40  C   UNL A   1     -26.155  -3.232  30.065  0.00  0.00    -0.004 C 
ENDBRANCH  34  35
BRANCH  34  41
ATOM     41  C   UNL A   1     -25.387  -0.679  31.571  0.00  0.00    +0.078 C 
ATOM     42  C   UNL A   1     -25.189   0.773  32.028  0.00  0.00    +0.019 C 
ATOM     43  C   UNL A   1     -25.336   0.684  33.544  0.00  0.00    +0.020 C 
ATOM     44  C   UNL A   1     -24.829  -0.715  33.905  0.00  0.00    +0.089 C 
ATOM     45  N   UNL A   1     -24.758  -1.481  32.646  0.00  0.00    -0.219 NA
ENDBRANCH  34  41
ENDBRANCH   1  34
TORSDOF 13
