MODEL 2321
MODEL 1
REMARK VINA RESULT:    -3.444      0.000      0.000
REMARK INTER + INTRA:          -3.976
REMARK INTER:                  -3.847
REMARK INTRA:                  -0.129
REMARK UNBOUND:                -0.129
REMARK  Name = No_2321-gen_results/8p0m/2024-11-27-11-27-31/
REMARK  2 active torsions:
REMARK  status: ('A' for Active; 'I' for Inactive)
REMARK    1  A    between atoms: C_1  and  C_2
REMARK    2  A    between atoms: C_3  and  C_4
REMARK                            x       y       z     vdW  Elec       q    Type
REMARK                         _______ _______ _______ _____ _____    ______ ____
ROOT
ATOM      1  C   UNL A   1     -24.606  -3.148  29.737  0.00  0.00    -0.026 C 
ATOM      2  C   UNL A   1     -24.080  -1.879  29.886  0.00  0.00    -0.005 C 
ENDROOT
BRANCH   1   3
ATOM      3  C   UNL A   1     -24.222  -3.939  28.908  0.00  0.00    +0.026 C 
ATOM      4  C   UNL A   1     -24.729  -5.268  28.905  0.00  0.00    +0.005 C 
ENDBRANCH   1   3
BRANCH   2   5
ATOM      5  C   UNL A   1     -23.056  -1.472  28.985  0.00  0.00    -0.000 C 
ATOM      6  C   UNL A   1     -22.035  -0.689  29.365  0.00  0.00    -0.000 C 
ENDBRANCH   2   5
TORSDOF 2
ENDMDL
ENDMDL
