MODEL 2322
MODEL 1
REMARK VINA RESULT:    -6.566      0.000      0.000
REMARK INTER + INTRA:          -7.312
REMARK INTER:                  -6.949
REMARK INTRA:                  -0.362
REMARK UNBOUND:                -0.362
REMARK  Name = No_2322-gen_results/8p0m/2024-11-27-11-27-31/
REMARK  1 active torsions:
REMARK  status: ('A' for Active; 'I' for Inactive)
REMARK    1  A    between atoms: C_3  and  C_4
REMARK                            x       y       z     vdW  Elec       q    Type
REMARK                         _______ _______ _______ _____ _____    ______ ____
ROOT
ATOM      1  C   UNL A   1     -23.941  -3.973  28.593  0.00  0.00    +0.000 A 
ATOM      2  C   UNL A   1     -24.420  -4.848  28.932  0.00  0.00    +0.000 A 
ATOM      3  C   UNL A   1     -24.539  -2.730  28.988  0.00  0.00    +0.000 A 
ATOM      4  C   UNL A   1     -25.754  -5.025  29.487  0.00  0.00    +0.000 A 
ATOM      5  C   UNL A   1     -26.368  -3.872  29.823  0.00  0.00    +0.000 A 
ATOM      6  C   UNL A   1     -25.750  -2.644  29.607  0.00  0.00    +0.000 A 
ENDROOT
BRANCH   3   7
ATOM      7  C   UNL A   1     -23.848  -1.446  28.752  0.00  0.00    +0.000 A 
ATOM      8  C   UNL A   1     -22.579  -1.218  29.143  0.00  0.00    +0.000 A 
ATOM      9  C   UNL A   1     -24.434  -0.419  27.920  0.00  0.00    +0.000 A 
ATOM     10  C   UNL A   1     -23.727   0.665  27.496  0.00  0.00    +0.000 A 
ATOM     11  C   UNL A   1     -21.872   0.031  28.924  0.00  0.00    +0.000 A 
ATOM     12  C   UNL A   1     -22.522   0.937  28.055  0.00  0.00    +0.000 A 
ENDBRANCH   3   7
TORSDOF 1
ENDMDL
ENDMDL
