MODEL 2323
MODEL 1
REMARK VINA RESULT:    -4.290      0.000      0.000
REMARK INTER + INTRA:          -4.290
REMARK INTER:                  -4.290
REMARK INTRA:                   0.000
REMARK UNBOUND:                 0.000
REMARK  Name = No_2323-gen_results/8p0m/2024-11-27-11-27-31/
REMARK  0 active torsions:
REMARK  status: ('A' for Active; 'I' for Inactive)
REMARK                            x       y       z     vdW  Elec       q    Type
REMARK                         _______ _______ _______ _____ _____    ______ ____
ROOT
ATOM      1  C   UNL A   1     -24.958  -5.373  28.970  0.00  0.00    +0.000 A 
ATOM      2  C   UNL A   1     -24.189  -4.694  28.728  0.00  0.00    +0.000 A 
ATOM      3  C   UNL A   1     -26.119  -4.744  29.599  0.00  0.00    +0.000 A 
ATOM      4  C   UNL A   1     -26.183  -3.391  29.824  0.00  0.00    +0.000 A 
ATOM      5  C   UNL A   1     -23.986  -3.250  28.841  0.00  0.00    +0.000 A 
ATOM      6  C   UNL A   1     -25.104  -2.631  29.449  0.00  0.00    +0.000 A 
ENDROOT
TORSDOF 0
ENDMDL
ENDMDL
