REMARK  Name = outputs/IAG933/test6/raw/output_2324_IAG933_linker_design_.xyz
REMARK  13 active torsions:
REMARK  status: ('A' for Active; 'I' for Inactive)
REMARK    1  A    between atoms: C_1  and  C_2
REMARK    2  A    between atoms: C_1  and  C_8
REMARK    3  A    between atoms: C_9  and  S_29
REMARK    4  A    between atoms: C_13  and  N_37
REMARK    5  A    between atoms: C_14  and  C_15
REMARK    6  A    between atoms: C_21  and  O_22
REMARK    7  A    between atoms: O_22  and  C_23
REMARK    8  A    between atoms: C_23  and  C_24
REMARK    9  A    between atoms: O_28  and  C_33
REMARK   10  A    between atoms: S_29  and  N_36
REMARK   11  A    between atoms: S_29  and  C_42
REMARK   12  A    between atoms: C_31  and  N_36
REMARK   13  A    between atoms: C_33  and  C_42
REMARK                            x       y       z     vdW  Elec       q    Type
REMARK                         _______ _______ _______ _____ _____    ______ ____
ROOT
ATOM      1 CL   UNL A   1     -22.843   2.179  25.131  0.00  0.00    -0.090 Cl
ATOM      2  C   UNL A   1     -24.373   1.668  28.675  0.00  0.00    +0.164 C 
ATOM      3  C   UNL A   1     -22.371   1.857  27.747  0.00  0.00    +0.198 C 
ATOM      4  F   UNL A   1     -21.043   1.658  27.531  0.00  0.00    -0.234 F 
ATOM      5  N   UNL A   1     -24.502   1.484  27.309  0.00  0.00    -0.279 N 
ATOM      6  C   UNL A   1     -22.899   1.854  28.881  0.00  0.00    +0.077 C 
ATOM      7  C   UNL A   1     -23.249   1.810  26.876  0.00  0.00    +0.188 C 
ENDROOT
BRANCH   5   8
ATOM      8  C   UNL A   1     -25.688   1.614  26.461  0.00  0.00    +0.088 C 
ATOM      9  C   UNL A   1     -26.250   2.920  26.395  0.00  0.00    +0.090 C 
ATOM     10  C   UNL A   1     -27.438   3.091  25.645  0.00  0.00    +0.108 C 
ATOM     11  N   UNL A   1     -28.075   2.089  25.003  0.00  0.00    -0.208 NA
ATOM     12  C   UNL A   1     -27.543   0.849  25.079  0.00  0.00    +0.255 C 
ATOM     13  C   UNL A   1     -26.354   0.576  25.777  0.00  0.00    +0.206 C 
ATOM     14  F   UNL A   1     -25.860  -0.681  25.795  0.00  0.00    -0.198 F 
BRANCH   9  15
ATOM     15  C   UNL A   1     -25.642   4.093  27.123  0.00  0.00    +0.268 C 
ATOM     16  N   UNL A   1     -25.614   5.252  26.449  0.00  0.00    -0.200 NA
ATOM     17  C   UNL A   1     -25.026   6.479  26.963  0.00  0.00    +0.139 C 
ATOM     18  O   UNL A   1     -25.143   3.966  28.243  0.00  0.00    -0.268 OA
ENDBRANCH   9  15
BRANCH  12  19
ATOM     19  O   UNL A   1     -28.193  -0.208  24.477  0.00  0.00    -0.456 OA
BRANCH  19  20
ATOM     20  C   UNL A   1     -29.460   0.005  23.866  0.00  0.00    +0.243 C 
BRANCH  20  21
ATOM     21  C   UNL A   1     -30.065  -1.377  23.573  0.00  0.00    +0.229 C 
ATOM     22  O   UNL A   1     -30.729  -1.878  24.721  0.00  0.00    -0.216 OA
ENDBRANCH  20  21
ENDBRANCH  19  20
ENDBRANCH  12  19
ENDBRANCH   5   8
BRANCH   2  23
ATOM     23  N   UNL A   1     -24.860   2.090  29.747  0.00  0.00    -0.136 NA
BRANCH  23  24
ATOM     24  S   UNL A   1     -25.618   2.000  30.944  0.00  0.00    +0.002 S 
ATOM     25  O   UNL A   1     -27.038   1.971  30.502  0.00  0.00    -0.155 OA
BRANCH  24  27
ATOM     26  C   UNL A   1     -25.387  -0.679  31.571  0.00  0.00    +0.089 C 
ATOM     27  C   UNL A   1     -25.189   0.773  32.028  0.00  0.00    +0.090 C 
ATOM     28  C   UNL A   1     -25.336   0.684  33.544  0.00  0.00    +0.033 C 
ATOM     29  C   UNL A   1     -24.829  -0.715  33.905  0.00  0.00    +0.090 C 
ATOM     30  N   UNL A   1     -24.758  -1.481  32.646  0.00  0.00    -0.218 NA
BRANCH  26  31
ATOM     31  C   UNL A   1     -24.855  -1.012  30.143  0.00  0.00    +0.045 C 
BRANCH  31  32
ATOM     32  C   UNL A   1     -24.973  -2.505  29.788  0.00  0.00    -0.021 C 
ATOM     33  C   UNL A   1     -23.906  -3.173  29.146  0.00  0.00    -0.004 C 
ATOM     34  C   UNL A   1     -23.989  -4.549  28.853  0.00  0.00    -0.000 C 
ATOM     35  C   UNL A   1     -25.137  -5.280  29.205  0.00  0.00    -0.000 C 
ATOM     36  C   UNL A   1     -26.232  -4.611  29.784  0.00  0.00    -0.000 C 
ATOM     37  C   UNL A   1     -26.155  -3.232  30.065  0.00  0.00    -0.004 C 
ENDBRANCH  31  32
ENDBRANCH  26  31
ENDBRANCH  24  27
BRANCH  24  38
ATOM     38  C   UNL A   1     -25.323   3.556  31.645  0.00  0.00    +0.169 C 
BRANCH  38  39
ATOM     39  C   UNL A   1     -25.996   3.685  32.953  0.00  0.00    +0.233 C 
ATOM     40  N   UNL A   1     -25.403   4.138  33.926  0.00  0.00    -0.111 NA
BRANCH  39  41
ATOM     41  O   UNL A   1     -27.332   3.234  33.101  0.00  0.00    -0.458 OA
ATOM     42  C   UNL A   1     -28.054   4.497  33.143  0.00  0.00    +0.254 C 
ENDBRANCH  39  41
ENDBRANCH  38  39
ENDBRANCH  24  38
ENDBRANCH  23  24
ENDBRANCH   2  23
TORSDOF 13
