MODEL 2324
MODEL 1
REMARK VINA RESULT:    -3.520      0.000      0.000
REMARK INTER + INTRA:          -3.809
REMARK INTER:                  -3.726
REMARK INTRA:                  -0.083
REMARK UNBOUND:                -0.083
REMARK  Name = No_2324-gen_results/8p0m/2024-11-27-11-27-31/
REMARK  1 active torsions:
REMARK  status: ('A' for Active; 'I' for Inactive)
REMARK    1  A    between atoms: C_3  and  C_4
REMARK                            x       y       z     vdW  Elec       q    Type
REMARK                         _______ _______ _______ _____ _____    ______ ____
ROOT
ATOM      1 CL   UNL A   1     -26.033  -4.879  29.650  0.00  0.00    -0.081 Cl
ATOM      2  C   UNL A   1     -24.977  -5.272  29.176  0.00  0.00    +0.068 C 
ATOM      3  C   UNL A   1     -24.159  -4.336  28.621  0.00  0.00    +0.012 C 
ENDROOT
BRANCH   3   4
ATOM      4  C   UNL A   1     -24.453  -2.927  28.565  0.00  0.00    -0.004 C 
ATOM      5  C   UNL A   1     -23.373  -2.117  29.113  0.00  0.00    -0.026 C 
ATOM      6  C   UNL A   1     -23.600  -0.662  29.110  0.00  0.00    +0.031 C 
ENDBRANCH   3   4
TORSDOF 1
ENDMDL
ENDMDL
