MODEL 2325
MODEL 1
REMARK VINA RESULT:    -6.356      0.000      0.000
REMARK INTER + INTRA:          -6.356
REMARK INTER:                  -6.356
REMARK INTRA:                   0.000
REMARK UNBOUND:                 0.000
REMARK  Name = No_2325-gen_results/8p0m/2024-11-27-11-27-31/
REMARK  0 active torsions:
REMARK  status: ('A' for Active; 'I' for Inactive)
REMARK                            x       y       z     vdW  Elec       q    Type
REMARK                         _______ _______ _______ _____ _____    ______ ____
ROOT
ATOM      1  C   UNL A   1     -24.151   1.764  25.639  0.00  0.00    +0.000 A 
ATOM      2  C   UNL A   1     -24.563   0.886  26.361  0.00  0.00    +0.000 A 
ATOM      3  C   UNL A   1     -23.797   0.406  27.418  0.00  0.00    +0.000 A 
ATOM      4  C   UNL A   1     -22.468   0.907  27.657  0.00  0.00    +0.000 A 
ATOM      5  C   UNL A   1     -21.645   0.494  28.659  0.00  0.00    +0.000 A 
ATOM      6  C   UNL A   1     -22.798   2.275  25.696  0.00  0.00    +0.000 A 
ATOM      7  C   UNL A   1     -21.972   1.870  26.722  0.00  0.00    +0.000 A 
ATOM      8  C   UNL A   1     -22.037  -0.757  29.424  0.00  0.00    +0.000 A 
ATOM      9  C   UNL A   1     -23.405  -1.234  29.250  0.00  0.00    +0.000 A 
ATOM     10  C   UNL A   1     -24.228  -0.708  28.261  0.00  0.00    +0.000 A 
ATOM     11  C   UNL A   1     -25.543  -1.296  28.200  0.00  0.00    +0.000 A 
ATOM     12  C   UNL A   1     -26.217  -1.611  29.386  0.00  0.00    +0.000 A 
ATOM     13  C   UNL A   1     -25.357  -2.269  30.393  0.00  0.00    +0.000 A 
ATOM     14  C   UNL A   1     -23.936  -2.017  30.383  0.00  0.00    +0.000 A 
ENDROOT
TORSDOF 0
ENDMDL
ENDMDL
