REMARK  Name = No_2325-gen_results/8p0m/2024-11-27-11-27-31/
REMARK  0 active torsions:
REMARK  status: ('A' for Active; 'I' for Inactive)
REMARK                            x       y       z     vdW  Elec       q    Type
REMARK                         _______ _______ _______ _____ _____    ______ ____
ROOT
ATOM      1  C   UNL A   1     -28.016  -0.814  28.878  0.00  0.00    +0.000 A 
ATOM      2  C   UNL A   1     -27.064  -0.119  28.608  0.00  0.00    +0.000 A 
ATOM      3  C   UNL A   1     -25.792  -0.430  29.076  0.00  0.00    +0.000 A 
ATOM      4  C   UNL A   1     -25.576  -1.565  29.936  0.00  0.00    +0.000 A 
ATOM      5  C   UNL A   1     -24.372  -1.942  30.447  0.00  0.00    +0.000 A 
ATOM      6  C   UNL A   1     -27.961  -1.913  29.818  0.00  0.00    +0.000 A 
ATOM      7  C   UNL A   1     -26.739  -2.305  30.320  0.00  0.00    +0.000 A 
ATOM      8  C   UNL A   1     -23.216  -0.966  30.323  0.00  0.00    +0.000 A 
ATOM      9  C   UNL A   1     -23.392   0.149  29.397  0.00  0.00    +0.000 A 
ATOM     10  C   UNL A   1     -24.633   0.430  28.839  0.00  0.00    +0.000 A 
ATOM     11  C   UNL A   1     -24.651   1.573  27.962  0.00  0.00    +0.000 A 
ATOM     12  C   UNL A   1     -23.578   1.796  27.091  0.00  0.00    +0.000 A 
ATOM     13  C   UNL A   1     -22.257   1.599  27.725  0.00  0.00    +0.000 A 
ATOM     14  C   UNL A   1     -22.137   0.699  28.846  0.00  0.00    +0.000 A 
ENDROOT
TORSDOF 0
