MODEL 2326
MODEL 1
REMARK VINA RESULT:    -7.296      0.000      0.000
REMARK INTER + INTRA:         -11.416
REMARK INTER:                  -9.855
REMARK INTRA:                  -1.561
REMARK UNBOUND:                -1.561
REMARK  Name = No_2326-gen_results/8p0m/2024-11-27-11-27-31/
REMARK  6 active torsions:
REMARK  status: ('A' for Active; 'I' for Inactive)
REMARK    1  A    between atoms: C_2  and  O_7
REMARK    2  A    between atoms: C_4  and  C_9
REMARK    3  A    between atoms: O_7  and  C_8
REMARK    4  A    between atoms: C_9  and  C_10
REMARK    5  A    between atoms: C_10  and  C_11
REMARK    6  A    between atoms: C_18  and  C_19
REMARK                            x       y       z     vdW  Elec       q    Type
REMARK                         _______ _______ _______ _____ _____    ______ ____
ROOT
ATOM      1  C   UNL A   1     -26.215   1.986  27.267  0.00  0.00    +0.037 A 
ATOM      2  C   UNL A   1     -26.577   1.352  26.508  0.00  0.00    +0.145 A 
ATOM      3  C   UNL A   1     -25.065   1.435  28.081  0.00  0.00    -0.001 A 
ATOM      4  C   UNL A   1     -24.469   0.215  27.698  0.00  0.00    -0.022 A 
ATOM      5  C   UNL A   1     -26.127   0.082  25.894  0.00  0.00    +0.037 A 
ATOM      6  C   UNL A   1     -25.066  -0.452  26.612  0.00  0.00    -0.001 A 
ENDROOT
BRANCH   2   7
ATOM      7  O   UNL A   1     -27.696   1.881  25.714  0.00  0.00    -0.450 OA
BRANCH   7   8
ATOM      8  C   UNL A   1     -27.664   2.549  24.669  0.00  0.00    +0.179 C 
ATOM      9  C   UNL A   1     -28.296   2.011  23.593  0.00  0.00    +0.041 C 
BRANCH   9  10
ATOM     10  C   UNL A   1     -29.044   0.934  23.670  0.00  0.00    +0.003 A 
ATOM     11  C   UNL A   1     -30.402   0.955  23.897  0.00  0.00    +0.000 A 
ATOM     12  C   UNL A   1     -31.210  -0.241  23.845  0.00  0.00    +0.000 A 
ATOM     13  C   UNL A   1     -30.511  -1.467  23.680  0.00  0.00    +0.000 A 
ATOM     14  C   UNL A   1     -29.155  -1.514  23.501  0.00  0.00    +0.000 A 
ATOM     15  C   UNL A   1     -28.461  -0.404  23.440  0.00  0.00    +0.000 A 
ENDBRANCH   9  10
ENDBRANCH   7   8
ENDBRANCH   2   7
BRANCH   4  16
ATOM     16  C   UNL A   1     -23.382  -0.359  28.457  0.00  0.00    +0.031 C 
BRANCH  16  17
ATOM     17  C   UNL A   1     -23.797  -1.060  29.652  0.00  0.00    +0.027 C 
ATOM     18  C   UNL A   1     -23.403  -0.480  30.964  0.00  0.00    +0.005 C 
BRANCH  17  19
ATOM     19  C   UNL A   1     -24.450  -2.286  29.573  0.00  0.00    -0.022 A 
ATOM     20  C   UNL A   1     -23.844  -3.303  28.942  0.00  0.00    -0.004 A 
ATOM     21  C   UNL A   1     -25.810  -2.338  30.028  0.00  0.00    -0.004 A 
ATOM     22  C   UNL A   1     -26.439  -3.624  30.018  0.00  0.00    -0.000 A 
ATOM     23  C   UNL A   1     -24.539  -4.554  28.827  0.00  0.00    -0.000 A 
ATOM     24  C   UNL A   1     -25.822  -4.651  29.323  0.00  0.00    -0.000 A 
ENDBRANCH  17  19
ENDBRANCH  16  17
ENDBRANCH   4  16
TORSDOF 6
ENDMDL
ENDMDL
