REMARK  Name = outputs/IAG933/test6/raw/output_2327_IAG933_linker_design_.xyz
REMARK  7 active torsions:
REMARK  status: ('A' for Active; 'I' for Inactive)
REMARK    1  A    between atoms: C_1  and  C_2
REMARK    2  A    between atoms: C_13  and  C_41
REMARK    3  A    between atoms: C_14  and  C_15
REMARK    4  A    between atoms: C_21  and  O_22
REMARK    5  A    between atoms: O_22  and  C_23
REMARK    6  A    between atoms: C_23  and  C_24
REMARK    7  A    between atoms: O_30  and  C_31
REMARK                            x       y       z     vdW  Elec       q    Type
REMARK                         _______ _______ _______ _____ _____    ______ ____
ROOT
ATOM      1  C   UNL A   1     -24.855  -1.012  30.143  0.00  0.00    +0.069 C 
ATOM      2  C   UNL A   1     -25.387  -0.679  31.571  0.00  0.00    +0.079 C 
ATOM      3  C   UNL A   1     -25.189   0.773  32.028  0.00  0.00    +0.019 C 
ATOM      4  C   UNL A   1     -25.336   0.684  33.544  0.00  0.00    +0.020 C 
ATOM      5  C   UNL A   1     -24.829  -0.715  33.905  0.00  0.00    +0.089 C 
ATOM      6  N   UNL A   1     -24.758  -1.481  32.646  0.00  0.00    -0.219 NA
ATOM      7  C   UNL A   1     -24.338   1.692  30.073  0.00  0.00    +0.072 C 
ATOM      8  O   UNL A   1     -21.678   1.343  27.454  0.00  0.00    -0.331 OA
ATOM      9  C   UNL A   1     -22.873   1.810  27.263  0.00  0.00    +0.250 C 
ATOM     10  C   UNL A   1     -21.562   0.477  28.473  0.00  0.00    +0.134 C 
ATOM     11  C   UNL A   1     -22.309  -0.004  29.197  0.00  0.00    +0.087 C 
ATOM     12  C   UNL A   1     -24.193   1.794  31.550  0.00  0.00    +0.019 C 
ATOM     13  C   UNL A   1     -23.845   1.376  28.179  0.00  0.00    +0.117 C 
ATOM     14  O   UNL A   1     -26.716  -0.506  28.621  0.00  0.00    -0.223 OA
ATOM     15  N   UNL A   1     -23.567   0.880  29.469  0.00  0.00    -0.269 NA
ATOM     16  C   UNL A   1     -25.372  -0.186  28.820  0.00  0.00    +0.159 C 
ATOM     17  C   UNL A   1     -20.784  -0.293  28.965  0.00  0.00    +0.050 C 
ATOM     18  C   UNL A   1     -25.055   1.008  27.729  0.00  0.00    +0.058 C 
ENDROOT
BRANCH  18  19
ATOM     19  C   UNL A   1     -25.688   1.614  26.461  0.00  0.00    +0.074 C 
ATOM     20  C   UNL A   1     -26.250   2.920  26.395  0.00  0.00    +0.055 C 
ATOM     21  C   UNL A   1     -27.438   3.091  25.645  0.00  0.00    +0.102 C 
ATOM     22  N   UNL A   1     -28.075   2.089  25.003  0.00  0.00    -0.212 NA
ATOM     23  C   UNL A   1     -27.543   0.849  25.079  0.00  0.00    +0.234 C 
ATOM     24  C   UNL A   1     -26.354   0.576  25.777  0.00  0.00    +0.240 C 
ATOM     25  F   UNL A   1     -25.860  -0.681  25.795  0.00  0.00    -0.227 F 
BRANCH  20  26
ATOM     26  C   UNL A   1     -25.642   4.093  27.123  0.00  0.00    +0.262 C 
ATOM     27  N   UNL A   1     -25.614   5.252  26.449  0.00  0.00    -0.200 NA
ATOM     28  C   UNL A   1     -25.026   6.479  26.963  0.00  0.00    +0.139 C 
ATOM     29  O   UNL A   1     -25.143   3.966  28.243  0.00  0.00    -0.269 OA
ENDBRANCH  20  26
BRANCH  23  30
ATOM     30  O   UNL A   1     -28.193  -0.208  24.477  0.00  0.00    -0.459 OA
BRANCH  30  31
ATOM     31  C   UNL A   1     -29.460   0.005  23.866  0.00  0.00    +0.242 C 
BRANCH  31  32
ATOM     32  C   UNL A   1     -30.065  -1.377  23.573  0.00  0.00    +0.229 C 
ATOM     33  O   UNL A   1     -30.729  -1.878  24.721  0.00  0.00    -0.216 OA
ENDBRANCH  31  32
ENDBRANCH  30  31
ENDBRANCH  23  30
ENDBRANCH  18  19
BRANCH   1  34
ATOM     34  C   UNL A   1     -24.973  -2.505  29.788  0.00  0.00    -0.019 C 
ATOM     35  C   UNL A   1     -23.906  -3.173  29.146  0.00  0.00    -0.004 C 
ATOM     36  C   UNL A   1     -23.989  -4.549  28.853  0.00  0.00    -0.000 C 
ATOM     37  C   UNL A   1     -25.137  -5.280  29.205  0.00  0.00    -0.000 C 
ATOM     38  C   UNL A   1     -26.232  -4.611  29.784  0.00  0.00    -0.000 C 
ATOM     39  C   UNL A   1     -26.155  -3.232  30.065  0.00  0.00    -0.004 C 
ENDBRANCH   1  34
BRANCH   9  40
ATOM     40  O   UNL A   1     -23.204   2.309  26.085  0.00  0.00    -0.327 OA
ATOM     41  C   UNL A   1     -22.125   2.618  25.214  0.00  0.00    +0.177 C 
ENDBRANCH   9  40
TORSDOF 7
