REMARK  Name = outputs/IAG933/test6/raw/output_2328_IAG933_linker_design_.xyz
REMARK  15 active torsions:
REMARK  status: ('A' for Active; 'I' for Inactive)
REMARK    1  A    between atoms: C_1  and  C_2
REMARK    2  A    between atoms: C_1  and  C_8
REMARK    3  A    between atoms: C_1  and  C_33
REMARK    4  A    between atoms: C_13  and  N_42
REMARK    5  A    between atoms: C_14  and  C_15
REMARK    6  A    between atoms: C_21  and  O_22
REMARK    7  A    between atoms: O_22  and  C_23
REMARK    8  A    between atoms: C_23  and  C_24
REMARK    9  A    between atoms: O_30  and  N_34
REMARK   10  A    between atoms: O_30  and  C_37
REMARK   11  A    between atoms: C_33  and  C_39
REMARK   12  A    between atoms: C_35  and  C_38
REMARK   13  A    between atoms: C_35  and  N_42
REMARK   14  A    between atoms: C_38  and  C_40
REMARK   15  A    between atoms: C_39  and  C_41
REMARK                            x       y       z     vdW  Elec       q    Type
REMARK                         _______ _______ _______ _____ _____    ______ ____
ROOT
ATOM      1  C   UNL A   1     -25.358  -0.164  29.029  0.00  0.00    +0.029 C 
ATOM      2  C   UNL A   1     -24.660   0.673  28.202  0.00  0.00    +0.051 C 
ENDROOT
BRANCH   1   4
ATOM      3  O   UNL A   1     -27.339  -1.427  28.724  0.00  0.00    -0.292 OA
ATOM      4  C   UNL A   1     -26.807  -0.354  28.850  0.00  0.00    +0.170 C 
BRANCH   4   6
ATOM      5  C   UNL A   1     -29.064   0.555  28.668  0.00  0.00    +0.009 C 
ATOM      6  C   UNL A   1     -27.590   0.901  28.789  0.00  0.00    +0.069 C 
ENDBRANCH   4   6
ENDBRANCH   1   4
BRANCH   1   7
ATOM      7  C   UNL A   1     -24.855  -1.012  30.143  0.00  0.00    +0.064 C 
BRANCH   7   8
ATOM      8  C   UNL A   1     -24.973  -2.505  29.788  0.00  0.00    -0.017 C 
ATOM      9  C   UNL A   1     -23.906  -3.173  29.146  0.00  0.00    -0.004 C 
ATOM     10  C   UNL A   1     -23.989  -4.549  28.853  0.00  0.00    -0.000 C 
ATOM     11  C   UNL A   1     -25.137  -5.280  29.205  0.00  0.00    -0.000 C 
ATOM     12  C   UNL A   1     -26.232  -4.611  29.784  0.00  0.00    -0.000 C 
ATOM     13  C   UNL A   1     -26.155  -3.232  30.065  0.00  0.00    -0.004 C 
ENDBRANCH   7   8
BRANCH   7  14
ATOM     14  C   UNL A   1     -25.387  -0.679  31.571  0.00  0.00    +0.081 C 
ATOM     15  C   UNL A   1     -25.189   0.773  32.028  0.00  0.00    +0.019 C 
ATOM     16  C   UNL A   1     -25.336   0.684  33.544  0.00  0.00    +0.020 C 
ATOM     17  C   UNL A   1     -24.829  -0.715  33.905  0.00  0.00    +0.089 C 
ATOM     18  N   UNL A   1     -24.758  -1.481  32.646  0.00  0.00    -0.219 NA
ENDBRANCH   7  14
ENDBRANCH   1   7
BRANCH   2  19
ATOM     19  C   UNL A   1     -23.538   1.114  27.735  0.00  0.00    +0.122 C 
BRANCH  19  22
ATOM     20  F   UNL A   1     -22.352   0.128  29.536  0.00  0.00    -0.184 F 
ATOM     21  N   UNL A   1     -21.180   1.287  28.006  0.00  0.00    -0.048 NA
ATOM     22  C   UNL A   1     -22.360   0.863  28.421  0.00  0.00    +0.242 C 
BRANCH  21  23
ATOM     23  O   UNL A   1     -21.075   1.827  26.744  0.00  0.00    -0.322 OA
BRANCH  23  26
ATOM     24  F   UNL A   1     -21.907   2.253  24.691  0.00  0.00    -0.161 F 
ATOM     25  C   UNL A   1     -23.252   1.764  26.387  0.00  0.00    +0.077 C 
ATOM     26  C   UNL A   1     -22.065   1.968  25.894  0.00  0.00    +0.314 C 
ENDBRANCH  23  26
ENDBRANCH  21  23
ENDBRANCH  19  22
ENDBRANCH   2  19
BRANCH   2  27
ATOM     27  N   UNL A   1     -24.985   1.299  27.580  0.00  0.00    -0.235 NA
BRANCH  27  28
ATOM     28  C   UNL A   1     -25.688   1.614  26.461  0.00  0.00    +0.162 C 
ATOM     29  C   UNL A   1     -26.250   2.920  26.395  0.00  0.00    +0.075 C 
ATOM     30  C   UNL A   1     -27.438   3.091  25.645  0.00  0.00    +0.104 C 
ATOM     31  N   UNL A   1     -28.075   2.089  25.003  0.00  0.00    -0.212 NA
ATOM     32  C   UNL A   1     -27.543   0.849  25.079  0.00  0.00    +0.236 C 
ATOM     33  C   UNL A   1     -26.354   0.576  25.777  0.00  0.00    +0.260 C 
ATOM     34  F   UNL A   1     -25.860  -0.681  25.795  0.00  0.00    -0.225 F 
BRANCH  29  35
ATOM     35  C   UNL A   1     -25.642   4.093  27.123  0.00  0.00    +0.264 C 
ATOM     36  N   UNL A   1     -25.614   5.252  26.449  0.00  0.00    -0.200 NA
ATOM     37  C   UNL A   1     -25.026   6.479  26.963  0.00  0.00    +0.139 C 
ATOM     38  O   UNL A   1     -25.143   3.966  28.243  0.00  0.00    -0.269 OA
ENDBRANCH  29  35
BRANCH  32  39
ATOM     39  O   UNL A   1     -28.193  -0.208  24.477  0.00  0.00    -0.459 OA
BRANCH  39  40
ATOM     40  C   UNL A   1     -29.460   0.005  23.866  0.00  0.00    +0.242 C 
BRANCH  40  41
ATOM     41  C   UNL A   1     -30.065  -1.377  23.573  0.00  0.00    +0.229 C 
ATOM     42  O   UNL A   1     -30.729  -1.878  24.721  0.00  0.00    -0.216 OA
ENDBRANCH  40  41
ENDBRANCH  39  40
ENDBRANCH  32  39
ENDBRANCH  27  28
ENDBRANCH   2  27
TORSDOF 15
