MODEL 2328
MODEL 1
REMARK VINA RESULT:    -7.538      0.000      0.000
REMARK INTER + INTRA:          -9.175
REMARK INTER:                  -8.419
REMARK INTRA:                  -0.756
REMARK UNBOUND:                -0.756
REMARK  Name = No_2328-gen_results/8p0m/2024-11-27-11-27-31/
REMARK  2 active torsions:
REMARK  status: ('A' for Active; 'I' for Inactive)
REMARK    1  A    between atoms: C_3  and  C_13
REMARK    2  A    between atoms: C_17  and  C_19
REMARK                            x       y       z     vdW  Elec       q    Type
REMARK                         _______ _______ _______ _____ _____    ______ ____
ROOT
ATOM      1 CL   UNL A   1     -31.205  -9.725  30.081  0.00  0.00    -0.082 Cl
ATOM      2  C   UNL A   1     -30.166 -10.232  30.943  0.00  0.00    +0.057 A 
ATOM      3  C   UNL A   1     -29.336 -11.032  30.700  0.00  0.00    +0.011 A 
ATOM      4  C   UNL A   1     -28.307 -11.478  31.636  0.00  0.00    +0.008 A 
ATOM      5  C   UNL A   1     -28.310 -10.959  32.968  0.00  0.00    +0.087 A 
ATOM      6  C   UNL A   1     -29.270 -10.041  33.244  0.00  0.00    -0.010 A 
ATOM      7  C   UNL A   1     -30.019  -9.762  32.328  0.00  0.00    +0.007 A 
ATOM      8  C   UNL A   1     -27.319 -11.443  33.959  0.00  0.00    +0.413 C 
ATOM      9  N   UNL A   1     -27.170 -12.487  34.241  0.00  0.00    +0.197 NA
ATOM     10  N   UNL A   1     -26.883 -10.393  34.844  0.00  0.00    -0.027 NA
ATOM     11  C   UNL A   1     -27.186  -9.071  34.706  0.00  0.00    +0.256 C 
ATOM     12  C   UNL A   1     -28.384  -8.636  34.162  0.00  0.00    +0.082 C 
ENDROOT
BRANCH   3  13
ATOM     13  C   UNL A   1     -29.355 -11.936  29.447  0.00  0.00    +0.001 A 
ATOM     14  C   UNL A   1     -29.027 -11.567  28.457  0.00  0.00    +0.000 A 
ATOM     15  C   UNL A   1     -29.173 -12.333  27.158  0.00  0.00    +0.000 A 
ATOM     16  C   UNL A   1     -29.740 -13.597  27.382  0.00  0.00    -0.000 A 
ATOM     17  C   UNL A   1     -30.120 -14.016  28.592  0.00  0.00    -0.000 A 
ATOM     18  C   UNL A   1     -29.980 -13.184  29.663  0.00  0.00    +0.000 A 
BRANCH  17  19
ATOM     19  C   UNL A   1     -30.734 -15.329  28.784  0.00  0.00    -0.005 C 
ATOM     20  C   UNL A   1     -30.815 -15.918  29.616  0.00  0.00    -0.026 C 
ATOM     21  C   UNL A   1     -31.530 -17.224  29.816  0.00  0.00    +0.031 C 
ENDBRANCH  17  19
ENDBRANCH   3  13
TORSDOF 2
ENDMDL
ENDMDL
