REMARK  Name = outputs/IAG933/test6/raw/output_2329_IAG933_linker_design_.xyz
REMARK  17 active torsions:
REMARK  status: ('A' for Active; 'I' for Inactive)
REMARK    1  A    between atoms: C_1  and  C_2
REMARK    2  A    between atoms: C_1  and  C_8
REMARK    3  A    between atoms: C_1  and  C_36
REMARK    4  A    between atoms: C_13  and  C_30
REMARK    5  A    between atoms: C_14  and  C_15
REMARK    6  A    between atoms: C_21  and  O_22
REMARK    7  A    between atoms: O_22  and  C_23
REMARK    8  A    between atoms: C_23  and  C_24
REMARK    9  A    between atoms: C_28  and  C_41
REMARK   10  A    between atoms: C_29  and  O_39
REMARK   11  A    between atoms: C_29  and  C_41
REMARK   12  A    between atoms: C_30  and  C_34
REMARK   13  A    between atoms: C_30  and  C_43
REMARK   14  A    between atoms: C_37  and  C_43
REMARK   15  A    between atoms: O_39  and  C_44
REMARK   16  A    between atoms: O_40  and  C_43
REMARK   17  A    between atoms: C_42  and  C_44
REMARK                            x       y       z     vdW  Elec       q    Type
REMARK                         _______ _______ _______ _____ _____    ______ ____
ROOT
ATOM      1  C   UNL A   1     -24.337   1.261  27.268  0.00  0.00    +0.057 C 
ENDROOT
BRANCH   1   2
ATOM      2  C   UNL A   1     -25.688   1.614  26.461  0.00  0.00    +0.018 C 
ATOM      3  C   UNL A   1     -26.250   2.920  26.395  0.00  0.00    +0.073 C 
ATOM      4  C   UNL A   1     -27.438   3.091  25.645  0.00  0.00    +0.106 C 
ATOM      5  N   UNL A   1     -28.075   2.089  25.003  0.00  0.00    -0.208 NA
ATOM      6  C   UNL A   1     -27.543   0.849  25.079  0.00  0.00    +0.253 C 
ATOM      7  C   UNL A   1     -26.354   0.576  25.777  0.00  0.00    +0.189 C 
ATOM      8  F   UNL A   1     -25.860  -0.681  25.795  0.00  0.00    -0.200 F 
BRANCH   3   9
ATOM      9  C   UNL A   1     -25.642   4.093  27.123  0.00  0.00    +0.266 C 
ATOM     10  N   UNL A   1     -25.614   5.252  26.449  0.00  0.00    -0.200 NA
ATOM     11  C   UNL A   1     -25.026   6.479  26.963  0.00  0.00    +0.139 C 
ATOM     12  O   UNL A   1     -25.143   3.966  28.243  0.00  0.00    -0.268 OA
ENDBRANCH   3   9
BRANCH   6  13
ATOM     13  O   UNL A   1     -28.193  -0.208  24.477  0.00  0.00    -0.456 OA
BRANCH  13  14
ATOM     14  C   UNL A   1     -29.460   0.005  23.866  0.00  0.00    +0.243 C 
BRANCH  14  15
ATOM     15  C   UNL A   1     -30.065  -1.377  23.573  0.00  0.00    +0.229 C 
ATOM     16  O   UNL A   1     -30.729  -1.878  24.721  0.00  0.00    -0.216 OA
ENDBRANCH  14  15
ENDBRANCH  13  14
ENDBRANCH   6  13
ENDBRANCH   1   2
BRANCH   1  17
ATOM     17  C   UNL A   1     -24.954   1.391  28.670  0.00  0.00    +0.009 C 
ATOM     18  C   UNL A   1     -24.980   0.044  29.053  0.00  0.00    +0.008 C 
ATOM     19  C   UNL A   1     -26.294   0.581  28.983  0.00  0.00    +0.030 C 
BRANCH  19  20
ATOM     20  C   UNL A   1     -27.359  -0.127  28.750  0.00  0.00    +0.142 C 
BRANCH  20  21
ATOM     21  O   UNL A   1     -28.365  -0.859  28.602  0.00  0.00    -0.353 OA
BRANCH  21  22
ATOM     22  C   UNL A   1     -29.696  -0.217  28.507  0.00  0.00    +0.152 C 
BRANCH  22  23
ATOM     23  C   UNL A   1     -30.879  -1.023  29.097  0.00  0.00    +0.120 C 
BRANCH  23  24
ATOM     24  C   UNL A   1     -30.256  -1.087  30.476  0.00  0.00    +0.263 C 
ATOM     25  O   UNL A   1     -29.921  -2.244  31.110  0.00  0.00    -0.272 OA
ATOM     26  N   UNL A   1     -30.203   0.190  31.103  0.00  0.00    -0.088 NA
ENDBRANCH  23  24
ENDBRANCH  22  23
ENDBRANCH  21  22
ENDBRANCH  20  21
ENDBRANCH  19  20
BRANCH  18  27
ATOM     27  C   UNL A   1     -24.855  -1.012  30.143  0.00  0.00    +0.038 C 
BRANCH  27  28
ATOM     28  C   UNL A   1     -24.973  -2.505  29.788  0.00  0.00    -0.021 C 
ATOM     29  C   UNL A   1     -23.906  -3.173  29.146  0.00  0.00    -0.004 C 
ATOM     30  C   UNL A   1     -23.989  -4.549  28.853  0.00  0.00    -0.000 C 
ATOM     31  C   UNL A   1     -25.137  -5.280  29.205  0.00  0.00    -0.000 C 
ATOM     32  C   UNL A   1     -26.232  -4.611  29.784  0.00  0.00    -0.000 C 
ATOM     33  C   UNL A   1     -26.155  -3.232  30.065  0.00  0.00    -0.004 C 
ENDBRANCH  27  28
BRANCH  27  34
ATOM     34  C   UNL A   1     -25.387  -0.679  31.571  0.00  0.00    +0.077 C 
ATOM     35  C   UNL A   1     -25.189   0.773  32.028  0.00  0.00    +0.019 C 
ATOM     36  C   UNL A   1     -25.336   0.684  33.544  0.00  0.00    +0.020 C 
ATOM     37  C   UNL A   1     -24.829  -0.715  33.905  0.00  0.00    +0.089 C 
ATOM     38  N   UNL A   1     -24.758  -1.481  32.646  0.00  0.00    -0.219 NA
ENDBRANCH  27  34
ENDBRANCH  18  27
ENDBRANCH   1  17
BRANCH   1  39
ATOM     39  C   UNL A   1     -23.063   0.948  26.949  0.00  0.00    +0.170 C 
BRANCH  39  42
ATOM     40  N   UNL A   1     -22.157   0.245  29.145  0.00  0.00    -0.092 NA
ATOM     41  F   UNL A   1     -20.786   1.268  27.706  0.00  0.00    -0.214 F 
ATOM     42  C   UNL A   1     -22.103   1.315  28.079  0.00  0.00    +0.278 C 
ENDBRANCH  39  42
BRANCH  39  44
ATOM     43  C   UNL A   1     -22.696   2.636  25.234  0.00  0.00    +0.174 C 
ATOM     44  O   UNL A   1     -22.351   1.339  25.672  0.00  0.00    -0.349 OA
ENDBRANCH  39  44
ENDBRANCH   1  39
TORSDOF 17
