MODEL 2329
MODEL 1
REMARK VINA RESULT:    -4.774      0.000      0.000
REMARK INTER + INTRA:          -5.438
REMARK INTER:                  -5.332
REMARK INTRA:                  -0.105
REMARK UNBOUND:                -0.105
REMARK  Name = No_2329-gen_results/8p0m/2024-11-27-11-27-31/
REMARK  2 active torsions:
REMARK  status: ('A' for Active; 'I' for Inactive)
REMARK    1  A    between atoms: C_3  and  C_8
REMARK    2  A    between atoms: C_8  and  N_9
REMARK                            x       y       z     vdW  Elec       q    Type
REMARK                         _______ _______ _______ _____ _____    ______ ____
ROOT
ATOM      1  C   UNL A   1     -23.917   0.621  27.657  0.00  0.00    +0.042 A 
ATOM      2  C   UNL A   1     -24.340  -0.467  27.975  0.00  0.00    +0.004 A 
ATOM      3  C   UNL A   1     -23.645  -1.356  28.793  0.00  0.00    +0.034 A 
ATOM      4  C   UNL A   1     -22.315  -1.001  29.252  0.00  0.00    +0.004 A 
ATOM      5  C   UNL A   1     -21.884   0.278  28.834  0.00  0.00    +0.042 A 
ATOM      6  C   UNL A   1     -22.608   1.043  28.057  0.00  0.00    +0.196 A 
ATOM      7  O   UNL A   1     -22.067   2.238  27.674  0.00  0.00    -0.287 OA
ENDROOT
BRANCH   3   8
ATOM      8  C   UNL A   1     -24.103  -2.715  29.229  0.00  0.00    +0.287 C 
ATOM      9  F   UNL A   1     -24.427  -2.737  30.346  0.00  0.00    -0.205 F 
BRANCH   8  10
ATOM     10  N   UNL A   1     -23.696  -3.746  28.629  0.00  0.00    -0.232 NA
ATOM     11  C   UNL A   1     -24.366  -4.944  28.833  0.00  0.00    +0.117 C 
ENDBRANCH   8  10
ENDBRANCH   3   8
TORSDOF 2
ENDMDL
ENDMDL
