MODEL 232
MODEL 1
REMARK VINA RESULT:    -6.855      0.000      0.000
REMARK INTER + INTRA:         -10.139
REMARK INTER:                  -8.858
REMARK INTRA:                  -1.281
REMARK UNBOUND:                -1.281
REMARK  Name = No_232-gen_results/8p0m/2024-11-27-11-27-31/
REMARK  5 active torsions:
REMARK  status: ('A' for Active; 'I' for Inactive)
REMARK    1  A    between atoms: C_3  and  C_7
REMARK    2  A    between atoms: C_6  and  O_13
REMARK    3  A    between atoms: O_13  and  C_14
REMARK    4  A    between atoms: C_14  and  C_15
REMARK    5  A    between atoms: C_15  and  C_16
REMARK                            x       y       z     vdW  Elec       q    Type
REMARK                         _______ _______ _______ _____ _____    ______ ____
ROOT
ATOM      1  C   UNL A   1     -23.251  -1.197  32.423  0.00  0.00    +0.037 A 
ATOM      2  C   UNL A   1     -23.875  -1.192  33.458  0.00  0.00    +0.003 A 
ATOM      3  C   UNL A   1     -24.977  -0.370  33.692  0.00  0.00    +0.000 A 
ATOM      4  C   UNL A   1     -25.377   0.580  32.672  0.00  0.00    +0.003 A 
ATOM      5  C   UNL A   1     -24.597   0.524  31.495  0.00  0.00    +0.037 A 
ATOM      6  C   UNL A   1     -23.573  -0.281  31.369  0.00  0.00    +0.139 A 
ENDROOT
BRANCH   3   7
ATOM      7  C   UNL A   1     -25.605  -0.407  35.014  0.00  0.00    +0.000 A 
ATOM      8  C   UNL A   1     -24.947  -1.095  35.986  0.00  0.00    +0.000 A 
ATOM      9  C   UNL A   1     -25.452  -1.110  37.320  0.00  0.00    +0.000 A 
ATOM     10  C   UNL A   1     -26.509  -0.225  37.682  0.00  0.00    +0.000 A 
ATOM     11  C   UNL A   1     -26.577   0.453  35.443  0.00  0.00    +0.000 A 
ATOM     12  C   UNL A   1     -27.035   0.541  36.726  0.00  0.00    +0.000 A 
ENDBRANCH   3   7
BRANCH   6  13
ATOM     13  O   UNL A   1     -22.833  -0.238  30.216  0.00  0.00    -0.475 OA
BRANCH  13  14
ATOM     14  C   UNL A   1     -22.848  -1.279  29.325  0.00  0.00    +0.210 C 
BRANCH  14  15
ATOM     15  C   UNL A   1     -23.893  -1.439  28.602  0.00  0.00    +0.074 C 
BRANCH  15  16
ATOM     16  C   UNL A   1     -24.390  -2.756  28.866  0.00  0.00    -0.018 A 
ATOM     17  C   UNL A   1     -23.951  -3.668  28.609  0.00  0.00    -0.004 A 
ATOM     18  C   UNL A   1     -24.557  -4.938  28.937  0.00  0.00    -0.000 A 
ATOM     19  C   UNL A   1     -25.831  -4.907  29.570  0.00  0.00    -0.000 A 
ATOM     20  C   UNL A   1     -26.434  -3.700  29.829  0.00  0.00    -0.000 A 
ATOM     21  C   UNL A   1     -25.788  -2.613  29.507  0.00  0.00    -0.004 A 
ENDBRANCH  15  16
ENDBRANCH  14  15
ENDBRANCH  13  14
ENDBRANCH   6  13
TORSDOF 5
ENDMDL
ENDMDL
