REMARK  Name = outputs/IAG933/test6/raw/output_233_IAG933_linker_design_.xyz
REMARK  11 active torsions:
REMARK  status: ('A' for Active; 'I' for Inactive)
REMARK    1  A    between atoms: C_1  and  C_2
REMARK    2  A    between atoms: C_1  and  C_8
REMARK    3  A    between atoms: C_1  and  C_46
REMARK    4  A    between atoms: C_13  and  C_35
REMARK    5  A    between atoms: C_14  and  C_15
REMARK    6  A    between atoms: C_21  and  O_22
REMARK    7  A    between atoms: O_22  and  C_23
REMARK    8  A    between atoms: C_23  and  C_24
REMARK    9  A    between atoms: C_29  and  C_46
REMARK   10  A    between atoms: C_34  and  C_47
REMARK   11  A    between atoms: C_46  and  C_47
REMARK                            x       y       z     vdW  Elec       q    Type
REMARK                         _______ _______ _______ _____ _____    ______ ____
ROOT
ATOM      1  C   UNL A   1     -25.335   0.002  29.131  0.00  0.00    +0.086 C 
ENDROOT
BRANCH   1   2
ATOM      2  C   UNL A   1     -24.215   0.659  28.312  0.00  0.00    -0.009 C 
ATOM      3  S   UNL A   1     -22.945   1.871  26.354  0.00  0.00    -0.087 S 
ATOM      4  C   UNL A   1     -24.464   1.317  27.201  0.00  0.00    +0.028 C 
ATOM      5  C   UNL A   1     -21.959   1.131  27.694  0.00  0.00    +0.035 C 
ATOM      6  C   UNL A   1     -22.851   0.482  28.652  0.00  0.00    +0.004 C 
BRANCH   4   7
ATOM      7  C   UNL A   1     -25.688   1.614  26.461  0.00  0.00    +0.044 C 
ATOM      8  C   UNL A   1     -26.250   2.920  26.395  0.00  0.00    +0.077 C 
ATOM      9  C   UNL A   1     -27.438   3.091  25.645  0.00  0.00    +0.107 C 
ATOM     10  N   UNL A   1     -28.075   2.089  25.003  0.00  0.00    -0.208 NA
ATOM     11  C   UNL A   1     -27.543   0.849  25.079  0.00  0.00    +0.253 C 
ATOM     12  C   UNL A   1     -26.354   0.576  25.777  0.00  0.00    +0.194 C 
ATOM     13  F   UNL A   1     -25.860  -0.681  25.795  0.00  0.00    -0.199 F 
BRANCH   8  14
ATOM     14  C   UNL A   1     -25.642   4.093  27.123  0.00  0.00    +0.266 C 
ATOM     15  N   UNL A   1     -25.614   5.252  26.449  0.00  0.00    -0.200 NA
ATOM     16  C   UNL A   1     -25.026   6.479  26.963  0.00  0.00    +0.139 C 
ATOM     17  O   UNL A   1     -25.143   3.966  28.243  0.00  0.00    -0.268 OA
ENDBRANCH   8  14
BRANCH  11  18
ATOM     18  O   UNL A   1     -28.193  -0.208  24.477  0.00  0.00    -0.456 OA
BRANCH  18  19
ATOM     19  C   UNL A   1     -29.460   0.005  23.866  0.00  0.00    +0.243 C 
BRANCH  19  20
ATOM     20  C   UNL A   1     -30.065  -1.377  23.573  0.00  0.00    +0.229 C 
ATOM     21  O   UNL A   1     -30.729  -1.878  24.721  0.00  0.00    -0.216 OA
ENDBRANCH  19  20
ENDBRANCH  18  19
ENDBRANCH  11  18
ENDBRANCH   4   7
ENDBRANCH   1   2
BRANCH   1  23
ATOM     22  O   UNL A   1     -27.213  -0.819  28.424  0.00  0.00    -0.295 OA
ATOM     23  C   UNL A   1     -26.861   0.029  28.971  0.00  0.00    +0.161 C 
BRANCH  23  27
ATOM     24  C   UNL A   1     -28.554   5.139  28.997  0.00  0.00    +0.089 C 
ATOM     25  C   UNL A   1     -29.305   0.728  28.600  0.00  0.00    +0.209 C 
ATOM     26  C   UNL A   1     -29.601   4.242  28.674  0.00  0.00    +0.324 C 
ATOM     27  C   UNL A   1     -28.035   1.045  29.461  0.00  0.00    +0.139 C 
ATOM     28  C   UNL A   1     -28.351   2.545  29.958  0.00  0.00    +0.212 C 
ATOM     29  C   UNL A   1     -28.538   6.450  28.424  0.00  0.00    +0.012 C 
ATOM     30  N   UNL A   1     -29.555   2.915  29.069  0.00  0.00    -0.188 N 
ATOM     31  N   UNL A   1     -30.643   4.688  27.924  0.00  0.00    -0.036 NA
ATOM     32  C   UNL A   1     -30.380   1.794  29.077  0.00  0.00    +0.236 C 
ATOM     33  O   UNL A   1     -29.978   0.183  27.474  0.00  0.00    -0.218 OA
ATOM     34  C   UNL A   1     -29.635   6.854  27.645  0.00  0.00    +0.051 C 
ATOM     35  C   UNL A   1     -30.663   5.958  27.400  0.00  0.00    +0.236 C 
ENDBRANCH  23  27
ENDBRANCH   1  23
BRANCH   1  36
ATOM     36  C   UNL A   1     -24.855  -1.012  30.143  0.00  0.00    +0.049 C 
BRANCH  36  37
ATOM     37  C   UNL A   1     -24.973  -2.505  29.788  0.00  0.00    -0.020 C 
ATOM     38  C   UNL A   1     -23.906  -3.173  29.146  0.00  0.00    -0.004 C 
ATOM     39  C   UNL A   1     -23.989  -4.549  28.853  0.00  0.00    -0.000 C 
ATOM     40  C   UNL A   1     -25.137  -5.280  29.205  0.00  0.00    -0.000 C 
ATOM     41  C   UNL A   1     -26.232  -4.611  29.784  0.00  0.00    -0.000 C 
ATOM     42  C   UNL A   1     -26.155  -3.232  30.065  0.00  0.00    -0.004 C 
ENDBRANCH  36  37
BRANCH  36  43
ATOM     43  C   UNL A   1     -25.387  -0.679  31.571  0.00  0.00    +0.077 C 
ATOM     44  C   UNL A   1     -25.189   0.773  32.028  0.00  0.00    +0.019 C 
ATOM     45  C   UNL A   1     -25.336   0.684  33.544  0.00  0.00    +0.020 C 
ATOM     46  C   UNL A   1     -24.829  -0.715  33.905  0.00  0.00    +0.089 C 
ATOM     47  N   UNL A   1     -24.758  -1.481  32.646  0.00  0.00    -0.219 NA
ENDBRANCH  36  43
ENDBRANCH   1  36
TORSDOF 11
