REMARK  Name = outputs/IAG933/test6/raw/output_2330_IAG933_linker_design_.xyz
REMARK  11 active torsions:
REMARK  status: ('A' for Active; 'I' for Inactive)
REMARK    1  A    between atoms: C_1  and  C_2
REMARK    2  A    between atoms: C_1  and  C_8
REMARK    3  A    between atoms: C_1  and  C_37
REMARK    4  A    between atoms: C_13  and  C_42
REMARK    5  A    between atoms: C_14  and  C_15
REMARK    6  A    between atoms: C_21  and  O_22
REMARK    7  A    between atoms: O_22  and  C_23
REMARK    8  A    between atoms: C_23  and  C_24
REMARK    9  A    between atoms: N_31  and  C_36
REMARK   10  A    between atoms: C_32  and  C_42
REMARK   11  A    between atoms: N_34  and  C_42
REMARK                            x       y       z     vdW  Elec       q    Type
REMARK                         _______ _______ _______ _____ _____    ______ ____
ROOT
ATOM      1  C   UNL A   1     -21.374  -0.496  29.009  0.00  0.00    +0.097 C 
ATOM      2  C   UNL A   1     -24.149   0.641  28.202  0.00  0.00    +0.015 C 
ATOM      3  N   UNL A   1     -22.433  -0.508  29.710  0.00  0.00    -0.214 NA
ATOM      4  O   UNL A   1     -21.012   1.846  26.253  0.00  0.00    -0.290 OA
ATOM      5  C   UNL A   1     -22.906   1.204  27.400  0.00  0.00    +0.140 C 
ATOM      6  C   UNL A   1     -23.848  -0.225  29.345  0.00  0.00    +0.100 C 
ATOM      7  C   UNL A   1     -20.549   0.505  28.162  0.00  0.00    +0.090 C 
ATOM      8  C   UNL A   1     -21.559   1.267  27.221  0.00  0.00    +0.194 C 
ENDROOT
BRANCH   5   9
ATOM      9  N   UNL A   1     -23.267   1.949  26.498  0.00  0.00    -0.094 NA
ATOM     10  O   UNL A   1     -23.485   2.479  25.414  0.00  0.00    -0.060 OA
ENDBRANCH   5   9
BRANCH   6  11
ATOM     11  C   UNL A   1     -24.855  -1.012  30.143  0.00  0.00    +0.058 C 
BRANCH  11  12
ATOM     12  C   UNL A   1     -24.973  -2.505  29.788  0.00  0.00    -0.019 C 
ATOM     13  C   UNL A   1     -23.906  -3.173  29.146  0.00  0.00    -0.004 C 
ATOM     14  C   UNL A   1     -23.989  -4.549  28.853  0.00  0.00    -0.000 C 
ATOM     15  C   UNL A   1     -25.137  -5.280  29.205  0.00  0.00    -0.000 C 
ATOM     16  C   UNL A   1     -26.232  -4.611  29.784  0.00  0.00    -0.000 C 
ATOM     17  C   UNL A   1     -26.155  -3.232  30.065  0.00  0.00    -0.004 C 
ENDBRANCH  11  12
BRANCH  11  18
ATOM     18  C   UNL A   1     -25.387  -0.679  31.571  0.00  0.00    +0.079 C 
ATOM     19  C   UNL A   1     -25.189   0.773  32.028  0.00  0.00    +0.019 C 
ATOM     20  C   UNL A   1     -25.336   0.684  33.544  0.00  0.00    +0.020 C 
ATOM     21  C   UNL A   1     -24.829  -0.715  33.905  0.00  0.00    +0.089 C 
ATOM     22  N   UNL A   1     -24.758  -1.481  32.646  0.00  0.00    -0.219 NA
ENDBRANCH  11  18
ENDBRANCH   6  11
BRANCH   2  23
ATOM     23  C   UNL A   1     -25.300   1.157  27.867  0.00  0.00    +0.124 C 
BRANCH  23  24
ATOM     24  C   UNL A   1     -25.688   1.614  26.461  0.00  0.00    +0.094 C 
ATOM     25  C   UNL A   1     -26.250   2.920  26.395  0.00  0.00    +0.057 C 
ATOM     26  C   UNL A   1     -27.438   3.091  25.645  0.00  0.00    +0.102 C 
ATOM     27  N   UNL A   1     -28.075   2.089  25.003  0.00  0.00    -0.212 NA
ATOM     28  C   UNL A   1     -27.543   0.849  25.079  0.00  0.00    +0.234 C 
ATOM     29  C   UNL A   1     -26.354   0.576  25.777  0.00  0.00    +0.242 C 
ATOM     30  F   UNL A   1     -25.860  -0.681  25.795  0.00  0.00    -0.227 F 
BRANCH  25  31
ATOM     31  C   UNL A   1     -25.642   4.093  27.123  0.00  0.00    +0.263 C 
ATOM     32  N   UNL A   1     -25.614   5.252  26.449  0.00  0.00    -0.200 NA
ATOM     33  C   UNL A   1     -25.026   6.479  26.963  0.00  0.00    +0.139 C 
ATOM     34  O   UNL A   1     -25.143   3.966  28.243  0.00  0.00    -0.269 OA
ENDBRANCH  25  31
BRANCH  28  35
ATOM     35  O   UNL A   1     -28.193  -0.208  24.477  0.00  0.00    -0.459 OA
BRANCH  35  36
ATOM     36  C   UNL A   1     -29.460   0.005  23.866  0.00  0.00    +0.242 C 
BRANCH  36  37
ATOM     37  C   UNL A   1     -30.065  -1.377  23.573  0.00  0.00    +0.229 C 
ATOM     38  O   UNL A   1     -30.729  -1.878  24.721  0.00  0.00    -0.216 OA
ENDBRANCH  36  37
ENDBRANCH  35  36
ENDBRANCH  28  35
ENDBRANCH  23  24
BRANCH  23  41
ATOM     39  C   UNL A   1     -27.489   0.428  29.115  0.00  0.00    +0.242 C 
ATOM     40  O   UNL A   1     -27.689  -0.783  28.927  0.00  0.00    -0.273 OA
ATOM     41  N   UNL A   1     -26.329   1.177  28.809  0.00  0.00    -0.203 NA
ATOM     42  C   UNL A   1     -28.626   1.177  29.733  0.00  0.00    +0.096 C 
ENDBRANCH  23  41
ENDBRANCH   2  23
TORSDOF 11
