MODEL 2330
MODEL 1
REMARK VINA RESULT:    -7.470      0.000      0.000
REMARK INTER + INTRA:          -8.017
REMARK INTER:                  -7.907
REMARK INTRA:                  -0.110
REMARK UNBOUND:                -0.110
REMARK  Name = No_2330-gen_results/8p0m/2024-11-27-11-27-31/
REMARK  1 active torsions:
REMARK  status: ('A' for Active; 'I' for Inactive)
REMARK    1  A    between atoms: C_2  and  C_18
REMARK                            x       y       z     vdW  Elec       q    Type
REMARK                         _______ _______ _______ _____ _____    ______ ____
ROOT
ATOM      1  C   UNL A   1     -24.969  -1.731  27.811  0.00  0.00    +0.003 A 
ATOM      2  C   UNL A   1     -24.446  -1.984  28.690  0.00  0.00    +0.080 A 
ATOM      3  C   UNL A   1     -24.618  -0.389  27.209  0.00  0.00    -0.015 A 
ATOM      4  C   UNL A   1     -25.285   0.252  26.104  0.00  0.00    +0.052 C 
ATOM      5  C   UNL A   1     -23.272  -1.385  29.338  0.00  0.00    +0.007 A 
ATOM      6  C   UNL A   1     -22.872  -0.169  28.827  0.00  0.00    +0.003 A 
ATOM      7  C   UNL A   1     -23.502   0.361  27.730  0.00  0.00    +0.031 A 
ATOM      8  C   UNL A   1     -26.317   1.208  26.463  0.00  0.00    -0.022 A 
ATOM      9  C   UNL A   1     -25.879   2.512  26.301  0.00  0.00    -0.026 A 
ATOM     10  C   UNL A   1     -24.640   3.071  26.300  0.00  0.00    +0.029 C 
ATOM     11  C   UNL A   1     -23.550   2.370  26.561  0.00  0.00    +0.066 C 
ATOM     12  C   UNL A   1     -23.002   1.636  27.368  0.00  0.00    +0.173 C 
ATOM     13  C   UNL A   1     -27.085   3.564  26.346  0.00  0.00    -0.005 A 
ATOM     14  C   UNL A   1     -27.639   0.838  26.491  0.00  0.00    -0.004 A 
ATOM     15  C   UNL A   1     -28.375   3.212  26.488  0.00  0.00    -0.000 A 
ATOM     16  C   UNL A   1     -28.685   1.808  26.594  0.00  0.00    -0.000 A 
ATOM     17  C   UNL A   1     -24.563   4.519  25.876  0.00  0.00    +0.005 C 
ATOM     18  C   UNL A   1     -22.752   2.192  25.183  0.00  0.00    +0.009 C 
ATOM     19  O   UNL A   1     -22.155   2.229  28.173  0.00  0.00    -0.291 OA
ENDROOT
BRANCH   2  20
ATOM     20  C   UNL A   1     -24.836  -3.397  29.350  0.00  0.00    +0.388 C 
ATOM     21  O   UNL A   1     -26.077  -3.568  29.733  0.00  0.00    -0.241 OA
ATOM     22  O   UNL A   1     -24.044  -4.290  29.336  0.00  0.00    -0.241 OA
ENDBRANCH   2  20
TORSDOF 1
ENDMDL
ENDMDL
