MODEL 2331
MODEL 1
REMARK VINA RESULT:    -7.652      0.000      0.000
REMARK INTER + INTRA:         -11.708
REMARK INTER:                 -10.336
REMARK INTRA:                  -1.371
REMARK UNBOUND:                -1.371
REMARK  Name = No_2331-gen_results/8p0m/2024-11-27-11-27-31/
REMARK  6 active torsions:
REMARK  status: ('A' for Active; 'I' for Inactive)
REMARK    1  A    between atoms: C_1  and  C_2
REMARK    2  A    between atoms: C_1  and  C_8
REMARK    3  A    between atoms: C_5  and  C_16
REMARK    4  A    between atoms: C_8  and  C_9
REMARK    5  A    between atoms: C_10  and  C_11
REMARK    6  A    between atoms: C_11  and  C_12
REMARK                            x       y       z     vdW  Elec       q    Type
REMARK                         _______ _______ _______ _____ _____    ______ ____
ROOT
ATOM      1  C   UNL A   1     -29.321 -11.562  10.759  0.00  0.00    -0.030 C 
ATOM      2  C   UNL A   1     -29.489 -11.640  12.008  0.00  0.00    -0.026 C 
ENDROOT
BRANCH   1   3
ATOM      3  C   UNL A   1     -28.793 -10.572  10.154  0.00  0.00    +0.030 C 
BRANCH   3   4
ATOM      4  C   UNL A   1     -29.639  -9.753   9.179  0.00  0.00    +0.031 C 
BRANCH   4   5
ATOM      5  C   UNL A   1     -30.227  -8.799   9.635  0.00  0.00    -0.022 A 
ATOM      6  C   UNL A   1     -31.439  -8.875  10.240  0.00  0.00    -0.004 A 
ATOM      7  C   UNL A   1     -32.171  -7.719  10.805  0.00  0.00    +0.004 A 
ATOM      8  C   UNL A   1     -31.529  -6.440  10.718  0.00  0.00    +0.071 A 
ATOM      9  C   UNL A   1     -30.237  -6.415  10.147  0.00  0.00    +0.004 A 
ATOM     10  C   UNL A   1     -29.619  -7.530   9.643  0.00  0.00    -0.004 A 
BRANCH   8  11
ATOM     11  C   UNL A   1     -32.123  -5.254  11.243  0.00  0.00    +0.419 C 
ATOM     12  F   UNL A   1     -31.922  -4.924  12.220  0.00  0.00    -0.166 F 
ATOM     13  F   UNL A   1     -33.520  -5.350  11.057  0.00  0.00    -0.166 F 
ATOM     14  F   UNL A   1     -31.838  -4.227  10.317  0.00  0.00    -0.166 F 
ENDBRANCH   8  11
ENDBRANCH   4   5
ENDBRANCH   3   4
ENDBRANCH   1   3
BRANCH   2  15
ATOM     15  C   UNL A   1     -30.169 -12.830  12.559  0.00  0.00    +0.052 C 
BRANCH  15  16
ATOM     16  C   UNL A   1     -30.529 -13.858  11.652  0.00  0.00    -0.022 A 
ATOM     17  C   UNL A   1     -31.740 -13.950  11.166  0.00  0.00    -0.004 A 
ATOM     18  C   UNL A   1     -32.038 -15.067  10.376  0.00  0.00    -0.000 A 
ATOM     19  C   UNL A   1     -33.375 -15.198   9.865  0.00  0.00    -0.000 A 
ATOM     20  C   UNL A   1     -31.018 -15.303   9.404  0.00  0.00    -0.000 A 
ATOM     21  C   UNL A   1     -31.419 -15.773   8.250  0.00  0.00    -0.000 A 
ATOM     22  C   UNL A   1     -33.700 -15.846   8.764  0.00  0.00    -0.000 A 
ATOM     23  C   UNL A   1     -32.735 -16.063   7.860  0.00  0.00    -0.000 A 
ATOM     24  C   UNL A   1     -29.874 -15.068  11.823  0.00  0.00    -0.025 A 
ATOM     25  C   UNL A   1     -29.646 -15.541  12.703  0.00  0.00    +0.031 C 
ATOM     26  C   UNL A   1     -29.901 -15.785  10.568  0.00  0.00    -0.005 A 
ENDBRANCH  15  16
ENDBRANCH   2  15
TORSDOF 6
ENDMDL
ENDMDL
