MODEL 2332
MODEL 1
REMARK VINA RESULT:    -5.688      0.000      0.000
REMARK INTER + INTRA:          -6.080
REMARK INTER:                  -6.020
REMARK INTRA:                  -0.060
REMARK UNBOUND:                -0.060
REMARK  Name = No_2332-gen_results/8p0m/2024-11-27-11-27-31/
REMARK  1 active torsions:
REMARK  status: ('A' for Active; 'I' for Inactive)
REMARK    1  A    between atoms: C_1  and  C_11
REMARK                            x       y       z     vdW  Elec       q    Type
REMARK                         _______ _______ _______ _____ _____    ______ ____
ROOT
ATOM      1  C   UNL A   1     -23.486  -1.552  28.715  0.00  0.00    +0.081 A 
ATOM      2  C   UNL A   1     -22.463  -1.167  29.232  0.00  0.00    +0.007 A 
ATOM      3  C   UNL A   1     -21.902   0.086  29.051  0.00  0.00    +0.002 A 
ATOM      4  C   UNL A   1     -22.607   0.998  28.212  0.00  0.00    +0.018 A 
ATOM      5  C   UNL A   1     -23.816   0.589  27.774  0.00  0.00    +0.082 A 
ATOM      6  C   UNL A   1     -24.305  -0.614  28.081  0.00  0.00    +0.026 A 
ATOM      7  N   UNL A   1     -24.506   1.516  27.003  0.00  0.00    -0.244 NA
ATOM      8  C   UNL A   1     -23.938   2.293  26.127  0.00  0.00    +0.099 A 
ATOM      9  C   UNL A   1     -22.829   2.228  25.924  0.00  0.00    +0.021 A 
ATOM     10  C   UNL A   1     -21.899   1.777  27.134  0.00  0.00    +0.003 A 
ENDROOT
BRANCH   1  11
ATOM     11  C   UNL A   1     -24.107  -2.883  29.193  0.00  0.00    +0.388 C 
ATOM     12  O   UNL A   1     -23.701  -3.925  28.628  0.00  0.00    -0.241 OA
ATOM     13  O   UNL A   1     -25.084  -2.930  29.964  0.00  0.00    -0.241 OA
ENDBRANCH   1  11
TORSDOF 1
ENDMDL
ENDMDL
