MODEL 2333
MODEL 1
REMARK VINA RESULT:    -6.365      0.000      0.000
REMARK INTER + INTRA:          -8.540
REMARK INTER:                  -7.854
REMARK INTRA:                  -0.686
REMARK UNBOUND:                -0.686
REMARK  Name = No_2333-gen_results/8p0m/2024-11-27-11-27-31/
REMARK  4 active torsions:
REMARK  status: ('A' for Active; 'I' for Inactive)
REMARK    1  A    between atoms: C_3  and  C_7
REMARK    2  A    between atoms: C_7  and  C_9
REMARK    3  A    between atoms: C_9  and  C_10
REMARK    4  A    between atoms: C_11  and  C_12
REMARK                            x       y       z     vdW  Elec       q    Type
REMARK                         _______ _______ _______ _____ _____    ______ ____
ROOT
ATOM      1  C   UNL A   1     -23.473  -1.355  29.869  0.00  0.00    +0.027 C 
ATOM      2  C   UNL A   1     -23.088  -0.873  31.012  0.00  0.00    +0.005 C 
ENDROOT
BRANCH   1   5
ATOM      3  C   UNL A   1     -23.888  -3.764  28.948  0.00  0.00    -0.004 A 
ATOM      4  C   UNL A   1     -24.554  -4.581  28.926  0.00  0.00    -0.000 A 
ATOM      5  C   UNL A   1     -24.335  -2.600  29.658  0.00  0.00    -0.022 A 
ATOM      6  C   UNL A   1     -25.578  -2.467  30.130  0.00  0.00    -0.004 A 
ATOM      7  C   UNL A   1     -25.945  -4.653  29.350  0.00  0.00    -0.000 A 
ATOM      8  C   UNL A   1     -26.381  -3.576  29.989  0.00  0.00    -0.000 A 
ENDBRANCH   1   5
BRANCH   1   9
ATOM      9  C   UNL A   1     -23.299  -0.494  28.689  0.00  0.00    +0.030 C 
BRANCH   9  10
ATOM     10  C   UNL A   1     -22.216   0.319  28.454  0.00  0.00    -0.026 C 
ATOM     11  C   UNL A   1     -22.256   1.469  27.740  0.00  0.00    -0.005 C 
BRANCH  11  12
ATOM     12  C   UNL A   1     -23.483   1.982  27.351  0.00  0.00    -0.005 C 
ATOM     13  C   UNL A   1     -23.679   2.452  25.996  0.00  0.00    -0.026 C 
ATOM     14  C   UNL A   1     -22.583   2.356  25.118  0.00  0.00    +0.031 C 
ENDBRANCH  11  12
ENDBRANCH   9  10
ENDBRANCH   1   9
TORSDOF 4
ENDMDL
ENDMDL
