REMARK  Name = outputs/IAG933/test6/raw/output_2333_IAG933_linker_design_.xyz
REMARK  11 active torsions:
REMARK  status: ('A' for Active; 'I' for Inactive)
REMARK    1  A    between atoms: C_1  and  C_2
REMARK    2  A    between atoms: C_1  and  C_8
REMARK    3  A    between atoms: C_1  and  C_44
REMARK    4  A    between atoms: C_13  and  C_36
REMARK    5  A    between atoms: C_14  and  C_15
REMARK    6  A    between atoms: C_21  and  O_22
REMARK    7  A    between atoms: O_22  and  C_23
REMARK    8  A    between atoms: C_23  and  C_24
REMARK    9  A    between atoms: C_31  and  C_32
REMARK   10  A    between atoms: C_32  and  N_41
REMARK   11  A    between atoms: C_43  and  C_44
REMARK                            x       y       z     vdW  Elec       q    Type
REMARK                         _______ _______ _______ _____ _____    ______ ____
ROOT
ATOM      1  C   UNL A   1     -24.326   0.459  28.160  0.00  0.00    +0.124 C 
ATOM      2  O   UNL A   1     -22.968   0.479  28.346  0.00  0.00    -0.453 OA
ATOM      3  C   UNL A   1     -24.466   1.254  27.084  0.00  0.00    +0.088 C 
ATOM      4  C   UNL A   1     -23.273   2.020  26.697  0.00  0.00    +0.093 C 
ATOM      5  C   UNL A   1     -22.397   1.453  27.565  0.00  0.00    +0.328 C 
ATOM      6  C   UNL A   1     -25.295  -0.135  29.082  0.00  0.00    +0.068 C 
ATOM      7  F   UNL A   1     -21.064   1.691  27.556  0.00  0.00    -0.189 F 
ENDROOT
BRANCH   3   8
ATOM      8  C   UNL A   1     -25.688   1.614  26.461  0.00  0.00    +0.023 C 
ATOM      9  C   UNL A   1     -26.250   2.920  26.395  0.00  0.00    +0.073 C 
ATOM     10  C   UNL A   1     -27.438   3.091  25.645  0.00  0.00    +0.106 C 
ATOM     11  N   UNL A   1     -28.075   2.089  25.003  0.00  0.00    -0.208 NA
ATOM     12  C   UNL A   1     -27.543   0.849  25.079  0.00  0.00    +0.253 C 
ATOM     13  C   UNL A   1     -26.354   0.576  25.777  0.00  0.00    +0.190 C 
ATOM     14  F   UNL A   1     -25.860  -0.681  25.795  0.00  0.00    -0.200 F 
BRANCH   9  15
ATOM     15  C   UNL A   1     -25.642   4.093  27.123  0.00  0.00    +0.266 C 
ATOM     16  N   UNL A   1     -25.614   5.252  26.449  0.00  0.00    -0.200 NA
ATOM     17  C   UNL A   1     -25.026   6.479  26.963  0.00  0.00    +0.139 C 
ATOM     18  O   UNL A   1     -25.143   3.966  28.243  0.00  0.00    -0.268 OA
ENDBRANCH   9  15
BRANCH  12  19
ATOM     19  O   UNL A   1     -28.193  -0.208  24.477  0.00  0.00    -0.456 OA
BRANCH  19  20
ATOM     20  C   UNL A   1     -29.460   0.005  23.866  0.00  0.00    +0.243 C 
BRANCH  20  21
ATOM     21  C   UNL A   1     -30.065  -1.377  23.573  0.00  0.00    +0.229 C 
ATOM     22  O   UNL A   1     -30.729  -1.878  24.721  0.00  0.00    -0.216 OA
ENDBRANCH  20  21
ENDBRANCH  19  20
ENDBRANCH  12  19
ENDBRANCH   3   8
BRANCH   6  25
ATOM     23  O   UNL A   1     -27.524  -0.627  28.662  0.00  0.00    -0.269 OA
ATOM     24  N   UNL A   1     -27.045   1.424  29.690  0.00  0.00    -0.196 NA
ATOM     25  C   UNL A   1     -26.672   0.185  29.043  0.00  0.00    +0.264 C 
BRANCH  24  26
ATOM     26  C   UNL A   1     -28.346   1.914  29.292  0.00  0.00    +0.158 C 
BRANCH  26  28
ATOM     27  N   UNL A   1     -26.744   3.606  30.386  0.00  0.00    -0.181 NA
ATOM     28  C   UNL A   1     -27.993   3.295  29.649  0.00  0.00    +0.073 C 
ATOM     29  C   UNL A   1     -26.282   4.713  30.684  0.00  0.00    +0.250 C 
ATOM     30  C   UNL A   1     -27.192   5.779  30.684  0.00  0.00    +0.113 C 
ATOM     31  O   UNL A   1     -25.064   4.755  30.854  0.00  0.00    -0.273 OA
ATOM     32  C   UNL A   1     -28.754   4.419  29.399  0.00  0.00    +0.010 C 
ATOM     33  C   UNL A   1     -28.396   5.621  29.992  0.00  0.00    -0.015 C 
ENDBRANCH  26  28
ENDBRANCH  24  26
ENDBRANCH   6  25
BRANCH   6  34
ATOM     34  C   UNL A   1     -24.855  -1.012  30.143  0.00  0.00    +0.068 C 
BRANCH  34  35
ATOM     35  C   UNL A   1     -24.973  -2.505  29.788  0.00  0.00    -0.017 C 
ATOM     36  C   UNL A   1     -23.906  -3.173  29.146  0.00  0.00    -0.004 C 
ATOM     37  C   UNL A   1     -23.989  -4.549  28.853  0.00  0.00    -0.000 C 
ATOM     38  C   UNL A   1     -25.137  -5.280  29.205  0.00  0.00    -0.000 C 
ATOM     39  C   UNL A   1     -26.232  -4.611  29.784  0.00  0.00    -0.000 C 
ATOM     40  C   UNL A   1     -26.155  -3.232  30.065  0.00  0.00    -0.004 C 
ENDBRANCH  34  35
BRANCH  34  41
ATOM     41  C   UNL A   1     -25.387  -0.679  31.571  0.00  0.00    +0.081 C 
ATOM     42  C   UNL A   1     -25.189   0.773  32.028  0.00  0.00    +0.019 C 
ATOM     43  C   UNL A   1     -25.336   0.684  33.544  0.00  0.00    +0.020 C 
ATOM     44  C   UNL A   1     -24.829  -0.715  33.905  0.00  0.00    +0.089 C 
ATOM     45  N   UNL A   1     -24.758  -1.481  32.646  0.00  0.00    -0.219 NA
ENDBRANCH  34  41
ENDBRANCH   6  34
TORSDOF 11
