REMARK  Name = No_2335-gen_results/8p0m/2024-11-27-11-27-31/
REMARK  8 active torsions:
REMARK  status: ('A' for Active; 'I' for Inactive)
REMARK    1  A    between atoms: C_2  and  C_7
REMARK    2  A    between atoms: C_4  and  C_15
REMARK    3  A    between atoms: C_5  and  C_18
REMARK    4  A    between atoms: C_7  and  C_9
REMARK    5  A    between atoms: C_10  and  C_23
REMARK    6  A    between atoms: C_23  and  N_24
REMARK    7  A    between atoms: C_27  and  C_30
REMARK    8  A    between atoms: C_30  and  N_31
REMARK                            x       y       z     vdW  Elec       q    Type
REMARK                         _______ _______ _______ _____ _____    ______ ____
ROOT
ATOM      1  C   UNL A   1     -24.961   0.279  27.154  0.00  0.00    -0.011 A 
ATOM      2  C   UNL A   1     -24.972   0.731  26.143  0.00  0.00    -0.009 A 
ATOM      3  C   UNL A   1     -24.022   1.729  25.573  0.00  0.00    -0.003 A 
ATOM      4  C   UNL A   1     -23.056   2.156  26.527  0.00  0.00    -0.000 A 
ATOM      5  C   UNL A   1     -23.082   1.666  27.849  0.00  0.00    -0.000 A 
ATOM      6  C   UNL A   1     -24.030   0.801  28.271  0.00  0.00    -0.003 A 
ENDROOT
BRANCH   1   7
ATOM      7  C   UNL A   1     -25.873  -0.713  27.805  0.00  0.00    +0.101 C 
ATOM      8 BR   UNL A   1     -24.942  -1.991  28.440  0.00  0.00    -0.072 Br
BRANCH   7  10
ATOM      9  C   UNL A   1     -28.016  -0.814  28.878  0.00  0.00    +0.001 A 
ATOM     10  C   UNL A   1     -27.064  -0.119  28.608  0.00  0.00    -0.007 A 
ATOM     11  C   UNL A   1     -26.876   1.133  28.913  0.00  0.00    +0.004 A 
ATOM     12  C   UNL A   1     -27.901   1.807  29.644  0.00  0.00    +0.080 A 
ATOM     13  C   UNL A   1     -29.046  -0.232  29.718  0.00  0.00    +0.053 A 
ATOM     14  C   UNL A   1     -28.940   1.052  30.060  0.00  0.00    +0.011 A 
BRANCH  13  15
ATOM     15  C   UNL A   1     -30.227  -1.052  30.096  0.00  0.00    +0.249 C 
ATOM     16  O   UNL A   1     -31.060  -1.137  29.494  0.00  0.00    -0.270 OA
ATOM     17  N   UNL A   1     -30.042  -1.720  31.331  0.00  0.00    -0.273 N 
ATOM     18  C   UNL A   1     -28.912  -1.677  32.274  0.00  0.00    +0.115 C 
ATOM     19  C   UNL A   1     -31.178  -2.533  31.799  0.00  0.00    +0.115 C 
ENDBRANCH  13  15
BRANCH  12  20
ATOM     20  C   UNL A   1     -27.732   3.248  30.035  0.00  0.00    +0.388 C 
ATOM     21  O   UNL A   1     -27.893   3.786  30.926  0.00  0.00    -0.241 OA
ATOM     22  O   UNL A   1     -27.058   3.846  29.002  0.00  0.00    -0.241 OA
ENDBRANCH  12  20
ENDBRANCH   7  10
ENDBRANCH   1   7
BRANCH   2  23
ATOM     23  C   UNL A   1     -25.886   0.347  25.037  0.00  0.00    +0.099 C 
BRANCH  23  24
ATOM     24  N   UNL A   1     -27.199   0.367  24.925  0.00  0.00    -0.269 NA
ATOM     25  C   UNL A   1     -27.856  -0.183  24.059  0.00  0.00    +0.072 C 
ATOM     26  C   UNL A   1     -29.246   0.197  24.031  0.00  0.00    +0.019 C 
ATOM     27  C   UNL A   1     -29.379   1.147  25.073  0.00  0.00    +0.027 C 
ATOM     28  C   UNL A   1     -28.592   1.580  25.878  0.00  0.00    +0.019 C 
ATOM     29  C   UNL A   1     -27.532   1.441  25.907  0.00  0.00    +0.072 C 
BRANCH  27  30
ATOM     30  C   UNL A   1     -31.067   1.387  25.098  0.00  0.00    +0.125 C 
BRANCH  30  31
ATOM     31  N   UNL A   1     -31.542   2.364  25.775  0.00  0.00    -0.274 NA
ATOM     32  C   UNL A   1     -30.988   3.293  26.112  0.00  0.00    +0.067 C 
ATOM     33  C   UNL A   1     -29.699   3.575  26.768  0.00  0.00    +0.053 C 
ENDBRANCH  30  31
ENDBRANCH  27  30
ENDBRANCH  23  24
ENDBRANCH   2  23
TORSDOF 8
