MODEL 2335
MODEL 1
REMARK VINA RESULT:    -7.514      0.000      0.000
REMARK INTER + INTRA:         -12.325
REMARK INTER:                 -10.370
REMARK INTRA:                  -1.955
REMARK UNBOUND:                -1.955
REMARK  Name = No_2335-gen_results/8p0m/2024-11-27-11-27-31/
REMARK  8 active torsions:
REMARK  status: ('A' for Active; 'I' for Inactive)
REMARK    1  A    between atoms: C_2  and  C_7
REMARK    2  A    between atoms: C_4  and  C_15
REMARK    3  A    between atoms: C_5  and  C_18
REMARK    4  A    between atoms: C_7  and  C_9
REMARK    5  A    between atoms: C_10  and  C_23
REMARK    6  A    between atoms: C_23  and  N_24
REMARK    7  A    between atoms: C_27  and  C_30
REMARK    8  A    between atoms: C_30  and  N_31
REMARK                            x       y       z     vdW  Elec       q    Type
REMARK                         _______ _______ _______ _____ _____    ______ ____
ROOT
ATOM      1  C   UNL A   1     -25.071  -2.610  29.552  0.00  0.00    -0.011 A 
ATOM      2  C   UNL A   1     -25.991  -3.149  29.849  0.00  0.00    -0.009 A 
ATOM      3  C   UNL A   1     -26.285  -4.605  29.717  0.00  0.00    -0.003 A 
ATOM      4  C   UNL A   1     -25.238  -5.306  29.056  0.00  0.00    -0.000 A 
ATOM      5  C   UNL A   1     -24.098  -4.623  28.583  0.00  0.00    -0.000 A 
ATOM      6  C   UNL A   1     -23.965  -3.285  28.711  0.00  0.00    -0.003 A 
ENDROOT
BRANCH   1   7
ATOM      7  C   UNL A   1     -24.700  -1.162  29.639  0.00  0.00    +0.101 C 
ATOM      8 BR   UNL A   1     -23.499  -0.967  30.832  0.00  0.00    -0.072 Br
BRANCH   7  10
ATOM      9  C   UNL A   1     -25.516  -0.484  27.488  0.00  0.00    +0.001 A 
ATOM     10  C   UNL A   1     -24.613  -0.399  28.288  0.00  0.00    -0.007 A 
ATOM     11  C   UNL A   1     -23.509   0.283  28.178  0.00  0.00    +0.004 A 
ATOM     12  C   UNL A   1     -23.295   1.026  26.977  0.00  0.00    +0.080 A 
ATOM     13  C   UNL A   1     -25.423   0.334  26.293  0.00  0.00    +0.053 A 
ATOM     14  C   UNL A   1     -24.316   1.049  26.094  0.00  0.00    +0.011 A 
BRANCH  13  15
ATOM     15  C   UNL A   1     -26.517   0.282  25.288  0.00  0.00    +0.249 C 
ATOM     16  O   UNL A   1     -26.552  -0.427  24.541  0.00  0.00    -0.270 OA
ATOM     17  N   UNL A   1     -27.501   1.275  25.517  0.00  0.00    -0.273 N 
ATOM     18  C   UNL A   1     -27.562   2.335  26.537  0.00  0.00    +0.115 C 
ATOM     19  C   UNL A   1     -28.610   1.317  24.548  0.00  0.00    +0.115 C 
ENDBRANCH  13  15
BRANCH  12  20
ATOM     20  C   UNL A   1     -22.046   1.842  26.802  0.00  0.00    +0.388 C 
ATOM     21  O   UNL A   1     -21.190   2.002  27.394  0.00  0.00    -0.241 OA
ATOM     22  O   UNL A   1     -22.052   2.273  25.501  0.00  0.00    -0.241 OA
ENDBRANCH  12  20
ENDBRANCH   7  10
ENDBRANCH   1   7
BRANCH   2  23
ATOM     23  C   UNL A   1     -27.137  -2.558  30.587  0.00  0.00    +0.099 C 
BRANCH  23  24
ATOM     24  N   UNL A   1     -27.641  -1.341  30.613  0.00  0.00    -0.269 NA
ATOM     25  C   UNL A   1     -28.156  -0.754  29.678  0.00  0.00    +0.072 C 
ATOM     26  C   UNL A   1     -28.404   0.646  29.913  0.00  0.00    +0.019 C 
ATOM     27  C   UNL A   1     -27.922   0.880  31.224  0.00  0.00    +0.027 C 
ATOM     28  C   UNL A   1     -27.436   0.147  32.050  0.00  0.00    +0.019 C 
ATOM     29  C   UNL A   1     -27.119  -0.867  31.929  0.00  0.00    +0.072 C 
BRANCH  27  30
ATOM     30  C   UNL A   1     -28.430   2.486  31.489  0.00  0.00    +0.125 C 
BRANCH  30  31
ATOM     31  N   UNL A   1     -27.544   3.394  31.659  0.00  0.00    -0.274 NA
ATOM     32  C   UNL A   1     -27.394   4.326  31.033  0.00  0.00    +0.067 C 
ATOM     33  C   UNL A   1     -27.306   4.629  29.594  0.00  0.00    +0.053 C 
ENDBRANCH  30  31
ENDBRANCH  27  30
ENDBRANCH  23  24
ENDBRANCH   2  23
TORSDOF 8
ENDMDL
ENDMDL
