REMARK  Name = outputs/IAG933/test6/raw/output_2337_IAG933_linker_design_.xyz
REMARK  14 active torsions:
REMARK  status: ('A' for Active; 'I' for Inactive)
REMARK    1  A    between atoms: C_1  and  C_2
REMARK    2  A    between atoms: C_1  and  C_8
REMARK    3  A    between atoms: C_1  and  N_37
REMARK    4  A    between atoms: C_13  and  N_43
REMARK    5  A    between atoms: C_14  and  C_15
REMARK    6  A    between atoms: C_21  and  O_22
REMARK    7  A    between atoms: O_22  and  C_23
REMARK    8  A    between atoms: C_23  and  C_24
REMARK    9  A    between atoms: C_28  and  N_37
REMARK   10  A    between atoms: C_29  and  C_30
REMARK   11  A    between atoms: C_29  and  C_38
REMARK   12  A    between atoms: C_30  and  C_33
REMARK   13  A    between atoms: C_31  and  C_34
REMARK   14  A    between atoms: C_31  and  C_36
REMARK                            x       y       z     vdW  Elec       q    Type
REMARK                         _______ _______ _______ _____ _____    ______ ____
ROOT
ATOM      1  C   UNL A   1     -24.381   0.574  28.326  0.00  0.00    +0.191 C 
ATOM      2  C   UNL A   1     -22.432   1.356  27.420  0.00  0.00    +0.102 C 
ATOM      3  C   UNL A   1     -23.719   1.056  27.790  0.00  0.00    +0.076 C 
ATOM      4  N   UNL A   1     -24.666   1.295  27.467  0.00  0.00    -0.283 N 
ENDROOT
BRANCH   4   5
ATOM      5  C   UNL A   1     -25.688   1.614  26.461  0.00  0.00    +0.145 C 
ATOM      6  C   UNL A   1     -26.250   2.920  26.395  0.00  0.00    +0.073 C 
ATOM      7  C   UNL A   1     -27.438   3.091  25.645  0.00  0.00    +0.104 C 
ATOM      8  N   UNL A   1     -28.075   2.089  25.003  0.00  0.00    -0.212 NA
ATOM      9  C   UNL A   1     -27.543   0.849  25.079  0.00  0.00    +0.236 C 
ATOM     10  C   UNL A   1     -26.354   0.576  25.777  0.00  0.00    +0.258 C 
ATOM     11  F   UNL A   1     -25.860  -0.681  25.795  0.00  0.00    -0.225 F 
BRANCH   6  12
ATOM     12  C   UNL A   1     -25.642   4.093  27.123  0.00  0.00    +0.264 C 
ATOM     13  N   UNL A   1     -25.614   5.252  26.449  0.00  0.00    -0.200 NA
ATOM     14  C   UNL A   1     -25.026   6.479  26.963  0.00  0.00    +0.139 C 
ATOM     15  O   UNL A   1     -25.143   3.966  28.243  0.00  0.00    -0.269 OA
ENDBRANCH   6  12
BRANCH   9  16
ATOM     16  O   UNL A   1     -28.193  -0.208  24.477  0.00  0.00    -0.459 OA
BRANCH  16  17
ATOM     17  C   UNL A   1     -29.460   0.005  23.866  0.00  0.00    +0.242 C 
BRANCH  17  18
ATOM     18  C   UNL A   1     -30.065  -1.377  23.573  0.00  0.00    +0.229 C 
ATOM     19  O   UNL A   1     -30.729  -1.878  24.721  0.00  0.00    -0.216 OA
ENDBRANCH  17  18
ENDBRANCH  16  17
ENDBRANCH   9  16
ENDBRANCH   4   5
BRANCH   1  20
ATOM     20  N   UNL A   1     -25.321   0.022  29.115  0.00  0.00    -0.257 N 
ATOM     21  C   UNL A   1     -26.667   0.599  29.040  0.00  0.00    +0.230 C 
ATOM     22  O   UNL A   1     -26.824   1.808  29.205  0.00  0.00    -0.275 OA
BRANCH  20  23
ATOM     23  C   UNL A   1     -24.855  -1.012  30.143  0.00  0.00    +0.116 C 
BRANCH  23  24
ATOM     24  C   UNL A   1     -24.973  -2.505  29.788  0.00  0.00    -0.003 C 
ATOM     25  C   UNL A   1     -23.906  -3.173  29.146  0.00  0.00    -0.003 C 
ATOM     26  C   UNL A   1     -23.989  -4.549  28.853  0.00  0.00    -0.000 C 
ATOM     27  C   UNL A   1     -25.137  -5.280  29.205  0.00  0.00    -0.000 C 
ATOM     28  C   UNL A   1     -26.232  -4.611  29.784  0.00  0.00    -0.000 C 
ATOM     29  C   UNL A   1     -26.155  -3.232  30.065  0.00  0.00    -0.003 C 
ENDBRANCH  23  24
BRANCH  23  30
ATOM     30  C   UNL A   1     -25.387  -0.679  31.571  0.00  0.00    +0.095 C 
ATOM     31  C   UNL A   1     -25.189   0.773  32.028  0.00  0.00    +0.021 C 
ATOM     32  C   UNL A   1     -25.336   0.684  33.544  0.00  0.00    +0.020 C 
ATOM     33  C   UNL A   1     -24.829  -0.715  33.905  0.00  0.00    +0.089 C 
ATOM     34  N   UNL A   1     -24.758  -1.481  32.646  0.00  0.00    -0.217 NA
ENDBRANCH  23  30
ENDBRANCH  20  23
BRANCH  21  35
ATOM     35  C   UNL A   1     -27.806  -0.214  28.719  0.00  0.00    +0.121 C 
BRANCH  35  36
ATOM     36  C   UNL A   1     -29.217   0.353  28.915  0.00  0.00    +0.194 C 
ATOM     37  O   UNL A   1     -30.178  -0.491  28.329  0.00  0.00    -0.220 OA
BRANCH  36  38
ATOM     38  C   UNL A   1     -29.713   1.811  28.998  0.00  0.00    +0.215 C 
ATOM     39  O   UNL A   1     -30.828   1.891  29.895  0.00  0.00    -0.218 OA
ENDBRANCH  36  38
ENDBRANCH  35  36
ENDBRANCH  21  35
ENDBRANCH   1  20
BRANCH   2  41
ATOM     40  N   UNL A   1     -21.730  -0.153  29.037  0.00  0.00    -0.146 NA
ATOM     41  C   UNL A   1     -21.445   0.789  28.173  0.00  0.00    +0.133 C 
ENDBRANCH   2  41
BRANCH   2  42
ATOM     42  C   UNL A   1     -22.363   2.084  26.301  0.00  0.00    +0.103 C 
ATOM     43  N   UNL A   1     -22.370   2.665  25.260  0.00  0.00    -0.191 NA
ENDBRANCH   2  42
TORSDOF 14
