MODEL 2337
MODEL 1
REMARK VINA RESULT:    -4.296      0.000      0.000
REMARK INTER + INTRA:          -4.296
REMARK INTER:                  -4.296
REMARK INTRA:                   0.000
REMARK UNBOUND:                 0.000
REMARK  Name = No_2337-gen_results/8p0m/2024-11-27-11-27-31/
REMARK  0 active torsions:
REMARK  status: ('A' for Active; 'I' for Inactive)
REMARK                            x       y       z     vdW  Elec       q    Type
REMARK                         _______ _______ _______ _____ _____    ______ ____
ROOT
ATOM      1  C   UNL A   1     -24.950  -5.372  28.952  0.00  0.00    +0.000 A 
ATOM      2  C   UNL A   1     -24.061  -4.619  28.629  0.00  0.00    +0.000 A 
ATOM      3  C   UNL A   1     -24.029  -3.323  28.750  0.00  0.00    +0.000 A 
ATOM      4  C   UNL A   1     -25.167  -2.672  29.316  0.00  0.00    +0.000 A 
ATOM      5  C   UNL A   1     -26.097  -4.794  29.633  0.00  0.00    +0.000 A 
ATOM      6  C   UNL A   1     -26.170  -3.448  29.766  0.00  0.00    +0.000 A 
ENDROOT
TORSDOF 0
ENDMDL
ENDMDL
