MODEL 2338
MODEL 1
REMARK VINA RESULT:    -5.772      0.000      0.000
REMARK INTER + INTRA:          -5.772
REMARK INTER:                  -5.772
REMARK INTRA:                   0.000
REMARK UNBOUND:                 0.000
REMARK  Name = No_2338-gen_results/8p0m/2024-11-27-11-27-31/
REMARK  0 active torsions:
REMARK  status: ('A' for Active; 'I' for Inactive)
REMARK                            x       y       z     vdW  Elec       q    Type
REMARK                         _______ _______ _______ _____ _____    ______ ____
ROOT
ATOM      1  O   UNL A   1     -22.335   0.100  29.888  0.00  0.00    -0.273 OA
ATOM      2  C   UNL A   1     -23.123  -0.796  29.565  0.00  0.00    +0.246 C 
ATOM      3  C   UNL A   1     -23.103  -1.839  29.109  0.00  0.00    +0.113 C 
ATOM      4  C   UNL A   1     -24.177  -2.900  29.012  0.00  0.00    -0.015 A 
ATOM      5  C   UNL A   1     -24.055  -4.219  28.526  0.00  0.00    -0.004 A 
ATOM      6  N   UNL A   1     -24.623  -0.465  29.944  0.00  0.00    -0.200 NA
ATOM      7  C   UNL A   1     -25.656  -1.242  29.891  0.00  0.00    +0.141 C 
ATOM      8  C   UNL A   1     -25.517  -2.532  29.436  0.00  0.00    -0.004 A 
ATOM      9  C   UNL A   1     -24.812  -5.287  29.012  0.00  0.00    -0.000 A 
ATOM     10  C   UNL A   1     -26.024  -4.859  29.683  0.00  0.00    -0.000 A 
ATOM     11  C   UNL A   1     -26.443  -3.559  29.731  0.00  0.00    -0.003 A 
ENDROOT
TORSDOF 0
ENDMDL
ENDMDL
