MODEL 2339
MODEL 1
REMARK VINA RESULT:    -6.071      0.000      0.000
REMARK INTER + INTRA:          -7.797
REMARK INTER:                  -7.490
REMARK INTRA:                  -0.307
REMARK UNBOUND:                -0.307
REMARK  Name = No_2339-gen_results/8p0m/2024-11-27-11-27-31/
REMARK  4 active torsions:
REMARK  status: ('A' for Active; 'I' for Inactive)
REMARK    1  A    between atoms: C_3  and  C_7
REMARK    2  A    between atoms: C_6  and  C_13
REMARK    3  A    between atoms: C_13  and  N_14
REMARK    4  A    between atoms: N_14  and  C_15
REMARK                            x       y       z     vdW  Elec       q    Type
REMARK                         _______ _______ _______ _____ _____    ______ ____
ROOT
ATOM      1  C   UNL A   1      -9.973   1.973  34.712  0.00  0.00    -0.003 A 
ATOM      2  C   UNL A   1      -8.884   1.508  34.467  0.00  0.00    -0.000 A 
ATOM      3  C   UNL A   1      -8.370   0.375  35.097  0.00  0.00    -0.000 A 
ATOM      4  C   UNL A   1      -9.142  -0.262  36.146  0.00  0.00    -0.000 A 
ATOM      5  C   UNL A   1     -10.398   0.342  36.383  0.00  0.00    -0.003 A 
ATOM      6  C   UNL A   1     -10.794   1.413  35.743  0.00  0.00    -0.002 A 
ENDROOT
BRANCH   3   7
ATOM      7  C   UNL A   1      -7.126  -0.448  34.940  0.00  0.00    -0.000 A 
ATOM      8  C   UNL A   1      -6.960  -1.645  34.529  0.00  0.00    -0.000 A 
ATOM      9  C   UNL A   1      -5.680  -2.277  34.426  0.00  0.00    +0.000 A 
ATOM     10  C   UNL A   1      -4.503  -1.597  34.527  0.00  0.00    +0.000 A 
ATOM     11  C   UNL A   1      -5.823   0.286  35.139  0.00  0.00    -0.000 A 
ATOM     12  C   UNL A   1      -4.605  -0.318  34.978  0.00  0.00    +0.000 A 
ENDBRANCH   3   7
BRANCH   6  13
ATOM     13  C   UNL A   1     -12.096   2.023  36.137  0.00  0.00    +0.118 C 
BRANCH  13  14
ATOM     14  N   UNL A   1     -12.972   2.155  35.223  0.00  0.00    -0.301 N 
ATOM     15  C   UNL A   1     -13.003   1.424  33.892  0.00  0.00    +0.113 C 
BRANCH  14  16
ATOM     16  C   UNL A   1     -13.877   3.005  35.269  0.00  0.00    +0.057 C 
ATOM     17  C   UNL A   1     -14.766   3.022  36.444  0.00  0.00    -0.010 C 
ATOM     18  C   UNL A   1     -15.636   3.918  36.757  0.00  0.00    +0.032 C 
ENDBRANCH  14  16
ENDBRANCH  13  14
ENDBRANCH   6  13
TORSDOF 4
ENDMDL
ENDMDL
