MODEL 233
MODEL 1
REMARK VINA RESULT:    -6.101      0.000      0.000
REMARK INTER + INTRA:          -7.176
REMARK INTER:                  -6.814
REMARK INTRA:                  -0.362
REMARK UNBOUND:                -0.362
REMARK  Name = No_233-gen_results/8p0m/2024-11-27-11-27-31/
REMARK  2 active torsions:
REMARK  status: ('A' for Active; 'I' for Inactive)
REMARK    1  A    between atoms: N_1  and  C_2
REMARK    2  A    between atoms: N_1  and  C_8
REMARK                            x       y       z     vdW  Elec       q    Type
REMARK                         _______ _______ _______ _____ _____    ______ ____
ROOT
ATOM      1  N   UNL A   1     -24.423  -1.227  29.448  0.00  0.00    -0.212 NA
ENDROOT
BRANCH   1   2
ATOM      2  C   UNL A   1     -24.341  -0.499  28.457  0.00  0.00    +0.070 A 
ATOM      3  C   UNL A   1     -23.270   0.370  28.332  0.00  0.00    +0.017 A 
ATOM      4  C   UNL A   1     -23.071   1.230  27.217  0.00  0.00    +0.001 A 
ATOM      5  C   UNL A   1     -24.057   1.225  26.191  0.00  0.00    +0.000 A 
ATOM      6  C   UNL A   1     -25.143   0.319  26.333  0.00  0.00    +0.001 A 
ATOM      7  C   UNL A   1     -25.256  -0.509  27.391  0.00  0.00    +0.017 A 
ENDBRANCH   1   2
BRANCH   1   8
ATOM      8  C   UNL A   1     -24.531  -2.610  29.193  0.00  0.00    +0.070 A 
ATOM      9  C   UNL A   1     -23.833  -3.358  28.743  0.00  0.00    +0.017 A 
ATOM     10  C   UNL A   1     -24.031  -4.772  28.552  0.00  0.00    +0.001 A 
ATOM     11  C   UNL A   1     -25.253  -5.270  29.024  0.00  0.00    +0.000 A 
ATOM     12  C   UNL A   1     -25.870  -3.245  29.763  0.00  0.00    +0.017 A 
ATOM     13  C   UNL A   1     -26.099  -4.527  29.664  0.00  0.00    +0.001 A 
ENDBRANCH   1   8
TORSDOF 2
ENDMDL
ENDMDL
