REMARK  Name = outputs/IAG933/test6/raw/output_234_IAG933_linker_design_.xyz
REMARK  15 active torsions:
REMARK  status: ('A' for Active; 'I' for Inactive)
REMARK    1  A    between atoms: C_1  and  C_2
REMARK    2  A    between atoms: C_1  and  C_8
REMARK    3  A    between atoms: C_1  and  C_41
REMARK    4  A    between atoms: C_14  and  C_15
REMARK    5  A    between atoms: C_15  and  O_18
REMARK    6  A    between atoms: O_18  and  C_28
REMARK    7  A    between atoms: C_21  and  O_22
REMARK    8  A    between atoms: O_22  and  C_23
REMARK    9  A    between atoms: C_23  and  C_24
REMARK   10  A    between atoms: C_34  and  O_38
REMARK   11  A    between atoms: C_36  and  O_38
REMARK   12  A    between atoms: C_36  and  C_41
REMARK   13  A    between atoms: C_37  and  C_39
REMARK   14  A    between atoms: N_40  and  C_41
REMARK   15  A    between atoms: N_40  and  C_43
REMARK                            x       y       z     vdW  Elec       q    Type
REMARK                         _______ _______ _______ _____ _____    ______ ____
ROOT
ATOM      1  C   UNL A   1     -26.148   3.585  29.137  0.00  0.00    +0.162 C 
ATOM      2  C   UNL A   1     -28.799   3.469  29.925  0.00  0.00    +0.006 C 
ATOM      3  C   UNL A   1     -26.725   4.710  29.796  0.00  0.00    +0.039 C 
ATOM      4  C   UNL A   1     -28.198   2.272  29.394  0.00  0.00    +0.074 C 
ATOM      5  C   UNL A   1     -28.098   4.672  30.187  0.00  0.00    +0.003 C 
ATOM      6  C   UNL A   1     -26.753   2.131  29.224  0.00  0.00    +0.105 C 
ENDROOT
BRANCH   4   9
ATOM      7  O   UNL A   1     -28.924   0.251  28.154  0.00  0.00    -0.267 OA
ATOM      8  N   UNL A   1     -29.353   0.564  30.381  0.00  0.00    -0.084 NA
ATOM      9  C   UNL A   1     -28.871   0.978  29.246  0.00  0.00    +0.285 C 
ENDBRANCH   4   9
BRANCH   1  10
ATOM     10  O   UNL A   1     -25.143   3.966  28.243  0.00  0.00    -0.435 OA
BRANCH  10  11
ATOM     11  C   UNL A   1     -25.642   4.093  27.123  0.00  0.00    +0.227 C 
ATOM     12  N   UNL A   1     -25.614   5.252  26.449  0.00  0.00    -0.235 NA
ATOM     13  C   UNL A   1     -25.026   6.479  26.963  0.00  0.00    +0.155 C 
BRANCH  11  15
ATOM     14  C   UNL A   1     -25.688   1.614  26.461  0.00  0.00    +0.041 C 
ATOM     15  C   UNL A   1     -26.250   2.920  26.395  0.00  0.00    +0.075 C 
ATOM     16  C   UNL A   1     -27.438   3.091  25.645  0.00  0.00    +0.107 C 
ATOM     17  N   UNL A   1     -28.075   2.089  25.003  0.00  0.00    -0.208 NA
ATOM     18  C   UNL A   1     -27.543   0.849  25.079  0.00  0.00    +0.253 C 
ATOM     19  C   UNL A   1     -26.354   0.576  25.777  0.00  0.00    +0.193 C 
ATOM     20  F   UNL A   1     -25.860  -0.681  25.795  0.00  0.00    -0.199 F 
BRANCH  18  21
ATOM     21  O   UNL A   1     -28.193  -0.208  24.477  0.00  0.00    -0.456 OA
BRANCH  21  22
ATOM     22  C   UNL A   1     -29.460   0.005  23.866  0.00  0.00    +0.243 C 
BRANCH  22  23
ATOM     23  C   UNL A   1     -30.065  -1.377  23.573  0.00  0.00    +0.229 C 
ATOM     24  O   UNL A   1     -30.729  -1.878  24.721  0.00  0.00    -0.216 OA
ENDBRANCH  22  23
ENDBRANCH  21  22
ENDBRANCH  18  21
ENDBRANCH  11  15
ENDBRANCH  10  11
ENDBRANCH   1  10
BRANCH   6  25
ATOM     25  N   UNL A   1     -26.312   0.663  29.148  0.00  0.00    -0.224 NA
BRANCH  25  26
ATOM     26  C   UNL A   1     -25.028  -0.017  28.917  0.00  0.00    +0.196 C 
BRANCH  26  28
ATOM     27  O   UNL A   1     -23.847   2.087  29.467  0.00  0.00    -0.248 OA
ATOM     28  C   UNL A   1     -23.974   0.959  29.004  0.00  0.00    +0.337 C 
BRANCH  28  29
ATOM     29  O   UNL A   1     -22.863   0.445  28.284  0.00  0.00    -0.447 OA
BRANCH  29  31
ATOM     30  C   UNL A   1     -20.477   1.182  28.223  0.00  0.00    +0.051 C 
ATOM     31  C   UNL A   1     -21.908   1.333  27.773  0.00  0.00    +0.209 C 
ENDBRANCH  29  31
ENDBRANCH  28  29
ENDBRANCH  26  28
BRANCH  26  32
ATOM     32  C   UNL A   1     -24.855  -1.012  30.143  0.00  0.00    +0.069 C 
BRANCH  32  33
ATOM     33  C   UNL A   1     -24.973  -2.505  29.788  0.00  0.00    -0.019 C 
ATOM     34  C   UNL A   1     -23.906  -3.173  29.146  0.00  0.00    -0.004 C 
ATOM     35  C   UNL A   1     -23.989  -4.549  28.853  0.00  0.00    -0.000 C 
ATOM     36  C   UNL A   1     -25.137  -5.280  29.205  0.00  0.00    -0.000 C 
ATOM     37  C   UNL A   1     -26.232  -4.611  29.784  0.00  0.00    -0.000 C 
ATOM     38  C   UNL A   1     -26.155  -3.232  30.065  0.00  0.00    -0.004 C 
ENDBRANCH  32  33
BRANCH  32  39
ATOM     39  C   UNL A   1     -25.387  -0.679  31.571  0.00  0.00    +0.079 C 
ATOM     40  C   UNL A   1     -25.189   0.773  32.028  0.00  0.00    +0.019 C 
ATOM     41  C   UNL A   1     -25.336   0.684  33.544  0.00  0.00    +0.020 C 
ATOM     42  C   UNL A   1     -24.829  -0.715  33.905  0.00  0.00    +0.089 C 
ATOM     43  N   UNL A   1     -24.758  -1.481  32.646  0.00  0.00    -0.219 NA
ENDBRANCH  32  39
ENDBRANCH  26  32
ENDBRANCH  25  26
ENDBRANCH   6  25
TORSDOF 15
