MODEL 2340
MODEL 1
REMARK VINA RESULT:    -6.116      0.000      0.000
REMARK INTER + INTRA:          -6.116
REMARK INTER:                  -6.116
REMARK INTRA:                   0.000
REMARK UNBOUND:                 0.000
REMARK  Name = No_2340-gen_results/8p0m/2024-11-27-11-27-31/
REMARK  0 active torsions:
REMARK  status: ('A' for Active; 'I' for Inactive)
REMARK                            x       y       z     vdW  Elec       q    Type
REMARK                         _______ _______ _______ _____ _____    ______ ____
ROOT
ATOM      1  C   UNL A   1     -22.130  -0.578  29.792  0.00  0.00    +0.099 C 
ATOM      2  C   UNL A   1     -23.218  -1.102  29.858  0.00  0.00    -0.010 A 
ATOM      3  C   UNL A   1     -24.116  -0.873  30.882  0.00  0.00    -0.025 A 
ATOM      4  C   UNL A   1     -25.397  -1.533  31.047  0.00  0.00    -0.004 A 
ATOM      5  C   UNL A   1     -25.797  -2.491  30.090  0.00  0.00    -0.000 A 
ATOM      6  C   UNL A   1     -24.863  -2.749  29.024  0.00  0.00    -0.000 A 
ATOM      7  C   UNL A   1     -23.637  -2.138  28.908  0.00  0.00    -0.003 A 
ATOM      8  N   UNL A   1     -21.880   0.289  28.727  0.00  0.00    -0.265 NA
ATOM      9  C   UNL A   1     -22.460   0.919  28.199  0.00  0.00    +0.080 C 
ATOM     10  C   UNL A   1     -22.780   1.637  27.481  0.00  0.00    -0.015 C 
ATOM     11  C   UNL A   1     -24.078   2.188  27.599  0.00  0.00    -0.030 C 
ATOM     12  C   UNL A   1     -24.677   1.566  28.630  0.00  0.00    +0.024 C 
ATOM     13  C   UNL A   1     -23.827   0.718  29.109  0.00  0.00    +0.027 C 
ATOM     14  C   UNL A   1     -23.753   0.792  30.549  0.00  0.00    +0.028 C 
ATOM     15  C   UNL A   1     -26.070   1.827  28.996  0.00  0.00    +0.005 C 
ATOM     16  C   UNL A   1     -20.427   0.306  28.225  0.00  0.00    +0.090 C 
ENDROOT
TORSDOF 0
ENDMDL
ENDMDL
