REMARK  Name = No_2341-gen_results/8p0m/2024-11-27-11-27-31/
REMARK  2 active torsions:
REMARK  status: ('A' for Active; 'I' for Inactive)
REMARK    1  A    between atoms: C_2  and  O_8
REMARK    2  A    between atoms: O_8  and  C_9
REMARK                            x       y       z     vdW  Elec       q    Type
REMARK                         _______ _______ _______ _____ _____    ______ ____
ROOT
ATOM      1  C   UNL A   1     -28.016  -0.814  28.878  0.00  0.00    +0.038 A 
ATOM      2  C   UNL A   1     -28.469  -0.785  29.829  0.00  0.00    +0.145 A 
ATOM      3  C   UNL A   1     -26.504  -0.778  28.877  0.00  0.00    +0.015 A 
ATOM      4  C   UNL A   1     -25.915  -0.658  29.923  0.00  0.00    +0.058 A 
ATOM      5  C   UNL A   1     -27.954  -0.707  31.041  0.00  0.00    +0.038 A 
ATOM      6  C   UNL A   1     -26.588  -0.633  31.165  0.00  0.00    +0.015 A 
ATOM      7 CL   UNL A   1     -24.178  -0.563  30.019  0.00  0.00    -0.082 Cl
ENDROOT
BRANCH   2   8
ATOM      8  O   UNL A   1     -29.948  -0.883  29.800  0.00  0.00    -0.451 OA
BRANCH   8   9
ATOM      9  C   UNL A   1     -30.613  -1.796  30.393  0.00  0.00    +0.175 C 
ATOM     10  C   UNL A   1     -30.359  -2.712  30.881  0.00  0.00    +0.015 C 
ATOM     11  C   UNL A   1     -31.209  -3.783  31.442  0.00  0.00    +0.034 C 
ENDBRANCH   8   9
ENDBRANCH   2   8
TORSDOF 2
