MODEL 2341
MODEL 1
REMARK VINA RESULT:    -5.039      0.000      0.000
REMARK INTER + INTRA:          -5.788
REMARK INTER:                  -5.628
REMARK INTRA:                  -0.160
REMARK UNBOUND:                -0.160
REMARK  Name = No_2341-gen_results/8p0m/2024-11-27-11-27-31/
REMARK  2 active torsions:
REMARK  status: ('A' for Active; 'I' for Inactive)
REMARK    1  A    between atoms: C_2  and  O_8
REMARK    2  A    between atoms: O_8  and  C_9
REMARK                            x       y       z     vdW  Elec       q    Type
REMARK                         _______ _______ _______ _____ _____    ______ ____
ROOT
ATOM      1  C   UNL A   1     -24.408  -0.365  27.694  0.00  0.00    +0.038 A 
ATOM      2  C   UNL A   1     -23.575  -0.407  28.337  0.00  0.00    +0.145 A 
ATOM      3  C   UNL A   1     -24.395   0.762  26.685  0.00  0.00    +0.015 A 
ATOM      4  C   UNL A   1     -23.495   1.565  26.708  0.00  0.00    +0.058 A 
ATOM      5  C   UNL A   1     -22.509   0.364  28.439  0.00  0.00    +0.038 A 
ATOM      6  C   UNL A   1     -22.403   1.444  27.596  0.00  0.00    +0.015 A 
ATOM      7 CL   UNL A   1     -23.416   2.921  25.617  0.00  0.00    -0.082 Cl
ENDROOT
BRANCH   2   8
ATOM      8  O   UNL A   1     -23.587  -1.556  29.273  0.00  0.00    -0.451 OA
BRANCH   8   9
ATOM      9  C   UNL A   1     -23.816  -2.760  28.919  0.00  0.00    +0.175 C 
ATOM     10  C   UNL A   1     -24.406  -3.559  29.312  0.00  0.00    +0.015 C 
ATOM     11  C   UNL A   1     -24.523  -4.975  28.905  0.00  0.00    +0.034 C 
ENDBRANCH   8   9
ENDBRANCH   2   8
TORSDOF 2
ENDMDL
ENDMDL
