REMARK  Name = No_2342-gen_results/8p0m/2024-11-27-11-27-31/
REMARK  3 active torsions:
REMARK  status: ('A' for Active; 'I' for Inactive)
REMARK    1  A    between atoms: C_6  and  C_11
REMARK    2  A    between atoms: C_11  and  C_13
REMARK    3  A    between atoms: C_13  and  C_14
REMARK                            x       y       z     vdW  Elec       q    Type
REMARK                         _______ _______ _______ _____ _____    ______ ____
ROOT
ATOM      1  F   UNL A   1     -28.073  -1.254  28.532  0.00  0.00    -0.199 F 
ATOM      2  C   UNL A   1     -27.061  -0.629  28.872  0.00  0.00    +0.195 A 
ATOM      3  C   UNL A   1     -26.153  -1.156  29.454  0.00  0.00    +0.172 A 
ATOM      4  C   UNL A   1     -24.878  -0.579  29.864  0.00  0.00    +0.061 A 
ATOM      5  C   UNL A   1     -24.743   0.827  29.481  0.00  0.00    +0.143 A 
ATOM      6  C   UNL A   1     -25.788   1.393  28.763  0.00  0.00    +0.065 A 
ATOM      7  C   UNL A   1     -26.915   0.731  28.443  0.00  0.00    +0.170 A 
ATOM      8  F   UNL A   1     -23.696   1.487  29.833  0.00  0.00    -0.204 F 
ATOM      9  F   UNL A   1     -27.853   1.307  27.728  0.00  0.00    -0.202 F 
ATOM     10  F   UNL A   1     -26.163  -2.461  29.918  0.00  0.00    -0.202 F 
ENDROOT
BRANCH   6  11
ATOM     11  C   UNL A   1     -25.543   2.853  28.364  0.00  0.00    +0.184 C 
ATOM     12  O   UNL A   1     -24.760   3.135  27.378  0.00  0.00    -0.218 OA
BRANCH  11  13
ATOM     13  C   UNL A   1     -26.206   3.882  29.054  0.00  0.00    +0.083 C 
BRANCH  13  14
ATOM     14  C   UNL A   1     -26.498   3.939  30.327  0.00  0.00    +0.062 A 
ATOM     15  N   UNL A   1     -25.890   3.641  31.236  0.00  0.00    -0.248 NA
ATOM     16  C   UNL A   1     -26.273   3.298  32.598  0.00  0.00    +0.098 A 
ATOM     17  C   UNL A   1     -27.520   4.916  30.759  0.00  0.00    +0.015 A 
ATOM     18  C   UNL A   1     -28.064   4.855  32.054  0.00  0.00    +0.003 A 
ATOM     19  C   UNL A   1     -27.269   4.165  33.072  0.00  0.00    +0.021 A 
ENDBRANCH  13  14
ENDBRANCH  11  13
ENDBRANCH   6  11
TORSDOF 3
