REMARK  Name = No_2343-gen_results/8p0m/2024-11-27-11-27-31/
REMARK  3 active torsions:
REMARK  status: ('A' for Active; 'I' for Inactive)
REMARK    1  A    between atoms: C_3  and  C_4
REMARK    2  A    between atoms: C_7  and  C_13
REMARK    3  A    between atoms: C_13  and  C_15
REMARK                            x       y       z     vdW  Elec       q    Type
REMARK                         _______ _______ _______ _____ _____    ______ ____
ROOT
ATOM      1  C   UNL A   1     -28.016  -0.814  28.878  0.00  0.00    -0.000 A 
ATOM      2  C   UNL A   1     -28.469  -0.785  29.829  0.00  0.00    -0.000 A 
ATOM      3  C   UNL A   1     -27.087   0.290  28.638  0.00  0.00    -0.004 A 
ATOM      4  C   UNL A   1     -27.886  -0.505  31.094  0.00  0.00    -0.000 A 
ATOM      5  C   UNL A   1     -26.929   0.593  31.074  0.00  0.00    -0.004 A 
ATOM      6  C   UNL A   1     -26.523   0.955  29.801  0.00  0.00    -0.017 A 
ENDROOT
BRANCH   3   7
ATOM      7  C   UNL A   1     -26.910   0.849  27.420  0.00  0.00    -0.000 A 
ATOM      8  C   UNL A   1     -27.692   1.153  26.599  0.00  0.00    -0.000 A 
ATOM      9  C   UNL A   1     -27.366   1.502  25.210  0.00  0.00    -0.000 A 
ATOM     10  C   UNL A   1     -26.036   1.601  24.846  0.00  0.00    -0.000 A 
ATOM     11  C   UNL A   1     -25.409   0.858  26.981  0.00  0.00    -0.000 A 
ATOM     12  C   UNL A   1     -25.053   1.255  25.761  0.00  0.00    -0.000 A 
ENDBRANCH   3   7
BRANCH   6  13
ATOM     13  C   UNL A   1     -25.472   1.944  29.715  0.00  0.00    +0.066 C 
ATOM     14  C   UNL A   1     -24.098   1.560  29.922  0.00  0.00    +0.011 C 
BRANCH  13  15
ATOM     15  C   UNL A   1     -25.765   3.286  29.242  0.00  0.00    +0.100 C 
ATOM     16  N   UNL A   1     -26.476   4.076  29.985  0.00  0.00    -0.151 NA
ENDBRANCH  13  15
ENDBRANCH   6  13
TORSDOF 3
