REMARK  Name = No_2344-gen_results/8p0m/2024-11-27-11-27-31/
REMARK  5 active torsions:
REMARK  status: ('A' for Active; 'I' for Inactive)
REMARK    1  A    between atoms: C_1  and  C_2
REMARK    2  A    between atoms: C_1  and  N_8
REMARK    3  A    between atoms: C_5  and  C_17
REMARK    4  A    between atoms: C_9  and  C_10
REMARK    5  A    between atoms: C_17  and  C_18
REMARK                            x       y       z     vdW  Elec       q    Type
REMARK                         _______ _______ _______ _____ _____    ______ ____
ROOT
ATOM      1  C   UNL A   1     -27.064  -0.119  28.608  0.00  0.00    -0.001 A 
ATOM      2  C   UNL A   1     -26.929   1.171  29.008  0.00  0.00    -0.003 A 
ATOM      3  C   UNL A   1     -25.770   2.034  28.688  0.00  0.00    -0.004 A 
ATOM      4  C   UNL A   1     -24.714   1.443  27.919  0.00  0.00    -0.014 A 
ATOM      5  C   UNL A   1     -24.859   0.078  27.584  0.00  0.00    -0.004 A 
ATOM      6  C   UNL A   1     -25.965  -0.661  27.916  0.00  0.00    -0.003 A 
ENDROOT
BRANCH   4   7
ATOM      7  C   UNL A   1     -23.517   2.143  27.567  0.00  0.00    +0.117 C 
ATOM      8  C   UNL A   1     -23.727   3.196  26.577  0.00  0.00    +0.013 C 
BRANCH   7   9
ATOM      9  C   UNL A   1     -22.210   1.668  27.798  0.00  0.00    +0.401 C 
ATOM     10  F   UNL A   1     -21.279   1.982  27.061  0.00  0.00    -0.170 F 
ATOM     11  F   UNL A   1     -21.822   2.096  29.115  0.00  0.00    -0.170 F 
ATOM     12  F   UNL A   1     -22.173   0.331  27.997  0.00  0.00    -0.170 F 
ENDBRANCH   7   9
ENDBRANCH   4   7
BRANCH   1  13
ATOM     13  C   UNL A   1     -28.016  -0.814  28.878  0.00  0.00    +0.142 C 
BRANCH  13  14
ATOM     14  N   UNL A   1     -28.700  -0.644  30.077  0.00  0.00    -0.197 NA
ATOM     15  C   UNL A   1     -29.803  -1.365  30.506  0.00  0.00    +0.265 C 
ATOM     16  O   UNL A   1     -30.075  -1.158  31.761  0.00  0.00    -0.268 OA
BRANCH  15  17
ATOM     17  C   UNL A   1     -30.375  -2.179  29.745  0.00  0.00    +0.055 A 
ATOM     18  C   UNL A   1     -30.458  -3.517  30.221  0.00  0.00    +0.005 A 
ATOM     19  C   UNL A   1     -31.065  -4.489  29.394  0.00  0.00    +0.000 A 
ATOM     20  C   UNL A   1     -31.999  -4.116  28.447  0.00  0.00    +0.000 A 
ATOM     21  C   UNL A   1     -32.051  -2.728  28.117  0.00  0.00    +0.000 A 
ATOM     22  C   UNL A   1     -31.311  -1.811  28.793  0.00  0.00    +0.005 A 
ENDBRANCH  15  17
ENDBRANCH  13  14
ENDBRANCH   1  13
TORSDOF 5
