MODEL 2344
MODEL 1
REMARK VINA RESULT:    -6.966      0.000      0.000
REMARK INTER + INTRA:          -9.827
REMARK INTER:                  -9.003
REMARK INTRA:                  -0.824
REMARK UNBOUND:                -0.824
REMARK  Name = No_2344-gen_results/8p0m/2024-11-27-11-27-31/
REMARK  5 active torsions:
REMARK  status: ('A' for Active; 'I' for Inactive)
REMARK    1  A    between atoms: C_1  and  C_2
REMARK    2  A    between atoms: C_1  and  N_8
REMARK    3  A    between atoms: C_5  and  C_17
REMARK    4  A    between atoms: C_9  and  C_10
REMARK    5  A    between atoms: C_17  and  C_18
REMARK                            x       y       z     vdW  Elec       q    Type
REMARK                         _______ _______ _______ _____ _____    ______ ____
ROOT
ATOM      1  C   UNL A   1     -23.805   0.326  28.595  0.00  0.00    -0.001 A 
ATOM      2  C   UNL A   1     -22.992  -0.738  28.814  0.00  0.00    -0.003 A 
ATOM      3  C   UNL A   1     -23.459  -2.132  28.986  0.00  0.00    -0.004 A 
ATOM      4  C   UNL A   1     -24.875  -2.352  28.936  0.00  0.00    -0.014 A 
ATOM      5  C   UNL A   1     -25.691  -1.210  28.778  0.00  0.00    -0.004 A 
ATOM      6  C   UNL A   1     -25.185   0.056  28.625  0.00  0.00    -0.003 A 
ENDROOT
BRANCH   4   7
ATOM      7  C   UNL A   1     -25.473  -3.639  29.123  0.00  0.00    +0.117 C 
ATOM      8  C   UNL A   1     -26.653  -3.613  29.983  0.00  0.00    +0.013 C 
BRANCH   7   9
ATOM      9  C   UNL A   1     -24.830  -4.868  28.875  0.00  0.00    +0.401 C 
ATOM     10  F   UNL A   1     -25.468  -5.864  28.543  0.00  0.00    -0.170 F 
ATOM     11  F   UNL A   1     -23.876  -4.651  27.821  0.00  0.00    -0.170 F 
ATOM     12  F   UNL A   1     -23.972  -5.212  29.861  0.00  0.00    -0.170 F 
ENDBRANCH   7   9
ENDBRANCH   4   7
BRANCH   1  13
ATOM     13  C   UNL A   1     -23.410   1.461  28.458  0.00  0.00    +0.142 C 
BRANCH  13  14
ATOM     14  N   UNL A   1     -22.740   1.844  27.301  0.00  0.00    -0.197 NA
ATOM     15  C   UNL A   1     -23.284   1.949  26.030  0.00  0.00    +0.265 C 
ATOM     16  O   UNL A   1     -22.492   2.561  25.200  0.00  0.00    -0.268 OA
BRANCH  15  17
ATOM     17  C   UNL A   1     -24.452   1.561  25.796  0.00  0.00    +0.055 A 
ATOM     18  C   UNL A   1     -25.456   2.568  25.823  0.00  0.00    +0.005 A 
ATOM     19  C   UNL A   1     -26.798   2.187  25.596  0.00  0.00    +0.000 A 
ATOM     20  C   UNL A   1     -27.088   1.051  24.866  0.00  0.00    +0.000 A 
ATOM     21  C   UNL A   1     -26.014   0.131  24.667  0.00  0.00    +0.000 A 
ATOM     22  C   UNL A   1     -24.749   0.422  25.066  0.00  0.00    +0.005 A 
ENDBRANCH  15  17
ENDBRANCH  13  14
ENDBRANCH   1  13
TORSDOF 5
ENDMDL
ENDMDL
