MODEL 2345
MODEL 1
REMARK VINA RESULT:    -5.079      0.000      0.000
REMARK INTER + INTRA:          -5.417
REMARK INTER:                  -5.376
REMARK INTRA:                  -0.040
REMARK UNBOUND:                -0.040
REMARK  Name = No_2345-gen_results/8p0m/2024-11-27-11-27-31/
REMARK  1 active torsions:
REMARK  status: ('A' for Active; 'I' for Inactive)
REMARK    1  A    between atoms: C_5  and  C_8
REMARK                            x       y       z     vdW  Elec       q    Type
REMARK                         _______ _______ _______ _____ _____    ______ ____
ROOT
ATOM      1 CL   UNL A   1     -30.369 -10.185  29.034  0.00  0.00    -0.082 Cl
ATOM      2  C   UNL A   1     -29.883 -10.832  30.227  0.00  0.00    +0.058 A 
ATOM      3  C   UNL A   1     -30.016 -10.233  31.471  0.00  0.00    +0.011 A 
ATOM      4  C   UNL A   1     -29.075 -10.341  32.498  0.00  0.00    +0.005 A 
ATOM      5  C   UNL A   1     -28.083 -11.399  32.464  0.00  0.00    +0.057 A 
ATOM      6  C   UNL A   1     -27.955 -12.057  31.244  0.00  0.00    +0.005 A 
ATOM      7  C   UNL A   1     -28.757 -11.752  30.201  0.00  0.00    +0.011 A 
ENDROOT
BRANCH   5   8
ATOM      8  C   UNL A   1     -27.269 -11.618  33.623  0.00  0.00    +0.284 C 
ATOM      9  N   UNL A   1     -27.109 -10.994  34.599  0.00  0.00    -0.084 NA
ATOM     10  O   UNL A   1     -26.732 -12.870  33.658  0.00  0.00    -0.267 OA
ENDBRANCH   5   8
TORSDOF 1
ENDMDL
ENDMDL
