REMARK  Name = outputs/IAG933/test6/raw/output_2346_IAG933_linker_design_.xyz
REMARK  12 active torsions:
REMARK  status: ('A' for Active; 'I' for Inactive)
REMARK    1  A    between atoms: C_1  and  C_2
REMARK    2  A    between atoms: C_1  and  C_8
REMARK    3  A    between atoms: C_1  and  O_36
REMARK    4  A    between atoms: C_13  and  C_31
REMARK    5  A    between atoms: C_14  and  C_15
REMARK    6  A    between atoms: C_21  and  O_22
REMARK    7  A    between atoms: O_22  and  C_23
REMARK    8  A    between atoms: C_23  and  C_24
REMARK    9  A    between atoms: N_28  and  C_30
REMARK   10  A    between atoms: N_28  and  C_35
REMARK   11  A    between atoms: N_28  and  O_36
REMARK   12  A    between atoms: C_33  and  C_39
REMARK                            x       y       z     vdW  Elec       q    Type
REMARK                         _______ _______ _______ _____ _____    ______ ____
ROOT
ATOM      1  C   UNL A   1     -23.047   0.910  27.743  0.00  0.00    +0.099 C 
ATOM      2  C   UNL A   1     -24.125   1.543  26.703  0.00  0.00    +0.005 C 
ATOM      3  C   UNL A   1     -23.502   2.331  25.598  0.00  0.00    +0.037 C 
ATOM      4  C   UNL A   1     -21.708   1.020  27.396  0.00  0.00    +0.205 C 
ATOM      5  C   UNL A   1     -22.112   2.409  25.464  0.00  0.00    +0.172 C 
ATOM      6  O   UNL A   1     -21.244   1.637  26.320  0.00  0.00    -0.470 OA
ENDROOT
BRANCH   2   7
ATOM      7  C   UNL A   1     -25.688   1.614  26.461  0.00  0.00    +0.094 C 
ATOM      8  C   UNL A   1     -26.250   2.920  26.395  0.00  0.00    +0.059 C 
ATOM      9  C   UNL A   1     -27.438   3.091  25.645  0.00  0.00    +0.102 C 
ATOM     10  N   UNL A   1     -28.075   2.089  25.003  0.00  0.00    -0.212 NA
ATOM     11  C   UNL A   1     -27.543   0.849  25.079  0.00  0.00    +0.234 C 
ATOM     12  C   UNL A   1     -26.354   0.576  25.777  0.00  0.00    +0.244 C 
ATOM     13  F   UNL A   1     -25.860  -0.681  25.795  0.00  0.00    -0.227 F 
BRANCH   8  14
ATOM     14  C   UNL A   1     -25.642   4.093  27.123  0.00  0.00    +0.263 C 
ATOM     15  N   UNL A   1     -25.614   5.252  26.449  0.00  0.00    -0.200 NA
ATOM     16  C   UNL A   1     -25.026   6.479  26.963  0.00  0.00    +0.139 C 
ATOM     17  O   UNL A   1     -25.143   3.966  28.243  0.00  0.00    -0.269 OA
ENDBRANCH   8  14
BRANCH  11  18
ATOM     18  O   UNL A   1     -28.193  -0.208  24.477  0.00  0.00    -0.459 OA
BRANCH  18  19
ATOM     19  C   UNL A   1     -29.460   0.005  23.866  0.00  0.00    +0.242 C 
BRANCH  19  20
ATOM     20  C   UNL A   1     -30.065  -1.377  23.573  0.00  0.00    +0.229 C 
ATOM     21  O   UNL A   1     -30.729  -1.878  24.721  0.00  0.00    -0.216 OA
ENDBRANCH  19  20
ENDBRANCH  18  19
ENDBRANCH  11  18
ENDBRANCH   2   7
BRANCH   4  23
ATOM     22  C   UNL A   1     -21.062  -0.651  28.990  0.00  0.00    +0.004 C 
ATOM     23  C   UNL A   1     -20.696   0.470  28.241  0.00  0.00    +0.050 C 
ENDBRANCH   4  23
BRANCH   1  24
ATOM     24  N   UNL A   1     -23.485   0.224  28.829  0.00  0.00    -0.207 N 
BRANCH  24  26
ATOM     25  O   UNL A   1     -25.478   0.945  28.904  0.00  0.00    -0.191 OA
ATOM     26  C   UNL A   1     -24.720   0.073  28.464  0.00  0.00    +0.313 C 
ENDBRANCH  24  26
BRANCH  24  27
ATOM     27  O   UNL A   1     -23.443  -0.530  30.051  0.00  0.00    -0.252 OA
BRANCH  27  28
ATOM     28  C   UNL A   1     -24.855  -1.012  30.143  0.00  0.00    +0.182 C 
BRANCH  28  29
ATOM     29  C   UNL A   1     -24.973  -2.505  29.788  0.00  0.00    +0.009 C 
ATOM     30  C   UNL A   1     -23.906  -3.173  29.146  0.00  0.00    -0.002 C 
ATOM     31  C   UNL A   1     -23.989  -4.549  28.853  0.00  0.00    -0.000 C 
ATOM     32  C   UNL A   1     -25.137  -5.280  29.205  0.00  0.00    -0.000 C 
ATOM     33  C   UNL A   1     -26.232  -4.611  29.784  0.00  0.00    -0.000 C 
ATOM     34  C   UNL A   1     -26.155  -3.232  30.065  0.00  0.00    -0.002 C 
ENDBRANCH  28  29
BRANCH  28  35
ATOM     35  C   UNL A   1     -25.387  -0.679  31.571  0.00  0.00    +0.107 C 
ATOM     36  C   UNL A   1     -25.189   0.773  32.028  0.00  0.00    +0.022 C 
ATOM     37  C   UNL A   1     -25.336   0.684  33.544  0.00  0.00    +0.020 C 
ATOM     38  C   UNL A   1     -24.829  -0.715  33.905  0.00  0.00    +0.089 C 
ATOM     39  N   UNL A   1     -24.758  -1.481  32.646  0.00  0.00    -0.217 NA
ENDBRANCH  28  35
ENDBRANCH  27  28
ENDBRANCH  24  27
ENDBRANCH   1  24
TORSDOF 12
