MODEL 2346
MODEL 1
REMARK VINA RESULT:    -6.949      0.000      0.000
REMARK INTER + INTRA:         -12.224
REMARK INTER:                 -10.198
REMARK INTRA:                  -2.026
REMARK UNBOUND:                -2.026
REMARK  Name = No_2346-gen_results/8p0m/2024-11-27-11-27-31/
REMARK  8 active torsions:
REMARK  status: ('A' for Active; 'I' for Inactive)
REMARK    1  A    between atoms: C_1  and  C_2
REMARK    2  A    between atoms: C_1  and  N_8
REMARK    3  A    between atoms: C_4  and  C_18
REMARK    4  A    between atoms: C_5  and  C_12
REMARK    5  A    between atoms: N_13  and  C_15
REMARK    6  A    between atoms: C_22  and  C_29
REMARK    7  A    between atoms: N_30  and  C_32
REMARK    8  A    between atoms: C_32  and  C_33
REMARK                            x       y       z     vdW  Elec       q    Type
REMARK                         _______ _______ _______ _____ _____    ______ ____
ROOT
ATOM      1  C   UNL A   1     -25.821  -0.032  28.435  0.00  0.00    +0.199 C 
ATOM      2  C   UNL A   1     -26.927  -0.221  29.431  0.00  0.00    +0.204 C 
ATOM      3  C   UNL A   1     -27.231  -1.414  29.701  0.00  0.00    +0.039 C 
ATOM      4  C   UNL A   1     -26.470  -2.408  29.603  0.00  0.00    +0.016 C 
ATOM      5  C   UNL A   1     -26.787  -3.810  29.858  0.00  0.00    +0.054 C 
ATOM      6  C   UNL A   1     -25.904  -4.868  29.627  0.00  0.00    +0.004 C 
ATOM      7  C   UNL A   1     -24.570  -4.574  29.156  0.00  0.00    -0.002 C 
ATOM      8  C   UNL A   1     -24.180  -3.256  28.924  0.00  0.00    +0.007 C 
ATOM      9  C   UNL A   1     -25.077  -2.240  29.135  0.00  0.00    +0.161 C 
ATOM     10  O   UNL A   1     -25.254  -1.351  28.086  0.00  0.00    -0.338 OA
ATOM     11  O   UNL A   1     -27.451   0.930  29.835  0.00  0.00    -0.288 OA
ENDROOT
BRANCH   1  14
ATOM     12  C   UNL A   1     -27.485   0.776  25.098  0.00  0.00    -0.001 A 
ATOM     13  C   UNL A   1     -27.093   0.125  26.222  0.00  0.00    -0.004 A 
ATOM     14  C   UNL A   1     -26.198   0.692  27.255  0.00  0.00    +0.013 A 
ATOM     15  C   UNL A   1     -25.699   2.017  27.024  0.00  0.00    +0.010 A 
ATOM     16  C   UNL A   1     -26.072   2.633  25.808  0.00  0.00    +0.001 A 
ATOM     17  C   UNL A   1     -26.908   2.044  24.896  0.00  0.00    -0.003 A 
BRANCH  15  18
ATOM     18  C   UNL A   1     -24.820   2.664  27.940  0.00  0.00    +0.051 C 
ATOM     19  N   UNL A   1     -23.651   2.660  28.177  0.00  0.00    -0.184 NA
ATOM     20  C   UNL A   1     -25.563   3.814  28.644  0.00  0.00    +0.049 C 
BRANCH  19  21
ATOM     21  C   UNL A   1     -22.857   1.897  27.348  0.00  0.00    +0.246 C 
ATOM     22  C   UNL A   1     -22.226   0.711  28.046  0.00  0.00    +0.097 C 
ATOM     23  O   UNL A   1     -22.551   2.228  26.215  0.00  0.00    -0.273 OA
ENDBRANCH  19  21
ENDBRANCH  15  18
BRANCH  12  24
ATOM     24  C   UNL A   1     -28.216   0.300  24.261  0.00  0.00    +0.142 C 
BRANCH  24  25
ATOM     25  N   UNL A   1     -29.138   1.096  23.590  0.00  0.00    -0.191 NA
ATOM     26  C   UNL A   1     -30.212   1.171  23.379  0.00  0.00    +0.300 C 
ATOM     27 BR   UNL A   1     -31.340   2.237  22.470  0.00  0.00    +0.016 Br
ATOM     28  O   UNL A   1     -31.097   0.239  24.029  0.00  0.00    -0.261 OA
ENDBRANCH  24  25
ENDBRANCH  12  24
ENDBRANCH   1  14
BRANCH   5  29
ATOM     29  C   UNL A   1     -28.075  -4.127  30.324  0.00  0.00    +0.265 C 
ATOM     30  N   UNL A   1     -28.859  -4.800  29.643  0.00  0.00    -0.197 NA
ATOM     31  O   UNL A   1     -28.299  -4.002  31.560  0.00  0.00    -0.268 OA
BRANCH  30  32
ATOM     32  C   UNL A   1     -30.205  -5.207  29.987  0.00  0.00    +0.141 C 
BRANCH  32  33
ATOM     33  C   UNL A   1     -30.969  -5.564  29.128  0.00  0.00    -0.007 C 
ATOM     34  C   UNL A   1     -32.010  -4.803  28.655  0.00  0.00    -0.029 C 
ATOM     35  C   UNL A   1     -32.114  -3.473  29.199  0.00  0.00    +0.030 C 
ENDBRANCH  32  33
ENDBRANCH  30  32
ENDBRANCH   5  29
TORSDOF 8
ENDMDL
ENDMDL
