MODEL 2347
MODEL 1
REMARK VINA RESULT:    -6.382      0.000      0.000
REMARK INTER + INTRA:          -6.382
REMARK INTER:                  -6.382
REMARK INTRA:                   0.000
REMARK UNBOUND:                 0.000
REMARK  Name = No_2347-gen_results/8p0m/2024-11-27-11-27-31/
REMARK  0 active torsions:
REMARK  status: ('A' for Active; 'I' for Inactive)
REMARK                            x       y       z     vdW  Elec       q    Type
REMARK                         _______ _______ _______ _____ _____    ______ ____
ROOT
ATOM      1  C   UNL A   1     -24.746   0.938  31.894  0.00  0.00    +0.015 A 
ATOM      2  C   UNL A   1     -24.198   0.978  30.817  0.00  0.00    +0.048 A 
ATOM      3  N   UNL A   1     -24.680   1.628  29.749  0.00  0.00    -0.286 N 
ATOM      4  C   UNL A   1     -24.092   1.753  28.502  0.00  0.00    +0.048 A 
ATOM      5  C   UNL A   1     -24.700   2.495  27.484  0.00  0.00    +0.015 A 
ATOM      6  C   UNL A   1     -24.140   2.689  26.217  0.00  0.00    +0.001 A 
ATOM      7  C   UNL A   1     -22.823   2.304  25.972  0.00  0.00    -0.000 A 
ATOM      8  C   UNL A   1     -22.172   1.567  26.967  0.00  0.00    -0.003 A 
ATOM      9  C   UNL A   1     -22.758   1.362  28.251  0.00  0.00    -0.005 A 
ATOM     10  C   UNL A   1     -24.654  -0.289  32.630  0.00  0.00    +0.001 A 
ATOM     11  C   UNL A   1     -23.494  -1.051  32.486  0.00  0.00    -0.000 A 
ATOM     12  C   UNL A   1     -22.718  -0.868  31.368  0.00  0.00    -0.003 A 
ATOM     13  C   UNL A   1     -23.081   0.069  30.413  0.00  0.00    -0.005 A 
ATOM     14  C   UNL A   1     -22.358   0.285  29.178  0.00  0.00    +0.047 C 
ATOM     15  C   UNL A   1     -25.847   2.512  29.942  0.00  0.00    +0.117 C 
ATOM     16  C   UNL A   1     -21.117  -0.430  28.857  0.00  0.00    +0.009 C 
ENDROOT
TORSDOF 0
ENDMDL
ENDMDL
