MODEL 2348
MODEL 1
REMARK VINA RESULT:    -5.440      0.000      0.000
REMARK INTER + INTRA:          -9.729
REMARK INTER:                  -7.665
REMARK INTRA:                  -2.064
REMARK UNBOUND:                -2.064
REMARK  Name = No_2348-gen_results/8p0m/2024-11-27-11-27-31/
REMARK  7 active torsions:
REMARK  status: ('A' for Active; 'I' for Inactive)
REMARK    1  A    between atoms: C_1  and  C_11
REMARK    2  A    between atoms: C_5  and  C_8
REMARK    3  A    between atoms: C_11  and  O_13
REMARK    4  A    between atoms: O_13  and  C_16
REMARK    5  A    between atoms: C_16  and  C_17
REMARK    6  A    between atoms: C_17  and  C_18
REMARK    7  A    between atoms: C_19  and  C_20
REMARK                            x       y       z     vdW  Elec       q    Type
REMARK                         _______ _______ _______ _____ _____    ______ ____
ROOT
ATOM      1  C   UNL A   1     -30.134 -11.984  11.781  0.00  0.00    +0.078 A 
ATOM      2  C   UNL A   1     -31.103 -11.275  11.644  0.00  0.00    +0.036 A 
ATOM      3  C   UNL A   1     -31.166 -10.159  10.827  0.00  0.00    +0.141 A 
ATOM      4  C   UNL A   1     -30.000  -9.845  10.067  0.00  0.00    +0.034 A 
ATOM      5  C   UNL A   1     -28.996 -10.735  10.115  0.00  0.00    +0.056 A 
ATOM      6  C   UNL A   1     -29.042 -11.786  10.882  0.00  0.00    +0.011 A 
ATOM      7  F   UNL A   1     -32.218  -9.332  10.758  0.00  0.00    -0.204 F 
ENDROOT
BRANCH   5   8
ATOM      8  C   UNL A   1     -27.816 -10.386   9.290  0.00  0.00    +0.249 C 
ATOM      9  N   UNL A   1     -27.649 -10.915   8.129  0.00  0.00    -0.273 N 
ATOM     10  O   UNL A   1     -27.067  -9.422   9.594  0.00  0.00    -0.270 OA
ATOM     11  C   UNL A   1     -28.478 -11.973   7.556  0.00  0.00    +0.115 C 
ATOM     12  C   UNL A   1     -26.554 -10.599   7.253  0.00  0.00    +0.115 C 
ENDBRANCH   5   8
BRANCH   1  13
ATOM     13  C   UNL A   1     -30.031 -13.280  12.532  0.00  0.00    +0.341 C 
ATOM     14  O   UNL A   1     -30.661 -13.317  13.553  0.00  0.00    -0.245 OA
BRANCH  13  15
ATOM     15  O   UNL A   1     -29.357 -14.222  12.183  0.00  0.00    -0.445 OA
BRANCH  15  16
ATOM     16  C   UNL A   1     -29.892 -15.461  11.819  0.00  0.00    +0.213 C 
BRANCH  16  17
ATOM     17  C   UNL A   1     -30.305 -15.524  10.525  0.00  0.00    +0.073 C 
BRANCH  17  18
ATOM     18  C   UNL A   1     -31.717 -15.379  10.399  0.00  0.00    -0.022 C 
ATOM     19  C   UNL A   1     -32.111 -14.665   9.276  0.00  0.00    -0.005 C 
BRANCH  19  20
ATOM     20  C   UNL A   1     -31.442 -13.879   8.775  0.00  0.00    -0.005 C 
ATOM     21  C   UNL A   1     -32.004 -12.594   8.290  0.00  0.00    -0.026 C 
ATOM     22  C   UNL A   1     -33.253 -12.239   8.522  0.00  0.00    +0.031 C 
ENDBRANCH  19  20
ENDBRANCH  17  18
ENDBRANCH  16  17
ENDBRANCH  15  16
ENDBRANCH  13  15
ENDBRANCH   1  13
TORSDOF 7
ENDMDL
ENDMDL
