MODEL 2349
MODEL 1
REMARK VINA RESULT:    -5.735      0.000      0.000
REMARK INTER + INTRA:          -5.735
REMARK INTER:                  -5.735
REMARK INTRA:                   0.000
REMARK UNBOUND:                 0.000
REMARK  Name = No_2349-gen_results/8p0m/2024-11-27-11-27-31/
REMARK  0 active torsions:
REMARK  status: ('A' for Active; 'I' for Inactive)
REMARK                            x       y       z     vdW  Elec       q    Type
REMARK                         _______ _______ _______ _____ _____    ______ ____
ROOT
ATOM      1  O   UNL A   1     -26.776 -12.616  33.976  0.00  0.00    -0.273 OA
ATOM      2  C   UNL A   1     -27.620 -11.988  33.504  0.00  0.00    +0.246 C 
ATOM      3  N   UNL A   1     -28.303 -11.073  33.671  0.00  0.00    -0.200 NA
ATOM      4  C   UNL A   1     -27.685 -12.267  31.915  0.00  0.00    +0.113 C 
ATOM      5  C   UNL A   1     -28.616 -11.614  31.117  0.00  0.00    -0.015 A 
ATOM      6  C   UNL A   1     -28.691 -11.768  29.711  0.00  0.00    -0.004 A 
ATOM      7  C   UNL A   1     -29.250 -10.288  33.057  0.00  0.00    +0.141 C 
ATOM      8  C   UNL A   1     -29.419 -10.512  31.701  0.00  0.00    -0.004 A 
ATOM      9  C   UNL A   1     -29.389 -11.318  28.999  0.00  0.00    -0.000 A 
ATOM     10  C   UNL A   1     -30.289 -10.153  29.520  0.00  0.00    -0.000 A 
ATOM     11  C   UNL A   1     -30.239  -9.852  30.787  0.00  0.00    -0.003 A 
ENDROOT
TORSDOF 0
ENDMDL
ENDMDL
