REMARK  Name = outputs/IAG933/test6/raw/output_2350_IAG933_linker_design_.xyz
REMARK  10 active torsions:
REMARK  status: ('A' for Active; 'I' for Inactive)
REMARK    1  A    between atoms: C_1  and  C_2
REMARK    2  A    between atoms: C_1  and  C_8
REMARK    3  A    between atoms: C_1  and  N_42
REMARK    4  A    between atoms: C_13  and  N_32
REMARK    5  A    between atoms: C_14  and  C_15
REMARK    6  A    between atoms: C_21  and  O_22
REMARK    7  A    between atoms: O_22  and  C_23
REMARK    8  A    between atoms: C_23  and  C_24
REMARK    9  A    between atoms: C_30  and  C_36
REMARK   10  A    between atoms: C_36  and  C_38
REMARK                            x       y       z     vdW  Elec       q    Type
REMARK                         _______ _______ _______ _____ _____    ______ ____
ROOT
ATOM      1  C   UNL A   1     -23.428   1.496  27.152  0.00  0.00    +0.201 C 
ATOM      2  C   UNL A   1     -23.091   0.153  29.050  0.00  0.00    +0.213 C 
ATOM      3  N   UNL A   1     -24.855   1.284  27.378  0.00  0.00    -0.238 NA
ATOM      4 CL   UNL A   1     -22.884   2.379  25.737  0.00  0.00    -0.089 Cl
ATOM      5  C   UNL A   1     -25.541   0.423  28.166  0.00  0.00    +0.122 C 
ATOM      6  C   UNL A   1     -22.483   0.937  27.957  0.00  0.00    +0.213 C 
ATOM      7  O   UNL A   1     -21.241   1.095  27.769  0.00  0.00    -0.290 OA
ATOM      8  N   UNL A   1     -24.548  -0.024  29.145  0.00  0.00    -0.237 NA
ATOM      9  N   UNL A   1     -22.227  -0.223  30.018  0.00  0.00    -0.107 NA
ENDROOT
BRANCH   3  10
ATOM     10  C   UNL A   1     -25.688   1.614  26.461  0.00  0.00    +0.131 C 
ATOM     11  C   UNL A   1     -26.250   2.920  26.395  0.00  0.00    +0.070 C 
ATOM     12  C   UNL A   1     -27.438   3.091  25.645  0.00  0.00    +0.103 C 
ATOM     13  N   UNL A   1     -28.075   2.089  25.003  0.00  0.00    -0.212 NA
ATOM     14  C   UNL A   1     -27.543   0.849  25.079  0.00  0.00    +0.235 C 
ATOM     15  C   UNL A   1     -26.354   0.576  25.777  0.00  0.00    +0.255 C 
ATOM     16  F   UNL A   1     -25.860  -0.681  25.795  0.00  0.00    -0.225 F 
BRANCH  11  17
ATOM     17  C   UNL A   1     -25.642   4.093  27.123  0.00  0.00    +0.264 C 
ATOM     18  N   UNL A   1     -25.614   5.252  26.449  0.00  0.00    -0.200 NA
ATOM     19  C   UNL A   1     -25.026   6.479  26.963  0.00  0.00    +0.139 C 
ATOM     20  O   UNL A   1     -25.143   3.966  28.243  0.00  0.00    -0.269 OA
ENDBRANCH  11  17
BRANCH  14  21
ATOM     21  O   UNL A   1     -28.193  -0.208  24.477  0.00  0.00    -0.459 OA
BRANCH  21  22
ATOM     22  C   UNL A   1     -29.460   0.005  23.866  0.00  0.00    +0.242 C 
BRANCH  22  23
ATOM     23  C   UNL A   1     -30.065  -1.377  23.573  0.00  0.00    +0.229 C 
ATOM     24  O   UNL A   1     -30.729  -1.878  24.721  0.00  0.00    -0.216 OA
ENDBRANCH  22  23
ENDBRANCH  21  22
ENDBRANCH  14  21
ENDBRANCH   3  10
BRANCH   8  25
ATOM     25  C   UNL A   1     -24.855  -1.012  30.143  0.00  0.00    +0.099 C 
BRANCH  25  26
ATOM     26  C   UNL A   1     -24.973  -2.505  29.788  0.00  0.00    -0.006 C 
ATOM     27  C   UNL A   1     -23.906  -3.173  29.146  0.00  0.00    -0.003 C 
ATOM     28  C   UNL A   1     -23.989  -4.549  28.853  0.00  0.00    -0.000 C 
ATOM     29  C   UNL A   1     -25.137  -5.280  29.205  0.00  0.00    -0.000 C 
ATOM     30  C   UNL A   1     -26.232  -4.611  29.784  0.00  0.00    -0.000 C 
ATOM     31  C   UNL A   1     -26.155  -3.232  30.065  0.00  0.00    -0.003 C 
ENDBRANCH  25  26
BRANCH  25  32
ATOM     32  C   UNL A   1     -25.387  -0.679  31.571  0.00  0.00    +0.092 C 
ATOM     33  C   UNL A   1     -25.189   0.773  32.028  0.00  0.00    +0.021 C 
ATOM     34  C   UNL A   1     -25.336   0.684  33.544  0.00  0.00    +0.020 C 
ATOM     35  C   UNL A   1     -24.829  -0.715  33.905  0.00  0.00    +0.089 C 
ATOM     36  N   UNL A   1     -24.758  -1.481  32.646  0.00  0.00    -0.218 NA
ENDBRANCH  25  32
ENDBRANCH   8  25
BRANCH   5  37
ATOM     37  C   UNL A   1     -26.728   0.942  29.081  0.00  0.00    +0.038 C 
BRANCH  37  39
ATOM     38  O   UNL A   1     -28.814   5.257  29.622  0.00  0.00    -0.275 OA
ATOM     39  C   UNL A   1     -28.101   1.686  29.038  0.00  0.00    +0.034 C 
ATOM     40  C   UNL A   1     -28.248   3.055  29.596  0.00  0.00    +0.090 C 
ATOM     41  C   UNL A   1     -31.500   5.048  28.980  0.00  0.00    +0.115 C 
ATOM     42  N   UNL A   1     -30.437   4.069  28.655  0.00  0.00    -0.274 N 
ATOM     43  C   UNL A   1     -30.169   1.803  27.651  0.00  0.00    -0.009 C 
ATOM     44  C   UNL A   1     -29.145   1.113  28.303  0.00  0.00    -0.029 C 
ATOM     45  C   UNL A   1     -30.657   3.111  27.662  0.00  0.00    +0.120 C 
ATOM     46  C   UNL A   1     -29.169   4.163  29.305  0.00  0.00    +0.226 C 
ENDBRANCH  37  39
ENDBRANCH   5  37
TORSDOF 10
