MODEL 2350
MODEL 1
REMARK VINA RESULT:    -5.760      0.000      0.000
REMARK INTER + INTRA:          -5.760
REMARK INTER:                  -5.760
REMARK INTRA:                   0.000
REMARK UNBOUND:                 0.000
REMARK  Name = No_2350-gen_results/8p0m/2024-11-27-11-27-31/
REMARK  0 active torsions:
REMARK  status: ('A' for Active; 'I' for Inactive)
REMARK                            x       y       z     vdW  Elec       q    Type
REMARK                         _______ _______ _______ _____ _____    ______ ____
ROOT
ATOM      1  F   UNL A   1     -29.907 -10.974  27.621  0.00  0.00    -0.204 F 
ATOM      2  C   UNL A   1     -29.806 -10.870  28.849  0.00  0.00    +0.140 A 
ATOM      3  C   UNL A   1     -30.516  -9.935  29.504  0.00  0.00    +0.030 A 
ATOM      4  C   UNL A   1     -28.896 -11.786  29.582  0.00  0.00    +0.030 A 
ATOM      5  C   UNL A   1     -28.695 -11.595  30.986  0.00  0.00    +0.005 A 
ATOM      6  C   UNL A   1     -30.319  -9.766  30.958  0.00  0.00    +0.002 A 
ATOM      7  C   UNL A   1     -29.419 -10.609  31.681  0.00  0.00    +0.000 A 
ATOM      8  C   UNL A   1     -27.837 -12.421  31.802  0.00  0.00    +0.042 A 
ATOM      9  C   UNL A   1     -27.472 -11.973  33.100  0.00  0.00    +0.196 A 
ATOM     10  C   UNL A   1     -27.984 -10.838  33.669  0.00  0.00    +0.042 A 
ATOM     11  C   UNL A   1     -29.028 -10.236  33.031  0.00  0.00    +0.003 A 
ATOM     12  O   UNL A   1     -26.568 -12.680  33.812  0.00  0.00    -0.287 OA
ENDROOT
TORSDOF 0
ENDMDL
ENDMDL
