REMARK  Name = outputs/IAG933/test6/raw/output_2351_IAG933_linker_design_.xyz
REMARK  16 active torsions:
REMARK  status: ('A' for Active; 'I' for Inactive)
REMARK    1  A    between atoms: C_1  and  C_2
REMARK    2  A    between atoms: C_1  and  C_8
REMARK    3  A    between atoms: C_1  and  C_31
REMARK    4  A    between atoms: C_9  and  C_43
REMARK    5  A    between atoms: C_13  and  C_40
REMARK    6  A    between atoms: C_14  and  C_15
REMARK    7  A    between atoms: C_21  and  O_22
REMARK    8  A    between atoms: O_22  and  C_23
REMARK    9  A    between atoms: C_23  and  C_24
REMARK   10  A    between atoms: C_30  and  C_44
REMARK   11  A    between atoms: C_31  and  N_34
REMARK   12  A    between atoms: C_33  and  N_41
REMARK   13  A    between atoms: N_34  and  C_40
REMARK   14  A    between atoms: N_34  and  C_44
REMARK   15  A    between atoms: C_36  and  C_39
REMARK   16  A    between atoms: C_39  and  C_46
REMARK                            x       y       z     vdW  Elec       q    Type
REMARK                         _______ _______ _______ _____ _____    ______ ____
ROOT
ATOM      1  C   UNL A   1     -24.855  -1.012  30.143  0.00  0.00    +0.054 C 
ENDROOT
BRANCH   1   2
ATOM      2  C   UNL A   1     -24.973  -2.505  29.788  0.00  0.00    -0.020 C 
ATOM      3  C   UNL A   1     -23.906  -3.173  29.146  0.00  0.00    -0.004 C 
ATOM      4  C   UNL A   1     -23.989  -4.549  28.853  0.00  0.00    -0.000 C 
ATOM      5  C   UNL A   1     -25.137  -5.280  29.205  0.00  0.00    -0.000 C 
ATOM      6  C   UNL A   1     -26.232  -4.611  29.784  0.00  0.00    -0.000 C 
ATOM      7  C   UNL A   1     -26.155  -3.232  30.065  0.00  0.00    -0.004 C 
ENDBRANCH   1   2
BRANCH   1   8
ATOM      8  C   UNL A   1     -25.387  -0.679  31.571  0.00  0.00    +0.081 C 
ATOM      9  C   UNL A   1     -25.189   0.773  32.028  0.00  0.00    +0.049 C 
ATOM     10  C   UNL A   1     -25.336   0.684  33.544  0.00  0.00    +0.023 C 
ATOM     11  C   UNL A   1     -24.829  -0.715  33.905  0.00  0.00    +0.089 C 
ATOM     12  N   UNL A   1     -24.758  -1.481  32.646  0.00  0.00    -0.219 NA
BRANCH   9  20
ATOM     13  C   UNL A   1     -25.401   5.218  32.487  0.00  0.00    +0.162 C 
ATOM     14  O   UNL A   1     -24.509   4.135  32.992  0.00  0.00    -0.327 OA
ATOM     15  O   UNL A   1     -24.588   2.667  30.539  0.00  0.00    -0.327 OA
ATOM     16  C   UNL A   1     -26.692   2.562  31.408  0.00  0.00    +0.091 C 
ATOM     17  C   UNL A   1     -26.351   4.969  31.260  0.00  0.00    +0.106 C 
ATOM     18  N   UNL A   1     -27.230   3.850  31.640  0.00  0.00    -0.253 NA
ATOM     19  C   UNL A   1     -24.194   3.114  31.876  0.00  0.00    +0.262 C 
ATOM     20  C   UNL A   1     -25.338   2.290  31.547  0.00  0.00    +0.161 C 
BRANCH  18  21
ATOM     21  C   UNL A   1     -28.356   4.077  32.239  0.00  0.00    +0.184 C 
ATOM     22  N   UNL A   1     -28.937   5.315  32.386  0.00  0.00    -0.112 NA
ENDBRANCH  18  21
BRANCH  16  23
ATOM     23  C   UNL A   1     -27.288   2.011  29.928  0.00  0.00    +0.054 C 
BRANCH  23  25
ATOM     24  O   UNL A   1     -29.755   2.623  30.544  0.00  0.00    -0.220 OA
ATOM     25  C   UNL A   1     -28.618   2.777  29.607  0.00  0.00    +0.184 C 
ENDBRANCH  23  25
ENDBRANCH  16  23
ENDBRANCH   9  20
ENDBRANCH   1   8
BRANCH   1  26
ATOM     26  C   UNL A   1     -25.221  -0.011  28.968  0.00  0.00    +0.078 C 
BRANCH  26  27
ATOM     27  N   UNL A   1     -24.108   0.403  27.930  0.00  0.00    -0.272 NA
BRANCH  27  28
ATOM     28  C   UNL A   1     -24.220   1.374  26.728  0.00  0.00    +0.080 C 
BRANCH  28  29
ATOM     29  C   UNL A   1     -25.688   1.614  26.461  0.00  0.00    +0.086 C 
ATOM     30  C   UNL A   1     -26.250   2.920  26.395  0.00  0.00    +0.056 C 
ATOM     31  C   UNL A   1     -27.438   3.091  25.645  0.00  0.00    +0.102 C 
ATOM     32  N   UNL A   1     -28.075   2.089  25.003  0.00  0.00    -0.212 NA
ATOM     33  C   UNL A   1     -27.543   0.849  25.079  0.00  0.00    +0.234 C 
ATOM     34  C   UNL A   1     -26.354   0.576  25.777  0.00  0.00    +0.241 C 
ATOM     35  F   UNL A   1     -25.860  -0.681  25.795  0.00  0.00    -0.227 F 
BRANCH  30  36
ATOM     36  C   UNL A   1     -25.642   4.093  27.123  0.00  0.00    +0.263 C 
ATOM     37  N   UNL A   1     -25.614   5.252  26.449  0.00  0.00    -0.200 NA
ATOM     38  C   UNL A   1     -25.026   6.479  26.963  0.00  0.00    +0.139 C 
ATOM     39  O   UNL A   1     -25.143   3.966  28.243  0.00  0.00    -0.269 OA
ENDBRANCH  30  36
BRANCH  33  40
ATOM     40  O   UNL A   1     -28.193  -0.208  24.477  0.00  0.00    -0.459 OA
BRANCH  40  41
ATOM     41  C   UNL A   1     -29.460   0.005  23.866  0.00  0.00    +0.242 C 
BRANCH  41  42
ATOM     42  C   UNL A   1     -30.065  -1.377  23.573  0.00  0.00    +0.229 C 
ATOM     43  O   UNL A   1     -30.729  -1.878  24.721  0.00  0.00    -0.216 OA
ENDBRANCH  41  42
ENDBRANCH  40  41
ENDBRANCH  33  40
ENDBRANCH  28  29
ENDBRANCH  27  28
BRANCH  27  44
ATOM     44  C   UNL A   1     -22.794   0.528  28.530  0.00  0.00    +0.072 C 
BRANCH  44  46
ATOM     45  C   UNL A   1     -21.245   1.914  27.055  0.00  0.00    +0.002 C 
ATOM     46  C   UNL A   1     -22.231   1.967  28.191  0.00  0.00    +0.017 C 
ENDBRANCH  44  46
ENDBRANCH  27  44
ENDBRANCH  26  27
ENDBRANCH   1  26
TORSDOF 16
