MODEL 2351
MODEL 1
REMARK VINA RESULT:    -7.751      0.000      0.000
REMARK INTER + INTRA:          -8.671
REMARK INTER:                  -8.204
REMARK INTRA:                  -0.466
REMARK UNBOUND:                -0.466
REMARK  Name = No_2351-gen_results/8p0m/2024-11-27-11-27-31/
REMARK  1 active torsions:
REMARK  status: ('A' for Active; 'I' for Inactive)
REMARK    1  A    between atoms: C_4  and  C_11
REMARK                            x       y       z     vdW  Elec       q    Type
REMARK                         _______ _______ _______ _____ _____    ______ ____
ROOT
ATOM      1  C   UNL A   1     -25.733   0.270  25.878  0.00  0.00    +0.000 A 
ATOM      2  C   UNL A   1     -25.450  -0.504  26.762  0.00  0.00    +0.000 A 
ATOM      3  C   UNL A   1     -24.343  -0.352  27.596  0.00  0.00    +0.000 A 
ATOM      4  C   UNL A   1     -23.918  -1.250  28.687  0.00  0.00    +0.000 A 
ATOM      5  C   UNL A   1     -22.743  -1.083  29.504  0.00  0.00    +0.000 A 
ATOM      6  C   UNL A   1     -22.092   0.144  29.348  0.00  0.00    +0.000 A 
ATOM      7  C   UNL A   1     -24.744   1.360  25.572  0.00  0.00    +0.000 A 
ATOM      8  C   UNL A   1     -23.676   1.638  26.394  0.00  0.00    +0.000 A 
ATOM      9  C   UNL A   1     -23.384   0.772  27.432  0.00  0.00    +0.000 A 
ATOM     10  C   UNL A   1     -22.320   1.011  28.300  0.00  0.00    +0.000 A 
ENDROOT
BRANCH   4  11
ATOM     11  C   UNL A   1     -24.712  -2.483  28.995  0.00  0.00    +0.000 A 
ATOM     12  C   UNL A   1     -24.167  -3.700  28.604  0.00  0.00    +0.000 A 
ATOM     13  C   UNL A   1     -25.929  -2.392  29.554  0.00  0.00    +0.000 A 
ATOM     14  C   UNL A   1     -26.585  -3.510  30.045  0.00  0.00    +0.000 A 
ATOM     15  C   UNL A   1     -24.816  -4.905  29.018  0.00  0.00    +0.000 A 
ATOM     16  C   UNL A   1     -26.080  -4.821  29.597  0.00  0.00    +0.000 A 
ENDBRANCH   4  11
TORSDOF 1
ENDMDL
ENDMDL
