REMARK  Name = outputs/IAG933/test6/raw/output_2352_IAG933_linker_design_.xyz
REMARK  11 active torsions:
REMARK  status: ('A' for Active; 'I' for Inactive)
REMARK    1  A    between atoms: C_1  and  C_2
REMARK    2  A    between atoms: C_1  and  C_8
REMARK    3  A    between atoms: C_1  and  C_29
REMARK    4  A    between atoms: C_13  and  N_31
REMARK    5  A    between atoms: C_14  and  C_15
REMARK    6  A    between atoms: C_21  and  O_22
REMARK    7  A    between atoms: O_22  and  C_23
REMARK    8  A    between atoms: C_23  and  C_24
REMARK    9  A    between atoms: C_28  and  N_30
REMARK   10  A    between atoms: C_28  and  N_31
REMARK   11  A    between atoms: C_29  and  N_30
REMARK                            x       y       z     vdW  Elec       q    Type
REMARK                         _______ _______ _______ _____ _____    ______ ____
ROOT
ATOM      1  C   UNL A   1     -23.547   1.225  27.576  0.00  0.00    +0.171 C 
ATOM      2  S   UNL A   1     -21.744   1.488  27.491  0.00  0.00    -0.015 S 
ENDROOT
BRANCH   1   3
ATOM      3  N   UNL A   1     -24.095   0.609  28.541  0.00  0.00    -0.216 NA
BRANCH   3   4
ATOM      4  C   UNL A   1     -23.664  -0.231  29.633  0.00  0.00    +0.120 C 
BRANCH   4   5
ATOM      5  C   UNL A   1     -24.855  -1.012  30.143  0.00  0.00    +0.060 C 
BRANCH   5   6
ATOM      6  C   UNL A   1     -24.973  -2.505  29.788  0.00  0.00    -0.019 C 
ATOM      7  C   UNL A   1     -23.906  -3.173  29.146  0.00  0.00    -0.004 C 
ATOM      8  C   UNL A   1     -23.989  -4.549  28.853  0.00  0.00    -0.000 C 
ATOM      9  C   UNL A   1     -25.137  -5.280  29.205  0.00  0.00    -0.000 C 
ATOM     10  C   UNL A   1     -26.232  -4.611  29.784  0.00  0.00    -0.000 C 
ATOM     11  C   UNL A   1     -26.155  -3.232  30.065  0.00  0.00    -0.004 C 
ENDBRANCH   5   6
BRANCH   5  12
ATOM     12  C   UNL A   1     -25.387  -0.679  31.571  0.00  0.00    +0.079 C 
ATOM     13  C   UNL A   1     -25.189   0.773  32.028  0.00  0.00    +0.019 C 
ATOM     14  C   UNL A   1     -25.336   0.684  33.544  0.00  0.00    +0.020 C 
ATOM     15  C   UNL A   1     -24.829  -0.715  33.905  0.00  0.00    +0.089 C 
ATOM     16  N   UNL A   1     -24.758  -1.481  32.646  0.00  0.00    -0.219 NA
ENDBRANCH   5  12
ENDBRANCH   4   5
ENDBRANCH   3   4
ENDBRANCH   1   3
BRANCH   1  17
ATOM     17  N   UNL A   1     -24.360   1.516  26.765  0.00  0.00    -0.210 NA
BRANCH  17  18
ATOM     18  C   UNL A   1     -25.688   1.614  26.461  0.00  0.00    +0.164 C 
ATOM     19  C   UNL A   1     -26.250   2.920  26.395  0.00  0.00    +0.075 C 
ATOM     20  C   UNL A   1     -27.438   3.091  25.645  0.00  0.00    +0.104 C 
ATOM     21  N   UNL A   1     -28.075   2.089  25.003  0.00  0.00    -0.212 NA
ATOM     22  C   UNL A   1     -27.543   0.849  25.079  0.00  0.00    +0.236 C 
ATOM     23  C   UNL A   1     -26.354   0.576  25.777  0.00  0.00    +0.260 C 
ATOM     24  F   UNL A   1     -25.860  -0.681  25.795  0.00  0.00    -0.225 F 
BRANCH  19  25
ATOM     25  C   UNL A   1     -25.642   4.093  27.123  0.00  0.00    +0.264 C 
ATOM     26  N   UNL A   1     -25.614   5.252  26.449  0.00  0.00    -0.200 NA
ATOM     27  C   UNL A   1     -25.026   6.479  26.963  0.00  0.00    +0.139 C 
ATOM     28  O   UNL A   1     -25.143   3.966  28.243  0.00  0.00    -0.269 OA
ENDBRANCH  19  25
BRANCH  22  29
ATOM     29  O   UNL A   1     -28.193  -0.208  24.477  0.00  0.00    -0.459 OA
BRANCH  29  30
ATOM     30  C   UNL A   1     -29.460   0.005  23.866  0.00  0.00    +0.242 C 
BRANCH  30  31
ATOM     31  C   UNL A   1     -30.065  -1.377  23.573  0.00  0.00    +0.229 C 
ATOM     32  O   UNL A   1     -30.729  -1.878  24.721  0.00  0.00    -0.216 OA
ENDBRANCH  30  31
ENDBRANCH  29  30
ENDBRANCH  22  29
ENDBRANCH  17  18
ENDBRANCH   1  17
TORSDOF 11
