MODEL 2353
MODEL 1
REMARK VINA RESULT:    -5.678      0.000      0.000
REMARK INTER + INTRA:          -6.343
REMARK INTER:                  -7.006
REMARK INTRA:                   0.663
REMARK UNBOUND:                 0.663
REMARK  Name = No_2353-gen_results/8p0m/2024-11-27-11-27-31/
REMARK  4 active torsions:
REMARK  status: ('A' for Active; 'I' for Inactive)
REMARK    1  A    between atoms: C_1  and  C_2
REMARK    2  A    between atoms: C_6  and  C_15
REMARK    3  A    between atoms: N_8  and  C_11
REMARK    4  A    between atoms: C_11  and  C_12
REMARK                            x       y       z     vdW  Elec       q    Type
REMARK                         _______ _______ _______ _____ _____    ______ ____
ROOT
ATOM      1  C   UNL A   1      -7.242   0.045  10.070  0.00  0.00    +0.055 A 
ATOM      2  C   UNL A   1      -7.829  -0.063  11.316  0.00  0.00    +0.005 A 
ATOM      3  C   UNL A   1      -8.824   0.840  11.863  0.00  0.00    +0.006 A 
ATOM      4  C   UNL A   1      -9.267   1.621  11.253  0.00  0.00    +0.031 A 
ATOM      5  C   UNL A   1      -8.828   1.959   9.862  0.00  0.00    -0.016 A 
ATOM      6  C   UNL A   1      -7.847   1.117   9.284  0.00  0.00    +0.001 A 
ATOM      7 BR   UNL A   1     -10.590   2.967  11.825  0.00  0.00    -0.049 Br
ENDROOT
BRANCH   5   8
ATOM      8  C   UNL A   1      -9.417   3.082   9.039  0.00  0.00    +0.019 C 
ATOM      9  C   UNL A   1      -9.410   4.303   9.587  0.00  0.00    +0.004 C 
ATOM     10  C   UNL A   1      -8.717   3.322   7.799  0.00  0.00    +0.004 C 
ATOM     11  C   UNL A   1     -10.902   2.580   8.736  0.00  0.00    +0.004 C 
ENDBRANCH   5   8
BRANCH   1  12
ATOM     12  C   UNL A   1      -6.464  -0.767   9.624  0.00  0.00    +0.265 C 
ATOM     13  N   UNL A   1      -6.167  -0.614   8.273  0.00  0.00    -0.189 NA
ATOM     14  O   UNL A   1      -5.612  -1.380  10.259  0.00  0.00    -0.268 OA
BRANCH  13  15
ATOM     15  C   UNL A   1      -5.170  -1.484   7.533  0.00  0.00    +0.229 C 
BRANCH  15  16
ATOM     16  C   UNL A   1      -4.043  -0.944   7.197  0.00  0.00    +0.387 C 
ATOM     17  O   UNL A   1      -3.912   0.076   6.825  0.00  0.00    -0.244 OA
ATOM     18  O   UNL A   1      -3.030  -1.846   7.149  0.00  0.00    -0.244 OA
ENDBRANCH  15  16
ENDBRANCH  13  15
ENDBRANCH   1  12
TORSDOF 4
ENDMDL
ENDMDL
