REMARK  Name = outputs/IAG933/test6/raw/output_2354_IAG933_linker_design_.xyz
REMARK  8 active torsions:
REMARK  status: ('A' for Active; 'I' for Inactive)
REMARK    1  A    between atoms: C_1  and  C_2
REMARK    2  A    between atoms: C_1  and  C_8
REMARK    3  A    between atoms: C_1  and  C_37
REMARK    4  A    between atoms: C_13  and  N_31
REMARK    5  A    between atoms: C_14  and  C_15
REMARK    6  A    between atoms: C_21  and  O_22
REMARK    7  A    between atoms: O_22  and  C_23
REMARK    8  A    between atoms: C_23  and  C_24
REMARK                            x       y       z     vdW  Elec       q    Type
REMARK                         _______ _______ _______ _____ _____    ______ ____
ROOT
ATOM      1  N   UNL A   1     -24.448   0.248  28.467  0.00  0.00    -0.229 NA
ATOM      2  C   UNL A   1     -23.854   0.884  27.536  0.00  0.00    +0.186 A 
ATOM      3  O   UNL A   1     -23.248   2.149  24.651  0.00  0.00    -0.223 OA
ATOM      4  N   UNL A   1     -24.282   1.556  26.676  0.00  0.00    -0.242 N 
ATOM      5  C   UNL A   1     -21.703   0.677  28.451  0.00  0.00    +0.179 C 
ATOM      6  O   UNL A   1     -21.997   1.946  26.450  0.00  0.00    -0.403 OA
ATOM      7  F   UNL A   1     -20.366   0.848  28.312  0.00  0.00    -0.201 F 
ATOM      8  C   UNL A   1     -22.363  -0.126  29.526  0.00  0.00    +0.048 C 
ATOM      9  C   UNL A   1     -23.147   2.038  25.835  0.00  0.00    +0.423 A 
ATOM     10  C   UNL A   1     -23.819  -0.250  29.417  0.00  0.00    +0.068 C 
ATOM     11  C   UNL A   1     -22.465   1.182  27.454  0.00  0.00    +0.211 A 
ENDROOT
BRANCH   4  12
ATOM     12  C   UNL A   1     -25.688   1.614  26.461  0.00  0.00    +0.163 C 
ATOM     13  C   UNL A   1     -26.250   2.920  26.395  0.00  0.00    +0.076 C 
ATOM     14  C   UNL A   1     -27.438   3.091  25.645  0.00  0.00    +0.104 C 
ATOM     15  N   UNL A   1     -28.075   2.089  25.003  0.00  0.00    -0.212 NA
ATOM     16  C   UNL A   1     -27.543   0.849  25.079  0.00  0.00    +0.236 C 
ATOM     17  C   UNL A   1     -26.354   0.576  25.777  0.00  0.00    +0.261 C 
ATOM     18  F   UNL A   1     -25.860  -0.681  25.795  0.00  0.00    -0.225 F 
BRANCH  13  19
ATOM     19  C   UNL A   1     -25.642   4.093  27.123  0.00  0.00    +0.264 C 
ATOM     20  N   UNL A   1     -25.614   5.252  26.449  0.00  0.00    -0.200 NA
ATOM     21  C   UNL A   1     -25.026   6.479  26.963  0.00  0.00    +0.139 C 
ATOM     22  O   UNL A   1     -25.143   3.966  28.243  0.00  0.00    -0.269 OA
ENDBRANCH  13  19
BRANCH  16  23
ATOM     23  O   UNL A   1     -28.193  -0.208  24.477  0.00  0.00    -0.459 OA
BRANCH  23  24
ATOM     24  C   UNL A   1     -29.460   0.005  23.866  0.00  0.00    +0.242 C 
BRANCH  24  25
ATOM     25  C   UNL A   1     -30.065  -1.377  23.573  0.00  0.00    +0.229 C 
ATOM     26  O   UNL A   1     -30.729  -1.878  24.721  0.00  0.00    -0.216 OA
ENDBRANCH  24  25
ENDBRANCH  23  24
ENDBRANCH  16  23
ENDBRANCH   4  12
BRANCH  10  27
ATOM     27  C   UNL A   1     -24.855  -1.012  30.143  0.00  0.00    +0.079 C 
BRANCH  27  28
ATOM     28  C   UNL A   1     -24.973  -2.505  29.788  0.00  0.00    -0.015 C 
ATOM     29  C   UNL A   1     -23.906  -3.173  29.146  0.00  0.00    -0.004 C 
ATOM     30  C   UNL A   1     -23.989  -4.549  28.853  0.00  0.00    -0.000 C 
ATOM     31  C   UNL A   1     -25.137  -5.280  29.205  0.00  0.00    -0.000 C 
ATOM     32  C   UNL A   1     -26.232  -4.611  29.784  0.00  0.00    -0.000 C 
ATOM     33  C   UNL A   1     -26.155  -3.232  30.065  0.00  0.00    -0.004 C 
ENDBRANCH  27  28
BRANCH  27  34
ATOM     34  C   UNL A   1     -25.387  -0.679  31.571  0.00  0.00    +0.082 C 
ATOM     35  C   UNL A   1     -25.189   0.773  32.028  0.00  0.00    +0.020 C 
ATOM     36  C   UNL A   1     -25.336   0.684  33.544  0.00  0.00    +0.020 C 
ATOM     37  C   UNL A   1     -24.829  -0.715  33.905  0.00  0.00    +0.089 C 
ATOM     38  N   UNL A   1     -24.758  -1.481  32.646  0.00  0.00    -0.219 NA
ENDBRANCH  27  34
ENDBRANCH  10  27
TORSDOF 8
