MODEL 2354
MODEL 1
REMARK VINA RESULT:    -6.516      0.000      0.000
REMARK INTER + INTRA:          -7.226
REMARK INTER:                  -6.897
REMARK INTRA:                  -0.329
REMARK UNBOUND:                -0.329
REMARK  Name = No_2354-gen_results/8p0m/2024-11-27-11-27-31/
REMARK  1 active torsions:
REMARK  status: ('A' for Active; 'I' for Inactive)
REMARK    1  A    between atoms: C_3  and  C_4
REMARK                            x       y       z     vdW  Elec       q    Type
REMARK                         _______ _______ _______ _____ _____    ______ ____
ROOT
ATOM      1  C   UNL A   1     -21.719  -0.105  28.926  0.00  0.00    +0.000 A 
ATOM      2  C   UNL A   1     -22.370  -1.094  29.172  0.00  0.00    +0.000 A 
ATOM      3  C   UNL A   1     -23.584  -1.368  28.789  0.00  0.00    +0.000 A 
ATOM      4  C   UNL A   1     -22.307   0.920  28.043  0.00  0.00    +0.000 A 
ATOM      5  C   UNL A   1     -23.583   0.764  27.626  0.00  0.00    +0.000 A 
ATOM      6  C   UNL A   1     -24.316  -0.452  27.953  0.00  0.00    +0.000 A 
ENDROOT
BRANCH   3   7
ATOM      7  C   UNL A   1     -24.349  -2.598  29.108  0.00  0.00    +0.000 A 
ATOM      8  C   UNL A   1     -23.942  -3.908  28.823  0.00  0.00    +0.000 A 
ATOM      9  C   UNL A   1     -25.677  -2.437  29.672  0.00  0.00    +0.000 A 
ATOM     10  C   UNL A   1     -26.506  -3.523  29.924  0.00  0.00    +0.000 A 
ATOM     11  C   UNL A   1     -24.873  -5.022  28.927  0.00  0.00    +0.000 A 
ATOM     12  C   UNL A   1     -26.111  -4.809  29.565  0.00  0.00    +0.000 A 
ENDBRANCH   3   7
TORSDOF 1
ENDMDL
ENDMDL
