MODEL 2356
MODEL 1
REMARK VINA RESULT:    -7.026      0.000      0.000
REMARK INTER + INTRA:          -7.556
REMARK INTER:                  -7.436
REMARK INTRA:                  -0.119
REMARK UNBOUND:                -0.119
REMARK  Name = No_2356-gen_results/8p0m/2024-11-27-11-27-31/
REMARK  1 active torsions:
REMARK  status: ('A' for Active; 'I' for Inactive)
REMARK    1  A    between atoms: C_4  and  C_5
REMARK                            x       y       z     vdW  Elec       q    Type
REMARK                         _______ _______ _______ _____ _____    ______ ____
ROOT
ATOM      1  C   UNL A   1     -24.589  -0.492  30.087  0.00  0.00    +0.066 A 
ATOM      2  C   UNL A   1     -23.929  -0.847  29.138  0.00  0.00    +0.015 A 
ATOM      3  C   UNL A   1     -23.574   0.049  28.135  0.00  0.00    -0.003 A 
ATOM      4  C   UNL A   1     -24.022   1.417  28.172  0.00  0.00    -0.022 A 
ATOM      5  C   UNL A   1     -25.173   0.816  30.213  0.00  0.00    +0.016 A 
ATOM      6  C   UNL A   1     -24.886   1.763  29.278  0.00  0.00    -0.003 A 
ATOM      7  C   UNL A   1     -23.358  -2.226  28.968  0.00  0.00    +0.001 C 
ATOM      8  C   UNL A   1     -24.008  -3.188  29.023  0.00  0.00    +0.000 C 
ATOM      9  C   UNL A   1     -24.154  -4.172  28.868  0.00  0.00    -0.000 C 
ATOM     10  C   UNL A   1     -25.287  -5.120  29.120  0.00  0.00    -0.000 C 
ATOM     11  C   UNL A   1     -26.349  -4.507  29.693  0.00  0.00    -0.003 C 
ATOM     12  C   UNL A   1     -26.334  -3.260  29.965  0.00  0.00    -0.003 C 
ATOM     13  C   UNL A   1     -25.336  -2.546  29.664  0.00  0.00    +0.138 C 
ATOM     14  N   UNL A   1     -25.302  -1.260  30.074  0.00  0.00    -0.233 NA
ENDROOT
BRANCH   4  15
ATOM     15  C   UNL A   1     -23.732   2.361  27.235  0.00  0.00    +0.026 C 
ATOM     16  C   UNL A   1     -23.404   1.894  25.974  0.00  0.00    +0.005 C 
ENDBRANCH   4  15
TORSDOF 1
ENDMDL
ENDMDL
