MODEL 2357
MODEL 1
REMARK VINA RESULT:    -6.402      0.000      0.000
REMARK INTER + INTRA:          -7.548
REMARK INTER:                  -7.151
REMARK INTRA:                  -0.397
REMARK UNBOUND:                -0.397
REMARK  Name = No_2357-gen_results/8p0m/2024-11-27-11-27-31/
REMARK  2 active torsions:
REMARK  status: ('A' for Active; 'I' for Inactive)
REMARK    1  A    between atoms: C_4  and  C_7
REMARK    2  A    between atoms: C_7  and  C_8
REMARK                            x       y       z     vdW  Elec       q    Type
REMARK                         _______ _______ _______ _____ _____    ______ ____
ROOT
ATOM      1  C   UNL A   1     -24.798  -0.977  28.990  0.00  0.00    +0.053 C 
ENDROOT
BRANCH   1   5
ATOM      2  C   UNL A   1     -26.227  -4.482  29.684  0.00  0.00    -0.000 A 
ATOM      3  C   UNL A   1     -25.384  -5.013  29.343  0.00  0.00    -0.000 A 
ATOM      4  C   UNL A   1     -26.106  -2.975  29.644  0.00  0.00    -0.004 A 
ATOM      5  C   UNL A   1     -24.974  -2.388  29.041  0.00  0.00    -0.018 A 
ATOM      6  C   UNL A   1     -24.125  -4.657  28.651  0.00  0.00    -0.000 A 
ATOM      7  C   UNL A   1     -23.981  -3.278  28.590  0.00  0.00    -0.004 A 
ENDBRANCH   1   5
BRANCH   1   8
ATOM      8  C   UNL A   1     -24.170  -0.489  27.808  0.00  0.00    -0.018 A 
ATOM      9  C   UNL A   1     -24.849   0.467  27.024  0.00  0.00    -0.004 A 
ATOM     10  C   UNL A   1     -24.198   1.150  25.987  0.00  0.00    -0.000 A 
ATOM     11  C   UNL A   1     -23.378   2.206  26.562  0.00  0.00    -0.000 A 
ATOM     12  C   UNL A   1     -22.738   1.840  27.791  0.00  0.00    -0.000 A 
ATOM     13  C   UNL A   1     -22.832   0.429  28.152  0.00  0.00    -0.004 A 
ENDBRANCH   1   8
TORSDOF 2
ENDMDL
ENDMDL
