MODEL 2358
MODEL 1
REMARK VINA RESULT:    -5.909      0.000      0.000
REMARK INTER + INTRA:          -6.930
REMARK INTER:                  -6.600
REMARK INTRA:                  -0.330
REMARK UNBOUND:                -0.330
REMARK  Name = No_2358-gen_results/8p0m/2024-11-27-11-27-31/
REMARK  2 active torsions:
REMARK  status: ('A' for Active; 'I' for Inactive)
REMARK    1  A    between atoms: C_4  and  C_8
REMARK    2  A    between atoms: C_8  and  C_9
REMARK                            x       y       z     vdW  Elec       q    Type
REMARK                         _______ _______ _______ _____ _____    ______ ____
ROOT
ATOM      1  C   UNL A   1     -26.505  -2.241  30.399  0.00  0.00    +0.006 A 
ATOM      2  C   UNL A   1     -26.343  -3.217  30.037  0.00  0.00    +0.035 A 
ATOM      3  C   UNL A   1     -25.348  -1.283  30.226  0.00  0.00    -0.003 A 
ATOM      4  C   UNL A   1     -24.217  -1.691  29.489  0.00  0.00    -0.018 A 
ATOM      5  C   UNL A   1     -25.299  -3.877  29.220  0.00  0.00    +0.006 A 
ATOM      6  C   UNL A   1     -24.220  -3.024  29.035  0.00  0.00    -0.003 A 
ATOM      7 BR   UNL A   1     -27.868  -4.483  30.255  0.00  0.00    -0.049 Br
ENDROOT
BRANCH   4   8
ATOM      8  C   UNL A   1     -23.089  -0.800  29.304  0.00  0.00    +0.053 C 
BRANCH   8   9
ATOM      9  C   UNL A   1     -22.926  -0.071  28.189  0.00  0.00    -0.018 A 
ATOM     10  C   UNL A   1     -21.917   0.992  28.202  0.00  0.00    -0.004 A 
ATOM     11  C   UNL A   1     -21.828   1.821  27.057  0.00  0.00    -0.000 A 
ATOM     12  C   UNL A   1     -23.004   2.019  26.300  0.00  0.00    -0.000 A 
ATOM     13  C   UNL A   1     -24.157   1.214  26.485  0.00  0.00    -0.000 A 
ATOM     14  C   UNL A   1     -24.161   0.264  27.469  0.00  0.00    -0.004 A 
ENDBRANCH   8   9
ENDBRANCH   4   8
TORSDOF 2
ENDMDL
ENDMDL
