REMARK  Name = outputs/IAG933/test6/raw/output_2359_IAG933_linker_design_.xyz
REMARK  12 active torsions:
REMARK  status: ('A' for Active; 'I' for Inactive)
REMARK    1  A    between atoms: C_1  and  C_2
REMARK    2  A    between atoms: C_13  and  C_41
REMARK    3  A    between atoms: C_14  and  C_15
REMARK    4  A    between atoms: C_21  and  O_22
REMARK    5  A    between atoms: O_22  and  C_23
REMARK    6  A    between atoms: C_23  and  C_24
REMARK    7  A    between atoms: C_31  and  O_33
REMARK    8  A    between atoms: C_31  and  C_35
REMARK    9  A    between atoms: O_33  and  O_36
REMARK   10  A    between atoms: C_34  and  C_43
REMARK   11  A    between atoms: C_35  and  N_39
REMARK   12  A    between atoms: C_40  and  C_43
REMARK                            x       y       z     vdW  Elec       q    Type
REMARK                         _______ _______ _______ _____ _____    ______ ____
ROOT
ATOM      1  C   UNL A   1     -23.057   0.488  29.410  0.00  0.00    +0.049 C 
ENDROOT
BRANCH   1  10
ATOM      2  C   UNL A   1     -24.855  -1.012  30.143  0.00  0.00    +0.057 C 
ATOM      3  C   UNL A   1     -25.387  -0.679  31.571  0.00  0.00    +0.087 C 
ATOM      4  C   UNL A   1     -25.189   0.773  32.028  0.00  0.00    +0.095 C 
ATOM      5  C   UNL A   1     -25.336   0.684  33.544  0.00  0.00    +0.029 C 
ATOM      6  C   UNL A   1     -24.829  -0.715  33.905  0.00  0.00    +0.089 C 
ATOM      7  N   UNL A   1     -24.758  -1.481  32.646  0.00  0.00    -0.219 NA
ATOM      8  C   UNL A   1     -24.843   1.832  30.887  0.00  0.00    +0.227 C 
ATOM      9  O   UNL A   1     -24.305   2.820  31.176  0.00  0.00    -0.275 OA
ATOM     10  C   UNL A   1     -24.582   0.185  29.256  0.00  0.00    +0.085 C 
ATOM     11  N   UNL A   1     -25.209   1.544  29.620  0.00  0.00    -0.278 N 
BRANCH   2  12
ATOM     12  C   UNL A   1     -24.973  -2.505  29.788  0.00  0.00    -0.019 C 
ATOM     13  C   UNL A   1     -23.906  -3.173  29.146  0.00  0.00    -0.004 C 
ATOM     14  C   UNL A   1     -23.989  -4.549  28.853  0.00  0.00    -0.000 C 
ATOM     15  C   UNL A   1     -25.137  -5.280  29.205  0.00  0.00    -0.000 C 
ATOM     16  C   UNL A   1     -26.232  -4.611  29.784  0.00  0.00    -0.000 C 
ATOM     17  C   UNL A   1     -26.155  -3.232  30.065  0.00  0.00    -0.004 C 
ENDBRANCH   2  12
BRANCH  11  18
ATOM     18  C   UNL A   1     -26.762   1.707  29.393  0.00  0.00    +0.129 C 
BRANCH  18  19
ATOM     19  C   UNL A   1     -27.364   0.445  28.839  0.00  0.00    +0.203 C 
BRANCH  19  20
ATOM     20  O   UNL A   1     -28.730  -0.153  28.968  0.00  0.00    -0.218 OA
BRANCH  20  21
ATOM     21  O   UNL A   1     -29.490   0.899  29.497  0.00  0.00    -0.217 OA
ATOM     22  C   UNL A   1     -28.762   2.112  29.392  0.00  0.00    +0.217 C 
ENDBRANCH  20  21
ENDBRANCH  19  20
ENDBRANCH  18  19
ENDBRANCH  11  18
ENDBRANCH   1  10
BRANCH   1  26
ATOM     23  C   UNL A   1     -22.144   2.167  25.551  0.00  0.00    +0.232 C 
ATOM     24  C   UNL A   1     -23.462   1.906  25.734  0.00  0.00    +0.017 C 
ATOM     25  O   UNL A   1     -21.249   2.044  26.535  0.00  0.00    -0.468 OA
ATOM     26  C   UNL A   1     -22.847   1.154  28.080  0.00  0.00    +0.013 C 
ATOM     27  C   UNL A   1     -24.000   1.492  26.823  0.00  0.00    -0.017 C 
ATOM     28  C   UNL A   1     -21.553   1.477  27.696  0.00  0.00    +0.168 C 
BRANCH  27  29
ATOM     29  C   UNL A   1     -25.688   1.614  26.461  0.00  0.00    +0.092 C 
ATOM     30  C   UNL A   1     -26.250   2.920  26.395  0.00  0.00    +0.059 C 
ATOM     31  C   UNL A   1     -27.438   3.091  25.645  0.00  0.00    +0.102 C 
ATOM     32  N   UNL A   1     -28.075   2.089  25.003  0.00  0.00    -0.212 NA
ATOM     33  C   UNL A   1     -27.543   0.849  25.079  0.00  0.00    +0.234 C 
ATOM     34  C   UNL A   1     -26.354   0.576  25.777  0.00  0.00    +0.244 C 
ATOM     35  F   UNL A   1     -25.860  -0.681  25.795  0.00  0.00    -0.227 F 
BRANCH  30  36
ATOM     36  C   UNL A   1     -25.642   4.093  27.123  0.00  0.00    +0.263 C 
ATOM     37  N   UNL A   1     -25.614   5.252  26.449  0.00  0.00    -0.200 NA
ATOM     38  C   UNL A   1     -25.026   6.479  26.963  0.00  0.00    +0.139 C 
ATOM     39  O   UNL A   1     -25.143   3.966  28.243  0.00  0.00    -0.269 OA
ENDBRANCH  30  36
BRANCH  33  40
ATOM     40  O   UNL A   1     -28.193  -0.208  24.477  0.00  0.00    -0.459 OA
BRANCH  40  41
ATOM     41  C   UNL A   1     -29.460   0.005  23.866  0.00  0.00    +0.242 C 
BRANCH  41  42
ATOM     42  C   UNL A   1     -30.065  -1.377  23.573  0.00  0.00    +0.229 C 
ATOM     43  O   UNL A   1     -30.729  -1.878  24.721  0.00  0.00    -0.216 OA
ENDBRANCH  41  42
ENDBRANCH  40  41
ENDBRANCH  33  40
ENDBRANCH  27  29
ENDBRANCH   1  26
TORSDOF 12
