MODEL 2359
MODEL 1
REMARK VINA RESULT:    -6.405      0.000      0.000
REMARK INTER + INTRA:         -12.268
REMARK INTER:                  -8.652
REMARK INTRA:                  -3.616
REMARK UNBOUND:                -3.616
REMARK  Name = No_2359-gen_results/8p0m/2024-11-27-11-27-31/
REMARK  6 active torsions:
REMARK  status: ('A' for Active; 'I' for Inactive)
REMARK    1  A    between atoms: C_4  and  C_11
REMARK    2  A    between atoms: C_12  and  O_17
REMARK    3  A    between atoms: O_17  and  C_18
REMARK    4  A    between atoms: C_18  and  C_19
REMARK    5  A    between atoms: C_19  and  O_20
REMARK    6  A    between atoms: C_21  and  C_31
REMARK                            x       y       z     vdW  Elec       q    Type
REMARK                         _______ _______ _______ _____ _____    ______ ____
ROOT
ATOM      1  O   UNL A   1     -24.562   2.440  29.773  0.00  0.00    -0.473 OA
ENDROOT
BRANCH   1   3
ATOM      2  C   UNL A   1     -23.370   0.467  29.234  0.00  0.00    +0.034 A 
ATOM      3  C   UNL A   1     -23.965   1.245  30.064  0.00  0.00    +0.139 A 
ATOM      4  C   UNL A   1     -23.918   0.992  31.447  0.00  0.00    +0.037 A 
ATOM      5  C   UNL A   1     -22.777  -0.718  29.583  0.00  0.00    +0.003 A 
ATOM      6  C   UNL A   1     -22.767  -1.123  30.923  0.00  0.00    +0.000 A 
ATOM      7  C   UNL A   1     -23.430  -0.298  31.860  0.00  0.00    +0.003 A 
BRANCH   2  11
ATOM      8  C   UNL A   1     -26.158  -0.790  26.236  0.00  0.00    +0.000 A 
ATOM      9  C   UNL A   1     -25.376  -0.430  27.085  0.00  0.00    +0.000 A 
ATOM     10  C   UNL A   1     -24.302   0.423  26.833  0.00  0.00    +0.000 A 
ATOM     11  C   UNL A   1     -23.296   0.901  27.802  0.00  0.00    +0.003 A 
ATOM     12  C   UNL A   1     -22.174   1.751  27.498  0.00  0.00    +0.000 A 
ATOM     13  C   UNL A   1     -22.189   2.303  26.212  0.00  0.00    +0.000 A 
ATOM     14  C   UNL A   1     -25.851  -0.418  24.813  0.00  0.00    +0.000 A 
ATOM     15  C   UNL A   1     -24.870   0.489  24.483  0.00  0.00    +0.000 A 
ATOM     16  C   UNL A   1     -24.006   0.931  25.468  0.00  0.00    +0.000 A 
ATOM     17  C   UNL A   1     -23.000   1.857  25.190  0.00  0.00    +0.000 A 
ENDBRANCH   2  11
ENDBRANCH   1   3
BRANCH   1  18
ATOM     18  C   UNL A   1     -25.811   2.832  30.080  0.00  0.00    +0.233 C 
BRANCH  18  19
ATOM     19  C   UNL A   1     -26.726   2.732  29.013  0.00  0.00    +0.141 C 
ATOM     20  C   UNL A   1     -27.656   1.479  29.237  0.00  0.00    +0.055 C 
ATOM     21  C   UNL A   1     -28.732   1.559  28.422  0.00  0.00    +0.033 C 
ATOM     22  C   UNL A   1     -28.450   1.929  27.202  0.00  0.00    -0.026 A 
ATOM     23  C   UNL A   1     -29.245   1.829  26.134  0.00  0.00    -0.005 A 
ATOM     24  C   UNL A   1     -28.940   2.294  24.800  0.00  0.00    -0.000 A 
ATOM     25  C   UNL A   1     -27.734   2.985  24.640  0.00  0.00    -0.000 A 
ATOM     26  C   UNL A   1     -26.894   3.193  25.720  0.00  0.00    -0.004 A 
ATOM     27  C   UNL A   1     -27.292   2.708  26.980  0.00  0.00    -0.024 A 
ATOM     28  C   UNL A   1     -26.283   2.880  27.929  0.00  0.00    +0.057 C 
BRANCH  20  29
ATOM     29  C   UNL A   1     -27.298   0.478  30.168  0.00  0.00    -0.028 C 
ATOM     30  C   UNL A   1     -27.074  -0.798  29.949  0.00  0.00    -0.030 C 
ATOM     31  C   UNL A   1     -26.742  -1.660  30.991  0.00  0.00    +0.030 C 
ENDBRANCH  20  29
BRANCH  19  32
ATOM     32  O   UNL A   1     -27.353   3.654  28.743  0.00  0.00    -0.351 OA
ATOM     33  C   UNL A   1     -27.888   4.715  28.647  0.00  0.00    +0.174 C 
ENDBRANCH  19  32
ENDBRANCH  18  19
ENDBRANCH   1  18
TORSDOF 6
ENDMDL
ENDMDL
