MODEL 235
MODEL 1
REMARK VINA RESULT:    -8.033      0.000      0.000
REMARK INTER + INTRA:         -10.672
REMARK INTER:                  -9.442
REMARK INTRA:                  -1.230
REMARK UNBOUND:                -1.230
REMARK  Name = No_235-gen_results/8p0m/2024-11-27-11-27-31/
REMARK  3 active torsions:
REMARK  status: ('A' for Active; 'I' for Inactive)
REMARK    1  A    between atoms: C_4  and  C_11
REMARK    2  A    between atoms: C_7  and  O_19
REMARK    3  A    between atoms: O_19  and  C_20
REMARK                            x       y       z     vdW  Elec       q    Type
REMARK                         _______ _______ _______ _____ _____    ______ ____
ROOT
ATOM      1  C   UNL A   1     -26.927   0.240  27.239  0.00  0.00    +0.037 A 
ATOM      2  C   UNL A   1     -25.864   0.047  27.782  0.00  0.00    +0.003 A 
ATOM      3  C   UNL A   1     -24.675   0.661  27.390  0.00  0.00    -0.004 A 
ATOM      4  C   UNL A   1     -23.337   0.476  27.985  0.00  0.00    -0.023 A 
ATOM      5  C   UNL A   1     -22.121   1.096  27.528  0.00  0.00    -0.004 A 
ATOM      6  C   UNL A   1     -22.300   2.097  26.568  0.00  0.00    -0.000 A 
ATOM      7  C   UNL A   1     -26.921   1.062  25.981  0.00  0.00    +0.139 A 
ATOM      8  C   UNL A   1     -25.817   1.775  25.573  0.00  0.00    +0.037 A 
ATOM      9  C   UNL A   1     -24.614   1.584  26.227  0.00  0.00    +0.003 A 
ATOM     10  C   UNL A   1     -23.467   2.288  25.860  0.00  0.00    +0.000 A 
ENDROOT
BRANCH   4  11
ATOM     11  C   UNL A   1     -23.155  -0.459  29.143  0.00  0.00    +0.019 C 
ATOM     12  C   UNL A   1     -23.498  -1.685  28.980  0.00  0.00    +0.004 C 
ATOM     13  C   UNL A   1     -24.185  -2.290  29.954  0.00  0.00    +0.000 C 
ATOM     14  C   UNL A   1     -23.971  -1.839  31.297  0.00  0.00    +0.000 C 
ATOM     15  C   UNL A   1     -23.684   0.038  30.488  0.00  0.00    +0.004 C 
ATOM     16  C   UNL A   1     -23.805  -0.652  31.524  0.00  0.00    +0.000 C 
ATOM     17  C   UNL A   1     -21.541  -0.482  29.396  0.00  0.00    +0.004 C 
ATOM     18  C   UNL A   1     -23.624   1.562  30.658  0.00  0.00    +0.000 C 
ENDBRANCH   4  11
BRANCH   7  19
ATOM     19  O   UNL A   1     -28.086   1.359  25.333  0.00  0.00    -0.471 OA
BRANCH  19  20
ATOM     20  C   UNL A   1     -28.905   0.370  24.960  0.00  0.00    +0.231 C 
ATOM     21  C   UNL A   1     -28.416  -0.260  23.807  0.00  0.00    +0.078 C 
ATOM     22  C   UNL A   1     -29.174  -1.277  23.359  0.00  0.00    -0.019 C 
ATOM     23  C   UNL A   1     -30.089  -1.655  23.984  0.00  0.00    +0.037 C 
ATOM     24  C   UNL A   1     -29.876  -0.649  25.064  0.00  0.00    +0.213 C 
ATOM     25  O   UNL A   1     -30.717  -0.494  26.156  0.00  0.00    -0.287 OA
ENDBRANCH  19  20
ENDBRANCH   7  19
TORSDOF 3
ENDMDL
ENDMDL
