MODEL 2360
MODEL 1
REMARK VINA RESULT:    -5.311      0.000      0.000
REMARK INTER + INTRA:          -5.772
REMARK INTER:                  -5.621
REMARK INTRA:                  -0.151
REMARK UNBOUND:                -0.151
REMARK  Name = No_2360-gen_results/8p0m/2024-11-27-11-27-31/
REMARK  1 active torsions:
REMARK  status: ('A' for Active; 'I' for Inactive)
REMARK    1  A    between atoms: C_4  and  C_7
REMARK                            x       y       z     vdW  Elec       q    Type
REMARK                         _______ _______ _______ _____ _____    ______ ____
ROOT
ATOM      1  C   UNL A   1     -26.587  -3.997  29.860  0.00  0.00    -0.000 A 
ATOM      2  C   UNL A   1     -26.078  -4.892  29.634  0.00  0.00    -0.000 A 
ATOM      3  C   UNL A   1     -25.803  -2.726  29.619  0.00  0.00    -0.000 A 
ATOM      4  C   UNL A   1     -24.541  -2.801  28.993  0.00  0.00    -0.000 A 
ATOM      5  C   UNL A   1     -24.808  -5.239  28.957  0.00  0.00    -0.000 A 
ATOM      6  C   UNL A   1     -24.062  -4.095  28.714  0.00  0.00    -0.000 A 
ENDROOT
BRANCH   4   7
ATOM      7  C   UNL A   1     -23.751  -1.640  28.758  0.00  0.00    -0.005 C 
ATOM      8  C   UNL A   1     -22.648  -1.406  29.337  0.00  0.00    -0.026 C 
ATOM      9  C   UNL A   1     -21.776  -0.272  28.984  0.00  0.00    +0.031 C 
ENDBRANCH   4   7
TORSDOF 1
ENDMDL
ENDMDL
