REMARK  Name = outputs/IAG933/test6/raw/output_2361_IAG933_linker_design_.xyz
REMARK  9 active torsions:
REMARK  status: ('A' for Active; 'I' for Inactive)
REMARK    1  A    between atoms: C_1  and  C_2
REMARK    2  A    between atoms: C_1  and  C_8
REMARK    3  A    between atoms: C_1  and  C_31
REMARK    4  A    between atoms: C_13  and  C_33
REMARK    5  A    between atoms: C_14  and  C_15
REMARK    6  A    between atoms: C_21  and  O_22
REMARK    7  A    between atoms: O_22  and  C_23
REMARK    8  A    between atoms: C_23  and  C_24
REMARK    9  A    between atoms: C_36  and  N_38
REMARK                            x       y       z     vdW  Elec       q    Type
REMARK                         _______ _______ _______ _____ _____    ______ ____
ROOT
ATOM      1  C   UNL A   1     -23.340   0.567  28.391  0.00  0.00    +0.118 C 
ATOM      2  O   UNL A   1     -21.475   0.024  29.455  0.00  0.00    -0.267 OA
ATOM      3  N   UNL A   1     -21.141   1.196  27.482  0.00  0.00    -0.193 NA
ATOM      4  C   UNL A   1     -24.442   0.084  29.253  0.00  0.00    +0.051 C 
ATOM      5  C   UNL A   1     -24.922   1.180  27.437  0.00  0.00    +0.163 C 
ATOM      6  F   UNL A   1     -23.159   2.625  25.772  0.00  0.00    -0.181 F 
ATOM      7  F   UNL A   1     -23.431   0.730  25.009  0.00  0.00    -0.181 F 
ATOM      8  C   UNL A   1     -21.471   1.157  26.049  0.00  0.00    +0.203 C 
ATOM      9  N   UNL A   1     -25.449   0.538  28.468  0.00  0.00    -0.267 N 
ATOM     10  N   UNL A   1     -23.723   1.078  27.167  0.00  0.00    -0.238 N 
ATOM     11  C   UNL A   1     -22.979   1.399  25.892  0.00  0.00    +0.350 C 
ATOM     12  C   UNL A   1     -21.921   0.587  28.521  0.00  0.00    +0.280 C 
ENDROOT
BRANCH   5  13
ATOM     13  C   UNL A   1     -25.688   1.614  26.461  0.00  0.00    +0.108 C 
ATOM     14  C   UNL A   1     -26.250   2.920  26.395  0.00  0.00    +0.058 C 
ATOM     15  C   UNL A   1     -27.438   3.091  25.645  0.00  0.00    +0.102 C 
ATOM     16  N   UNL A   1     -28.075   2.089  25.003  0.00  0.00    -0.212 NA
ATOM     17  C   UNL A   1     -27.543   0.849  25.079  0.00  0.00    +0.234 C 
ATOM     18  C   UNL A   1     -26.354   0.576  25.777  0.00  0.00    +0.243 C 
ATOM     19  F   UNL A   1     -25.860  -0.681  25.795  0.00  0.00    -0.227 F 
BRANCH  14  20
ATOM     20  C   UNL A   1     -25.642   4.093  27.123  0.00  0.00    +0.263 C 
ATOM     21  N   UNL A   1     -25.614   5.252  26.449  0.00  0.00    -0.200 NA
ATOM     22  C   UNL A   1     -25.026   6.479  26.963  0.00  0.00    +0.139 C 
ATOM     23  O   UNL A   1     -25.143   3.966  28.243  0.00  0.00    -0.269 OA
ENDBRANCH  14  20
BRANCH  17  24
ATOM     24  O   UNL A   1     -28.193  -0.208  24.477  0.00  0.00    -0.459 OA
BRANCH  24  25
ATOM     25  C   UNL A   1     -29.460   0.005  23.866  0.00  0.00    +0.242 C 
BRANCH  25  26
ATOM     26  C   UNL A   1     -30.065  -1.377  23.573  0.00  0.00    +0.229 C 
ATOM     27  O   UNL A   1     -30.729  -1.878  24.721  0.00  0.00    -0.216 OA
ENDBRANCH  25  26
ENDBRANCH  24  25
ENDBRANCH  17  24
ENDBRANCH   5  13
BRANCH   9  29
ATOM     28  O   UNL A   1     -27.491  -0.654  28.828  0.00  0.00    -0.196 OA
ATOM     29  C   UNL A   1     -26.643  -0.035  28.680  0.00  0.00    +0.279 C 
ENDBRANCH   9  29
BRANCH   4  30
ATOM     30  C   UNL A   1     -24.855  -1.012  30.143  0.00  0.00    +0.075 C 
BRANCH  30  31
ATOM     31  C   UNL A   1     -24.973  -2.505  29.788  0.00  0.00    -0.016 C 
ATOM     32  C   UNL A   1     -23.906  -3.173  29.146  0.00  0.00    -0.004 C 
ATOM     33  C   UNL A   1     -23.989  -4.549  28.853  0.00  0.00    -0.000 C 
ATOM     34  C   UNL A   1     -25.137  -5.280  29.205  0.00  0.00    -0.000 C 
ATOM     35  C   UNL A   1     -26.232  -4.611  29.784  0.00  0.00    -0.000 C 
ATOM     36  C   UNL A   1     -26.155  -3.232  30.065  0.00  0.00    -0.004 C 
ENDBRANCH  30  31
BRANCH  30  37
ATOM     37  C   UNL A   1     -25.387  -0.679  31.571  0.00  0.00    +0.082 C 
ATOM     38  C   UNL A   1     -25.189   0.773  32.028  0.00  0.00    +0.020 C 
ATOM     39  C   UNL A   1     -25.336   0.684  33.544  0.00  0.00    +0.020 C 
ATOM     40  C   UNL A   1     -24.829  -0.715  33.905  0.00  0.00    +0.089 C 
ATOM     41  N   UNL A   1     -24.758  -1.481  32.646  0.00  0.00    -0.219 NA
ENDBRANCH  30  37
ENDBRANCH   4  30
TORSDOF 9
