MODEL 2361
MODEL 1
REMARK VINA RESULT:    -6.616      0.000      0.000
REMARK INTER + INTRA:          -7.058
REMARK INTER:                  -7.003
REMARK INTRA:                  -0.056
REMARK UNBOUND:                -0.056
REMARK  Name = No_2361-gen_results/8p0m/2024-11-27-11-27-31/
REMARK  1 active torsions:
REMARK  status: ('A' for Active; 'I' for Inactive)
REMARK    1  A    between atoms: C_7  and  C_15
REMARK                            x       y       z     vdW  Elec       q    Type
REMARK                         _______ _______ _______ _____ _____    ______ ____
ROOT
ATOM      1  C   UNL A   1     -28.679  -9.548  33.985  0.00  0.00    +0.000 A 
ATOM      2  C   UNL A   1     -28.896 -10.198  32.989  0.00  0.00    +0.006 A 
ATOM      3  C   UNL A   1     -29.734  -9.720  31.988  0.00  0.00    +0.000 A 
ATOM      4  C   UNL A   1     -30.406  -8.454  32.126  0.00  0.00    +0.000 A 
ATOM      5  C   UNL A   1     -30.117  -7.779  33.319  0.00  0.00    +0.000 A 
ATOM      6  C   UNL A   1     -29.330  -8.283  34.243  0.00  0.00    +0.000 A 
ATOM      7  C   UNL A   1     -28.311 -11.534  32.692  0.00  0.00    +0.080 A 
ATOM      8  C   UNL A   1     -28.060 -11.942  31.498  0.00  0.00    +0.007 A 
ATOM      9  C   UNL A   1     -28.938 -11.413  30.370  0.00  0.00    +0.000 A 
ATOM     10  C   UNL A   1     -29.654 -10.244  30.598  0.00  0.00    +0.000 A 
ATOM     11  C   UNL A   1     -28.932 -12.038  29.059  0.00  0.00    +0.000 A 
ATOM     12  C   UNL A   1     -30.125 -11.964  28.291  0.00  0.00    +0.000 A 
ATOM     13  C   UNL A   1     -30.960 -10.819  28.452  0.00  0.00    +0.000 A 
ATOM     14  C   UNL A   1     -30.787  -9.963  29.683  0.00  0.00    +0.000 A 
ENDROOT
BRANCH   7  15
ATOM     15  C   UNL A   1     -27.737 -12.235  33.864  0.00  0.00    +0.388 C 
ATOM     16  O   UNL A   1     -26.641 -12.654  33.829  0.00  0.00    -0.241 OA
ATOM     17  O   UNL A   1     -28.624 -12.751  34.680  0.00  0.00    -0.241 OA
ENDBRANCH   7  15
TORSDOF 1
ENDMDL
ENDMDL
