MODEL 2362
MODEL 1
REMARK VINA RESULT:    -7.621      0.000      0.000
REMARK INTER + INTRA:          -9.194
REMARK INTER:                  -8.958
REMARK INTRA:                  -0.236
REMARK UNBOUND:                -0.236
REMARK  Name = No_2362-gen_results/8p0m/2024-11-27-11-27-31/
REMARK  3 active torsions:
REMARK  status: ('A' for Active; 'I' for Inactive)
REMARK    1  A    between atoms: C_4  and  C_7
REMARK    2  A    between atoms: C_8  and  C_14
REMARK    3  A    between atoms: N_16  and  C_17
REMARK                            x       y       z     vdW  Elec       q    Type
REMARK                         _______ _______ _______ _____ _____    ______ ____
ROOT
ATOM      1  C   UNL A   1     -23.947  -0.965  29.088  0.00  0.00    +0.027 C 
ATOM      2  C   UNL A   1     -24.227  -0.183  27.930  0.00  0.00    +0.082 C 
ATOM      3  C   UNL A   1     -23.237   0.701  27.453  0.00  0.00    +0.009 C 
ATOM      4  C   UNL A   1     -22.015   0.821  28.159  0.00  0.00    +0.001 C 
ATOM      5  C   UNL A   1     -22.428  -1.140  29.185  0.00  0.00    +0.004 C 
ATOM      6  C   UNL A   1     -21.619  -0.019  29.005  0.00  0.00    +0.000 C 
ATOM      7  C   UNL A   1     -24.305   0.003  30.373  0.00  0.00    +0.005 C 
ENDROOT
BRANCH   1  11
ATOM      8  C   UNL A   1     -26.615  -3.598  29.961  0.00  0.00    -0.000 A 
ATOM      9  C   UNL A   1     -26.087  -4.422  29.570  0.00  0.00    -0.000 A 
ATOM     10  C   UNL A   1     -25.898  -2.268  29.879  0.00  0.00    -0.004 A 
ATOM     11  C   UNL A   1     -24.675  -2.185  29.181  0.00  0.00    -0.022 A 
ATOM     12  C   UNL A   1     -24.848  -4.599  28.780  0.00  0.00    -0.000 A 
ATOM     13  C   UNL A   1     -24.164  -3.396  28.679  0.00  0.00    -0.004 A 
ENDBRANCH   1  11
BRANCH   2  14
ATOM     14  C   UNL A   1     -25.570  -0.066  27.336  0.00  0.00    +0.245 C 
ATOM     15  O   UNL A   1     -26.632  -0.253  27.891  0.00  0.00    -0.273 OA
ATOM     16  N   UNL A   1     -25.574   0.193  25.984  0.00  0.00    -0.179 NA
BRANCH  16  17
ATOM     17  C   UNL A   1     -26.878   0.229  25.195  0.00  0.00    +0.073 A 
ATOM     18  C   UNL A   1     -27.322  -0.685  24.601  0.00  0.00    +0.017 A 
ATOM     19  C   UNL A   1     -28.369  -0.483  23.820  0.00  0.00    +0.001 A 
ATOM     20  C   UNL A   1     -27.283   1.525  24.970  0.00  0.00    +0.017 A 
ATOM     21  C   UNL A   1     -28.415   1.808  24.272  0.00  0.00    +0.001 A 
ATOM     22  C   UNL A   1     -28.999   0.717  23.636  0.00  0.00    +0.000 A 
ENDBRANCH  16  17
ENDBRANCH   2  14
TORSDOF 3
ENDMDL
ENDMDL
