REMARK  Name = No_2363-gen_results/8p0m/2024-11-27-11-27-31/
REMARK  10 active torsions:
REMARK  status: ('A' for Active; 'I' for Inactive)
REMARK    1  A    between atoms: C_2  and  C_17
REMARK    2  A    between atoms: C_6  and  O_9
REMARK    3  A    between atoms: O_9  and  C_11
REMARK    4  A    between atoms: C_11  and  C_12
REMARK    5  A    between atoms: C_11  and  N_16
REMARK    6  A    between atoms: N_16  and  C_31
REMARK    7  A    between atoms: C_18  and  C_19
REMARK    8  A    between atoms: C_19  and  N_21
REMARK    9  A    between atoms: N_21  and  C_24
REMARK   10  A    between atoms: C_32  and  C_33
REMARK                            x       y       z     vdW  Elec       q    Type
REMARK                         _______ _______ _______ _____ _____    ______ ____
ROOT
ATOM      1  C   UNL A   1     -28.016  -0.814  28.878  0.00  0.00    +0.043 A 
ATOM      2  C   UNL A   1     -27.064  -0.119  28.608  0.00  0.00    +0.079 A 
ATOM      3  C   UNL A   1     -25.765  -0.390  29.036  0.00  0.00    -0.015 A 
ATOM      4  C   UNL A   1     -25.530  -1.530  29.901  0.00  0.00    -0.022 A 
ATOM      5  C   UNL A   1     -24.324  -1.908  30.432  0.00  0.00    +0.031 C 
ATOM      6  C   UNL A   1     -27.927  -1.923  29.790  0.00  0.00    +0.141 A 
ATOM      7  C   UNL A   1     -26.691  -2.281  30.295  0.00  0.00    +0.032 A 
ATOM      8  C   UNL A   1     -23.637  -0.913  31.244  0.00  0.00    +0.030 C 
ATOM      9  C   UNL A   1     -23.575   0.425  30.821  0.00  0.00    -0.032 C 
ATOM     10  C   UNL A   1     -23.911   0.720  29.607  0.00  0.00    -0.025 C 
ATOM     11  C   UNL A   1     -24.893   0.236  28.783  0.00  0.00    +0.050 C 
ENDROOT
BRANCH   2  12
ATOM     12  C   UNL A   1     -27.170   1.034  27.681  0.00  0.00    +0.388 C 
ATOM     13  O   UNL A   1     -26.642   1.125  26.656  0.00  0.00    -0.241 OA
ATOM     14  O   UNL A   1     -28.284   1.852  27.971  0.00  0.00    -0.241 OA
ENDBRANCH   2  12
BRANCH   6  15
ATOM     15  O   UNL A   1     -28.994  -2.698  30.149  0.00  0.00    -0.452 OA
BRANCH  15  16
ATOM     16  C   UNL A   1     -30.098  -2.136  30.657  0.00  0.00    +0.358 C 
BRANCH  16  17
ATOM     17  C   UNL A   1     -30.570  -2.876  31.715  0.00  0.00    +0.456 C 
ATOM     18  F   UNL A   1     -31.580  -2.458  32.133  0.00  0.00    -0.165 F 
ATOM     19  F   UNL A   1     -29.653  -2.788  32.742  0.00  0.00    -0.165 F 
ATOM     20  F   UNL A   1     -30.655  -4.171  31.426  0.00  0.00    -0.165 F 
ENDBRANCH  16  17
BRANCH  16  21
ATOM     21  N   UNL A   1     -31.052  -2.033  29.555  0.00  0.00    -0.191 NA
BRANCH  21  22
ATOM     22  C   UNL A   1     -31.397  -0.784  29.028  0.00  0.00    +0.084 C 
ATOM     23  C   UNL A   1     -32.302  -0.871  27.952  0.00  0.00    +0.017 C 
BRANCH  23  24
ATOM     24  C   UNL A   1     -32.507   0.285  27.244  0.00  0.00    -0.003 C 
ATOM     25  C   UNL A   1     -33.223   0.337  26.073  0.00  0.00    -0.026 C 
ATOM     26  C   UNL A   1     -33.755  -0.912  25.633  0.00  0.00    +0.031 C 
ENDBRANCH  23  24
ENDBRANCH  21  22
ENDBRANCH  16  21
ENDBRANCH  15  16
ENDBRANCH   6  15
BRANCH  10  27
ATOM     27  C   UNL A   1     -23.174   2.039  29.250  0.00  0.00    +0.114 C 
BRANCH  27  28
ATOM     28  N   UNL A   1     -23.048   2.271  27.841  0.00  0.00    -0.302 N 
ATOM     29  C   UNL A   1     -21.986   1.587  27.193  0.00  0.00    +0.113 C 
BRANCH  28  30
ATOM     30  C   UNL A   1     -23.963   2.977  27.192  0.00  0.00    +0.048 A 
ATOM     31  C   UNL A   1     -24.773   3.976  27.772  0.00  0.00    +0.015 A 
ATOM     32  C   UNL A   1     -23.836   3.081  25.750  0.00  0.00    +0.015 A 
ATOM     33  C   UNL A   1     -25.692   4.752  27.027  0.00  0.00    +0.001 A 
ATOM     34  C   UNL A   1     -25.613   4.632  25.646  0.00  0.00    +0.000 A 
ATOM     35  C   UNL A   1     -24.773   3.787  25.040  0.00  0.00    +0.001 A 
ENDBRANCH  28  30
ENDBRANCH  27  28
ENDBRANCH  10  27
TORSDOF 10
