MODEL 2363
MODEL 1
REMARK VINA RESULT:    -7.220      0.000      0.000
REMARK INTER + INTRA:         -13.524
REMARK INTER:                 -11.440
REMARK INTRA:                  -2.083
REMARK UNBOUND:                -2.083
REMARK  Name = No_2363-gen_results/8p0m/2024-11-27-11-27-31/
REMARK  10 active torsions:
REMARK  status: ('A' for Active; 'I' for Inactive)
REMARK    1  A    between atoms: C_2  and  C_17
REMARK    2  A    between atoms: C_6  and  O_9
REMARK    3  A    between atoms: O_9  and  C_11
REMARK    4  A    between atoms: C_11  and  C_12
REMARK    5  A    between atoms: C_11  and  N_16
REMARK    6  A    between atoms: N_16  and  C_31
REMARK    7  A    between atoms: C_18  and  C_19
REMARK    8  A    between atoms: C_19  and  N_21
REMARK    9  A    between atoms: N_21  and  C_24
REMARK   10  A    between atoms: C_32  and  C_33
REMARK                            x       y       z     vdW  Elec       q    Type
REMARK                         _______ _______ _______ _____ _____    ______ ____
ROOT
ATOM      1  C   UNL A   1      -9.534   1.396  38.081  0.00  0.00    +0.043 A 
ATOM      2  C   UNL A   1      -9.462   0.666  39.043  0.00  0.00    +0.079 A 
ATOM      3  C   UNL A   1     -10.014  -0.614  39.082  0.00  0.00    -0.015 A 
ATOM      4  C   UNL A   1     -10.768  -1.093  37.940  0.00  0.00    -0.022 A 
ATOM      5  C   UNL A   1     -11.398  -2.307  37.838  0.00  0.00    +0.031 C 
ATOM      6  C   UNL A   1     -10.321   1.069  36.922  0.00  0.00    +0.141 A 
ATOM      7  C   UNL A   1     -10.930  -0.170  36.850  0.00  0.00    +0.032 A 
ATOM      8  C   UNL A   1     -12.394  -2.604  38.858  0.00  0.00    +0.030 C 
ATOM      9  C   UNL A   1     -12.134  -2.313  40.207  0.00  0.00    -0.032 C 
ATOM     10  C   UNL A   1     -10.929  -2.012  40.567  0.00  0.00    -0.025 C 
ATOM     11  C   UNL A   1      -9.941  -1.286  39.953  0.00  0.00    +0.050 C 
ENDROOT
BRANCH   2  12
ATOM     12  C   UNL A   1      -8.664   1.020  40.241  0.00  0.00    +0.388 C 
ATOM     13  O   UNL A   1      -7.526   0.855  40.366  0.00  0.00    -0.241 OA
ATOM     14  O   UNL A   1      -9.334   1.941  41.077  0.00  0.00    -0.241 OA
ENDBRANCH   2  12
BRANCH   6  15
ATOM     15  O   UNL A   1     -10.457   1.893  35.840  0.00  0.00    -0.452 OA
BRANCH  15  16
ATOM     16  C   UNL A   1     -11.133   1.484  34.759  0.00  0.00    +0.358 C 
BRANCH  16  17
ATOM     17  C   UNL A   1     -10.273   1.270  33.708  0.00  0.00    +0.456 C 
ATOM     18  F   UNL A   1      -9.448   0.480  33.964  0.00  0.00    -0.165 F 
ATOM     19  F   UNL A   1      -9.615   2.454  33.444  0.00  0.00    -0.165 F 
ATOM     20  F   UNL A   1     -10.916   0.964  32.585  0.00  0.00    -0.165 F 
ENDBRANCH  16  17
BRANCH  16  21
ATOM     21  N   UNL A   1     -12.132   2.514  34.485  0.00  0.00    -0.191 NA
BRANCH  21  22
ATOM     22  C   UNL A   1     -13.392   2.461  35.090  0.00  0.00    +0.084 C 
ATOM     23  C   UNL A   1     -13.584   3.472  36.052  0.00  0.00    +0.017 C 
BRANCH  23  24
ATOM     24  C   UNL A   1     -14.697   3.347  36.843  0.00  0.00    -0.003 C 
ATOM     25  C   UNL A   1     -14.647   2.975  38.164  0.00  0.00    -0.026 C 
ATOM     26  C   UNL A   1     -13.337   2.727  38.674  0.00  0.00    +0.031 C 
ENDBRANCH  23  24
ENDBRANCH  21  22
ENDBRANCH  16  21
ENDBRANCH  15  16
ENDBRANCH   6  15
BRANCH  10  27
ATOM     27  C   UNL A   1     -10.814  -2.364  42.075  0.00  0.00    +0.114 C 
BRANCH  27  28
ATOM     28  N   UNL A   1      -9.577  -1.958  42.674  0.00  0.00    -0.302 N 
ATOM     29  C   UNL A   1      -9.602  -0.721  43.371  0.00  0.00    +0.113 C 
BRANCH  28  30
ATOM     30  C   UNL A   1      -8.531  -2.773  42.674  0.00  0.00    +0.048 A 
ATOM     31  C   UNL A   1      -8.604  -4.179  42.585  0.00  0.00    +0.015 A 
ATOM     32  C   UNL A   1      -7.247  -2.220  42.285  0.00  0.00    +0.015 A 
ATOM     33  C   UNL A   1      -7.459  -5.007  42.522  0.00  0.00    +0.001 A 
ATOM     34  C   UNL A   1      -6.245  -4.358  42.337  0.00  0.00    +0.000 A 
ATOM     35  C   UNL A   1      -6.137  -3.026  42.290  0.00  0.00    +0.001 A 
ENDBRANCH  28  30
ENDBRANCH  27  28
ENDBRANCH  10  27
TORSDOF 10
ENDMDL
ENDMDL
