MODEL 2364
MODEL 1
REMARK VINA RESULT:    -4.633      0.000      0.000
REMARK INTER + INTRA:          -4.633
REMARK INTER:                  -4.633
REMARK INTRA:                   0.000
REMARK UNBOUND:                 0.000
REMARK  Name = No_2364-gen_results/8p0m/2024-11-27-11-27-31/
REMARK  0 active torsions:
REMARK  status: ('A' for Active; 'I' for Inactive)
REMARK                            x       y       z     vdW  Elec       q    Type
REMARK                         _______ _______ _______ _____ _____    ______ ____
ROOT
ATOM      1  C   UNL A   1     -10.136  -9.757  18.203  0.00  0.00    +0.030 A 
ATOM      2  C   UNL A   1      -9.025 -10.079  17.850  0.00  0.00    +0.140 A 
ATOM      3  F   UNL A   1      -8.847 -10.884  16.897  0.00  0.00    -0.204 F 
ATOM      4  C   UNL A   1      -8.071 -10.603  18.928  0.00  0.00    +0.030 A 
ATOM      5  C   UNL A   1     -10.305  -9.141  19.531  0.00  0.00    +0.002 A 
ATOM      6  C   UNL A   1      -8.029  -9.692  20.106  0.00  0.00    +0.002 A 
ATOM      7  C   UNL A   1      -9.330  -9.181  20.460  0.00  0.00    +0.000 A 
ENDROOT
TORSDOF 0
ENDMDL
ENDMDL
