MODEL 2365
MODEL 1
REMARK VINA RESULT:    -5.686      0.000      0.000
REMARK INTER + INTRA:          -6.973
REMARK INTER:                  -6.684
REMARK INTRA:                  -0.290
REMARK UNBOUND:                -0.290
REMARK  Name = No_2365-gen_results/8p0m/2024-11-27-11-27-31/
REMARK  3 active torsions:
REMARK  status: ('A' for Active; 'I' for Inactive)
REMARK    1  A    between atoms: C_2  and  C_7
REMARK    2  A    between atoms: C_7  and  C_9
REMARK    3  A    between atoms: C_10  and  C_11
REMARK                            x       y       z     vdW  Elec       q    Type
REMARK                         _______ _______ _______ _____ _____    ______ ____
ROOT
ATOM      1  C   UNL A   1     -24.204   0.308  27.406  0.00  0.00    -0.003 A 
ATOM      2  C   UNL A   1     -23.372   0.242  28.049  0.00  0.00    -0.001 A 
ATOM      3  C   UNL A   1     -24.120   1.380  26.342  0.00  0.00    -0.000 A 
ATOM      4  C   UNL A   1     -22.920   2.105  26.185  0.00  0.00    -0.000 A 
ATOM      5  C   UNL A   1     -22.016   0.836  28.080  0.00  0.00    -0.003 A 
ATOM      6  C   UNL A   1     -21.899   1.823  27.112  0.00  0.00    -0.000 A 
ENDROOT
BRANCH   2   7
ATOM      7  C   UNL A   1     -23.427  -0.898  29.179  0.00  0.00    +0.136 C 
ATOM      8  N   UNL A   1     -22.647  -0.913  30.079  0.00  0.00    -0.123 NA
BRANCH   7   9
ATOM      9  C   UNL A   1     -24.358  -1.963  28.959  0.00  0.00    -0.003 C 
ATOM     10  C   UNL A   1     -24.230  -3.151  29.404  0.00  0.00    -0.003 C 
BRANCH  10  11
ATOM     11  C   UNL A   1     -25.234  -4.168  29.141  0.00  0.00    -0.000 C 
ATOM     12  C   UNL A   1     -24.778  -5.463  28.976  0.00  0.00    -0.000 C 
ENDBRANCH  10  11
ENDBRANCH   7   9
ENDBRANCH   2   7
TORSDOF 3
ENDMDL
ENDMDL
