REMARK  Name = No_2366-gen_results/8p0m/2024-11-27-11-27-31/
REMARK  3 active torsions:
REMARK  status: ('A' for Active; 'I' for Inactive)
REMARK    1  A    between atoms: C_4  and  C_14
REMARK    2  A    between atoms: C_5  and  C_11
REMARK    3  A    between atoms: C_15  and  C_16
REMARK                            x       y       z     vdW  Elec       q    Type
REMARK                         _______ _______ _______ _____ _____    ______ ____
ROOT
ATOM      1  C   UNL A   1     -28.016  -0.814  28.878  0.00  0.00    +0.008 A 
ATOM      2  C   UNL A   1     -27.064  -0.119  28.608  0.00  0.00    +0.038 A 
ATOM      3  C   UNL A   1     -26.876   1.133  28.913  0.00  0.00    -0.009 A 
ATOM      4  C   UNL A   1     -25.688   1.952  28.567  0.00  0.00    +0.068 C 
ATOM      5  C   UNL A   1     -24.639   1.283  27.875  0.00  0.00    +0.175 C 
ATOM      6  C   UNL A   1     -24.807  -0.051  27.604  0.00  0.00    -0.075 C 
ATOM      7  C   UNL A   1     -25.902  -0.767  27.951  0.00  0.00    -0.064 C 
ATOM      8  C   UNL A   1     -29.215  -0.106  29.151  0.00  0.00    +0.001 A 
ATOM      9  C   UNL A   1     -29.186   1.221  29.446  0.00  0.00    -0.000 A 
ATOM     10  C   UNL A   1     -28.029   1.930  29.187  0.00  0.00    -0.003 A 
ENDROOT
BRANCH   5  11
ATOM     11  C   UNL A   1     -23.358   1.901  27.578  0.00  0.00    +0.377 C 
ATOM     12  O   UNL A   1     -22.605   2.269  28.286  0.00  0.00    -0.245 OA
ATOM     13  O   UNL A   1     -23.256   2.256  26.251  0.00  0.00    -0.245 OA
ENDBRANCH   5  11
BRANCH   4  14
ATOM     14  C   UNL A   1     -25.509   3.387  28.895  0.00  0.00    -0.021 C 
ATOM     15  C   UNL A   1     -25.950   4.323  28.109  0.00  0.00    -0.004 C 
BRANCH  15  16
ATOM     16  C   UNL A   1     -25.814   5.696  28.457  0.00  0.00    -0.000 A 
ATOM     17  C   UNL A   1     -25.819   6.738  27.512  0.00  0.00    -0.000 A 
ATOM     18  C   UNL A   1     -25.543   8.058  27.876  0.00  0.00    -0.000 A 
ATOM     19  C   UNL A   1     -25.131   8.415  29.175  0.00  0.00    -0.000 A 
ATOM     20  C   UNL A   1     -25.125   7.353  30.087  0.00  0.00    -0.000 A 
ATOM     21  C   UNL A   1     -25.385   6.060  29.764  0.00  0.00    -0.000 A 
ENDBRANCH  15  16
ENDBRANCH   4  14
TORSDOF 3
