MODEL 2366
MODEL 1
REMARK VINA RESULT:    -6.948      0.000      0.000
REMARK INTER + INTRA:          -8.699
REMARK INTER:                  -8.167
REMARK INTRA:                  -0.532
REMARK UNBOUND:                -0.532
REMARK  Name = No_2366-gen_results/8p0m/2024-11-27-11-27-31/
REMARK  3 active torsions:
REMARK  status: ('A' for Active; 'I' for Inactive)
REMARK    1  A    between atoms: C_4  and  C_14
REMARK    2  A    between atoms: C_5  and  C_11
REMARK    3  A    between atoms: C_15  and  C_16
REMARK                            x       y       z     vdW  Elec       q    Type
REMARK                         _______ _______ _______ _____ _____    ______ ____
ROOT
ATOM      1  C   UNL A   1     -12.099   1.049  38.850  0.00  0.00    +0.008 A 
ATOM      2  C   UNL A   1     -11.632   1.142  37.738  0.00  0.00    +0.038 A 
ATOM      3  C   UNL A   1     -10.619   0.494  37.240  0.00  0.00    -0.009 A 
ATOM      4  C   UNL A   1     -10.078   0.633  35.865  0.00  0.00    +0.068 C 
ATOM      5  C   UNL A   1     -10.769   1.530  35.002  0.00  0.00    +0.175 C 
ATOM      6  C   UNL A   1     -11.873   2.171  35.504  0.00  0.00    -0.075 C 
ATOM      7  C   UNL A   1     -12.343   2.004  36.762  0.00  0.00    -0.064 C 
ATOM      8  C   UNL A   1     -11.210   0.536  39.830  0.00  0.00    +0.001 A 
ATOM      9  C   UNL A   1     -10.083  -0.131  39.465  0.00  0.00    -0.000 A 
ATOM     10  C   UNL A   1      -9.661  -0.045  38.152  0.00  0.00    -0.003 A 
ENDROOT
BRANCH   5  11
ATOM     11  C   UNL A   1     -10.452   1.684  33.592  0.00  0.00    +0.377 C 
ATOM     12  O   UNL A   1     -10.781   1.058  32.753  0.00  0.00    -0.245 OA
ATOM     13  O   UNL A   1      -9.427   2.582  33.393  0.00  0.00    -0.245 OA
ENDBRANCH   5  11
BRANCH   4  14
ATOM     14  C   UNL A   1      -8.901  -0.091  35.327  0.00  0.00    -0.021 C 
ATOM     15  C   UNL A   1      -7.691   0.341  35.524  0.00  0.00    -0.004 C 
BRANCH  15  16
ATOM     16  C   UNL A   1      -6.567  -0.387  35.043  0.00  0.00    -0.000 A 
ATOM     17  C   UNL A   1      -6.659  -1.678  34.492  0.00  0.00    -0.000 A 
ATOM     18  C   UNL A   1      -5.520  -2.416  34.161  0.00  0.00    -0.000 A 
ATOM     19  C   UNL A   1      -4.217  -1.973  34.462  0.00  0.00    -0.000 A 
ATOM     20  C   UNL A   1      -4.162  -0.691  35.021  0.00  0.00    -0.000 A 
ATOM     21  C   UNL A   1      -5.249   0.050  35.356  0.00  0.00    -0.000 A 
ENDBRANCH  15  16
ENDBRANCH   4  14
TORSDOF 3
ENDMDL
ENDMDL
