REMARK  Name = outputs/IAG933/test6/raw/output_2367_IAG933_linker_design_.xyz
REMARK  10 active torsions:
REMARK  status: ('A' for Active; 'I' for Inactive)
REMARK    1  A    between atoms: C_1  and  C_2
REMARK    2  A    between atoms: C_1  and  C_8
REMARK    3  A    between atoms: C_1  and  O_37
REMARK    4  A    between atoms: C_21  and  O_22
REMARK    5  A    between atoms: O_22  and  C_23
REMARK    6  A    between atoms: C_23  and  C_24
REMARK    7  A    between atoms: N_29  and  C_30
REMARK    8  A    between atoms: N_29  and  C_32
REMARK    9  A    between atoms: C_32  and  C_40
REMARK   10  A    between atoms: O_37  and  C_41
REMARK                            x       y       z     vdW  Elec       q    Type
REMARK                         _______ _______ _______ _____ _____    ______ ____
ROOT
ATOM      1  C   UNL A   1     -25.688   1.614  26.461  0.00  0.00    +0.029 C 
ATOM      2  C   UNL A   1     -26.250   2.920  26.395  0.00  0.00    +0.071 C 
ATOM      3  C   UNL A   1     -25.642   4.093  27.123  0.00  0.00    +0.223 C 
ATOM      4  N   UNL A   1     -25.614   5.252  26.449  0.00  0.00    -0.236 NA
ATOM      5  C   UNL A   1     -25.026   6.479  26.963  0.00  0.00    +0.155 C 
ATOM      6  O   UNL A   1     -25.143   3.966  28.243  0.00  0.00    -0.446 OA
ATOM      7  C   UNL A   1     -27.438   3.091  25.645  0.00  0.00    +0.106 C 
ATOM      8  N   UNL A   1     -28.075   2.089  25.003  0.00  0.00    -0.208 NA
ATOM      9  C   UNL A   1     -27.543   0.849  25.079  0.00  0.00    +0.253 C 
ATOM     10  C   UNL A   1     -26.354   0.576  25.777  0.00  0.00    +0.190 C 
ATOM     11  F   UNL A   1     -25.860  -0.681  25.795  0.00  0.00    -0.200 F 
ATOM     12  C   UNL A   1     -24.879   2.537  28.812  0.00  0.00    +0.256 C 
ATOM     13  N   UNL A   1     -22.892  -0.010  28.968  0.00  0.00    -0.212 NA
ATOM     14  C   UNL A   1     -24.362   1.526  27.496  0.00  0.00    +0.149 C 
ATOM     15  C   UNL A   1     -21.944   1.376  27.347  0.00  0.00    +0.138 C 
ATOM     16  C   UNL A   1     -21.864   0.692  28.494  0.00  0.00    +0.127 C 
ATOM     17  C   UNL A   1     -23.121   1.697  26.500  0.00  0.00    +0.076 C 
ATOM     18  F   UNL A   1     -20.938   2.024  26.872  0.00  0.00    -0.207 F 
ATOM     19  C   UNL A   1     -24.151   0.304  28.389  0.00  0.00    +0.209 C 
ENDROOT
BRANCH   9  20
ATOM     20  O   UNL A   1     -28.193  -0.208  24.477  0.00  0.00    -0.456 OA
BRANCH  20  21
ATOM     21  C   UNL A   1     -29.460   0.005  23.866  0.00  0.00    +0.243 C 
BRANCH  21  22
ATOM     22  C   UNL A   1     -30.065  -1.377  23.573  0.00  0.00    +0.229 C 
ATOM     23  O   UNL A   1     -30.729  -1.878  24.721  0.00  0.00    -0.216 OA
ENDBRANCH  21  22
ENDBRANCH  20  21
ENDBRANCH   9  20
BRANCH  12  24
ATOM     24  N   UNL A   1     -25.907   2.548  29.944  0.00  0.00    -0.172 NA
BRANCH  24  25
ATOM     25  C   UNL A   1     -26.294   3.609  30.998  0.00  0.00    +0.156 C 
BRANCH  25  28
ATOM     26  C   UNL A   1     -24.702   4.623  32.818  0.00  0.00    +0.074 C 
ATOM     27  O   UNL A   1     -25.117   5.614  30.647  0.00  0.00    -0.294 OA
ATOM     28  C   UNL A   1     -25.346   4.666  31.378  0.00  0.00    +0.169 C 
ENDBRANCH  25  28
ENDBRANCH  24  25
ENDBRANCH  12  24
BRANCH  19  29
ATOM     29  O   UNL A   1     -25.272  -0.116  29.079  0.00  0.00    -0.461 OA
BRANCH  29  30
ATOM     30  C   UNL A   1     -24.855  -1.012  30.143  0.00  0.00    +0.205 C 
BRANCH  30  31
ATOM     31  C   UNL A   1     -24.973  -2.505  29.788  0.00  0.00    +0.019 C 
ATOM     32  C   UNL A   1     -23.906  -3.173  29.146  0.00  0.00    -0.001 C 
ATOM     33  C   UNL A   1     -23.989  -4.549  28.853  0.00  0.00    -0.000 C 
ATOM     34  C   UNL A   1     -25.137  -5.280  29.205  0.00  0.00    -0.000 C 
ATOM     35  C   UNL A   1     -26.232  -4.611  29.784  0.00  0.00    -0.000 C 
ATOM     36  C   UNL A   1     -26.155  -3.232  30.065  0.00  0.00    -0.001 C 
ENDBRANCH  30  31
BRANCH  30  37
ATOM     37  C   UNL A   1     -25.387  -0.679  31.571  0.00  0.00    +0.117 C 
ATOM     38  C   UNL A   1     -25.189   0.773  32.028  0.00  0.00    +0.023 C 
ATOM     39  C   UNL A   1     -25.336   0.684  33.544  0.00  0.00    +0.020 C 
ATOM     40  C   UNL A   1     -24.829  -0.715  33.905  0.00  0.00    +0.089 C 
ATOM     41  N   UNL A   1     -24.758  -1.481  32.646  0.00  0.00    -0.215 NA
ENDBRANCH  30  37
ENDBRANCH  29  30
ENDBRANCH  19  29
TORSDOF 10
