MODEL 2367
MODEL 1
REMARK VINA RESULT:    -6.900      0.000      0.000
REMARK INTER + INTRA:          -9.666
REMARK INTER:                  -8.917
REMARK INTRA:                  -0.749
REMARK UNBOUND:                -0.749
REMARK  Name = No_2367-gen_results/8p0m/2024-11-27-11-27-31/
REMARK  5 active torsions:
REMARK  status: ('A' for Active; 'I' for Inactive)
REMARK    1  A    between atoms: C_4  and  C_11
REMARK    2  A    between atoms: C_7  and  C_16
REMARK    3  A    between atoms: C_11  and  C_13
REMARK    4  A    between atoms: N_18  and  C_19
REMARK    5  A    between atoms: C_19  and  C_21
REMARK                            x       y       z     vdW  Elec       q    Type
REMARK                         _______ _______ _______ _____ _____    ______ ____
ROOT
ATOM      1  C   UNL A   1     -26.632   0.035  27.015  0.00  0.00    +0.005 A 
ATOM      2  C   UNL A   1     -25.718   0.005  27.806  0.00  0.00    -0.000 A 
ATOM      3  C   UNL A   1     -24.467   0.570  27.561  0.00  0.00    -0.004 A 
ATOM      4  C   UNL A   1     -23.296   0.568  28.459  0.00  0.00    -0.017 A 
ATOM      5  C   UNL A   1     -22.004   1.127  28.157  0.00  0.00    -0.004 A 
ATOM      6  C   UNL A   1     -21.957   1.896  26.989  0.00  0.00    -0.000 A 
ATOM      7  C   UNL A   1     -26.340   0.573  25.643  0.00  0.00    +0.055 A 
ATOM      8  C   UNL A   1     -25.168   1.228  25.342  0.00  0.00    +0.005 A 
ATOM      9  C   UNL A   1     -24.141   1.228  26.269  0.00  0.00    -0.000 A 
ATOM     10  C   UNL A   1     -22.937   1.885  26.019  0.00  0.00    -0.000 A 
ENDROOT
BRANCH   7  11
ATOM     11  C   UNL A   1     -27.500   0.533  24.682  0.00  0.00    +0.265 C 
ATOM     12  O   UNL A   1     -27.365   0.871  23.552  0.00  0.00    -0.268 OA
ATOM     13  N   UNL A   1     -28.635  -0.016  25.048  0.00  0.00    -0.198 NA
BRANCH  13  14
ATOM     14  C   UNL A   1     -29.765  -0.142  24.163  0.00  0.00    +0.162 C 
ATOM     15  C   UNL A   1     -30.491   0.696  23.865  0.00  0.00    +0.029 C 
BRANCH  14  16
ATOM     16  C   UNL A   1     -29.825  -1.510  23.671  0.00  0.00    +0.338 C 
ATOM     17  F   UNL A   1     -28.984  -1.914  22.940  0.00  0.00    -0.197 F 
ATOM     18  F   UNL A   1     -31.034  -1.639  23.035  0.00  0.00    -0.197 F 
ENDBRANCH  14  16
ENDBRANCH  13  14
ENDBRANCH   7  11
BRANCH   4  19
ATOM     19  C   UNL A   1     -23.382  -0.093  29.802  0.00  0.00    +0.089 C 
ATOM     20  C   UNL A   1     -23.596   0.653  30.872  0.00  0.00    +0.011 C 
BRANCH  19  21
ATOM     21  C   UNL A   1     -23.309  -1.539  29.825  0.00  0.00    +0.322 C 
ATOM     22  F   UNL A   1     -22.937  -2.131  28.829  0.00  0.00    -0.198 F 
ATOM     23  F   UNL A   1     -23.645  -2.123  30.833  0.00  0.00    -0.198 F 
ENDBRANCH  19  21
ENDBRANCH   4  19
TORSDOF 5
ENDMDL
ENDMDL
