MODEL 2368
MODEL 1
REMARK VINA RESULT:    -6.377      0.000      0.000
REMARK INTER + INTRA:          -7.134
REMARK INTER:                  -6.750
REMARK INTRA:                  -0.384
REMARK UNBOUND:                -0.384
REMARK  Name = No_2368-gen_results/8p0m/2024-11-27-11-27-31/
REMARK  1 active torsions:
REMARK  status: ('A' for Active; 'I' for Inactive)
REMARK    1  A    between atoms: C_3  and  C_4
REMARK                            x       y       z     vdW  Elec       q    Type
REMARK                         _______ _______ _______ _____ _____    ______ ____
ROOT
ATOM      1  C   UNL A   1     -26.011  -2.585  29.415  0.00  0.00    +0.000 A 
ATOM      2  C   UNL A   1     -26.260  -3.447  29.969  0.00  0.00    +0.000 A 
ATOM      3  C   UNL A   1     -24.666  -2.626  28.842  0.00  0.00    +0.000 A 
ATOM      4  C   UNL A   1     -26.027  -4.814  29.659  0.00  0.00    +0.000 A 
ATOM      5  C   UNL A   1     -24.785  -5.037  28.982  0.00  0.00    +0.000 A 
ATOM      6  C   UNL A   1     -24.089  -3.913  28.587  0.00  0.00    +0.000 A 
ENDROOT
BRANCH   3   7
ATOM      7  C   UNL A   1     -23.897  -1.524  28.694  0.00  0.00    +0.000 A 
ATOM      8  C   UNL A   1     -22.632  -1.347  29.232  0.00  0.00    +0.000 A 
ATOM      9  C   UNL A   1     -24.339  -0.444  27.833  0.00  0.00    +0.000 A 
ATOM     10  C   UNL A   1     -23.713   0.777  27.639  0.00  0.00    +0.000 A 
ATOM     11  C   UNL A   1     -21.875  -0.135  29.016  0.00  0.00    +0.000 A 
ATOM     12  C   UNL A   1     -22.396   0.916  28.191  0.00  0.00    +0.000 A 
ENDBRANCH   3   7
TORSDOF 1
ENDMDL
ENDMDL
