MODEL 2369
MODEL 1
REMARK VINA RESULT:    -8.733      0.000      0.000
REMARK INTER + INTRA:         -14.576
REMARK INTER:                 -12.307
REMARK INTRA:                  -2.269
REMARK UNBOUND:                -2.269
REMARK  Name = No_2369-gen_results/8p0m/2024-11-27-11-27-31/
REMARK  7 active torsions:
REMARK  status: ('A' for Active; 'I' for Inactive)
REMARK    1  A    between atoms: C_2  and  O_17
REMARK    2  A    between atoms: C_3  and  C_7
REMARK    3  A    between atoms: C_6  and  C_13
REMARK    4  A    between atoms: O_17  and  C_18
REMARK    5  A    between atoms: C_18  and  C_19
REMARK    6  A    between atoms: C_21  and  C_23
REMARK    7  A    between atoms: C_23  and  C_26
REMARK                            x       y       z     vdW  Elec       q    Type
REMARK                         _______ _______ _______ _____ _____    ______ ____
ROOT
ATOM      1  O   UNL A   1     -26.389   0.757  27.054  0.00  0.00    -0.471 OA
ENDROOT
BRANCH   1   3
ATOM      2  C   UNL A   1     -27.788   0.174  25.397  0.00  0.00    +0.043 A 
ATOM      3  C   UNL A   1     -27.137   1.040  25.934  0.00  0.00    +0.139 A 
ATOM      4  C   UNL A   1     -27.179   2.382  25.557  0.00  0.00    +0.034 A 
ATOM      5  C   UNL A   1     -27.997   2.772  24.425  0.00  0.00    +0.003 A 
ATOM      6  C   UNL A   1     -28.715   1.739  23.824  0.00  0.00    +0.007 A 
ATOM      7  C   UNL A   1     -28.607   0.492  24.239  0.00  0.00    +0.083 A 
BRANCH   4   8
ATOM      8  C   UNL A   1     -26.411   3.513  26.169  0.00  0.00    +0.005 A 
ATOM      9  C   UNL A   1     -27.005   4.453  26.849  0.00  0.00    +0.030 A 
ATOM     10  C   UNL A   1     -26.278   5.573  27.354  0.00  0.00    +0.140 A 
ATOM     11  C   UNL A   1     -24.968   5.812  27.015  0.00  0.00    +0.030 A 
ATOM     12  C   UNL A   1     -24.997   3.718  25.821  0.00  0.00    +0.000 A 
ATOM     13  C   UNL A   1     -24.310   4.864  26.286  0.00  0.00    +0.002 A 
ATOM     14  F   UNL A   1     -26.963   6.478  28.091  0.00  0.00    -0.204 F 
ENDBRANCH   4   8
BRANCH   7  15
ATOM     15  C   UNL A   1     -29.368  -0.552  23.495  0.00  0.00    +0.388 C 
ATOM     16  O   UNL A   1     -28.992  -1.559  23.310  0.00  0.00    -0.241 OA
ATOM     17  O   UNL A   1     -30.679  -0.215  23.312  0.00  0.00    -0.241 OA
ENDBRANCH   7  15
ENDBRANCH   1   3
BRANCH   1  18
ATOM     18  C   UNL A   1     -25.552  -0.225  27.047  0.00  0.00    +0.232 C 
BRANCH  18  19
ATOM     19  C   UNL A   1     -24.322   0.112  27.717  0.00  0.00    +0.018 A 
ATOM     20  C   UNL A   1     -23.545   0.899  27.175  0.00  0.00    -0.001 A 
ATOM     21  C   UNL A   1     -24.192  -0.390  29.068  0.00  0.00    -0.008 A 
ATOM     22  C   UNL A   1     -22.172   1.157  27.747  0.00  0.00    +0.001 A 
ATOM     23  C   UNL A   1     -21.946   0.567  29.018  0.00  0.00    +0.011 A 
ATOM     24  C   UNL A   1     -22.942  -0.146  29.684  0.00  0.00    +0.054 A 
ATOM     25 CL   UNL A   1     -22.564  -0.810  31.152  0.00  0.00    -0.083 Cl
BRANCH  21  26
ATOM     26  C   UNL A   1     -25.110  -1.271  29.643  0.00  0.00    +0.045 C 
ATOM     27  C   UNL A   1     -26.094  -0.675  30.448  0.00  0.00    +0.009 C 
BRANCH  26  28
ATOM     28  C   UNL A   1     -25.090  -2.565  29.369  0.00  0.00    -0.018 A 
ATOM     29  C   UNL A   1     -24.037  -3.223  28.757  0.00  0.00    -0.004 A 
ATOM     30  C   UNL A   1     -23.966  -4.616  28.530  0.00  0.00    -0.000 A 
ATOM     31  C   UNL A   1     -25.018  -5.421  28.983  0.00  0.00    -0.000 A 
ATOM     32  C   UNL A   1     -26.134  -4.808  29.568  0.00  0.00    -0.000 A 
ATOM     33  C   UNL A   1     -26.180  -3.497  29.816  0.00  0.00    -0.004 A 
ENDBRANCH  26  28
ENDBRANCH  21  26
ENDBRANCH  18  19
ENDBRANCH   1  18
TORSDOF 7
ENDMDL
ENDMDL
