MODEL 236
MODEL 1
REMARK VINA RESULT:    -7.707      0.000      0.000
REMARK INTER + INTRA:         -10.115
REMARK INTER:                  -9.509
REMARK INTRA:                  -0.606
REMARK UNBOUND:                -0.606
REMARK  Name = No_236-gen_results/8p0m/2024-11-27-11-27-31/
REMARK  4 active torsions:
REMARK  status: ('A' for Active; 'I' for Inactive)
REMARK    1  A    between atoms: C_5  and  C_16
REMARK    2  A    between atoms: C_9  and  C_21
REMARK    3  A    between atoms: C_11  and  C_12
REMARK    4  A    between atoms: C_22  and  C_23
REMARK                            x       y       z     vdW  Elec       q    Type
REMARK                         _______ _______ _______ _____ _____    ______ ____
ROOT
ATOM      1  C   UNL A   1     -28.535  -2.939  31.180  0.00  0.00    +0.011 A 
ATOM      2  C   UNL A   1     -28.306  -4.070  30.820  0.00  0.00    +0.035 A 
ATOM      3  C   UNL A   1     -27.254  -4.418  30.036  0.00  0.00    +0.007 A 
ATOM      4  C   UNL A   1     -26.372  -3.406  29.613  0.00  0.00    +0.004 A 
ATOM      5  C   UNL A   1     -27.622  -1.869  30.864  0.00  0.00    +0.054 A 
ATOM      6  C   UNL A   1     -26.566  -2.161  30.055  0.00  0.00    +0.004 A 
ATOM      7 BR   UNL A   1     -29.434  -5.528  31.344  0.00  0.00    -0.049 Br
ATOM      8  C   UNL A   1     -25.632  -1.053  29.670  0.00  0.00    +0.000 A 
ATOM      9  C   UNL A   1     -24.397  -1.381  29.499  0.00  0.00    -0.000 A 
ATOM     10  C   UNL A   1     -24.130  -2.777  28.987  0.00  0.00    +0.004 A 
ATOM     11  C   UNL A   1     -24.991  -3.824  29.241  0.00  0.00    +0.071 A 
ENDROOT
BRANCH   5  12
ATOM     12  C   UNL A   1     -28.010  -0.530  31.319  0.00  0.00    +0.249 C 
ATOM     13  O   UNL A   1     -28.515   0.168  30.684  0.00  0.00    -0.270 OA
ATOM     14  N   UNL A   1     -27.638  -0.264  32.659  0.00  0.00    -0.273 N 
ATOM     15  C   UNL A   1     -27.987   1.009  33.274  0.00  0.00    +0.115 C 
ATOM     16  C   UNL A   1     -26.234  -0.614  33.090  0.00  0.00    +0.115 C 
ENDBRANCH   5  12
BRANCH  11  17
ATOM     17  C   UNL A   1     -24.693  -5.191  28.891  0.00  0.00    +0.419 C 
ATOM     18  F   UNL A   1     -25.502  -5.731  28.268  0.00  0.00    -0.166 F 
ATOM     19  F   UNL A   1     -24.560  -5.976  30.015  0.00  0.00    -0.166 F 
ATOM     20  F   UNL A   1     -23.463  -5.242  28.330  0.00  0.00    -0.166 F 
ENDBRANCH  11  17
BRANCH   9  21
ATOM     21  C   UNL A   1     -23.327  -0.875  30.250  0.00  0.00    -0.000 C 
ATOM     22  C   UNL A   1     -22.719   0.164  29.985  0.00  0.00    -0.000 C 
BRANCH  22  23
ATOM     23  C   UNL A   1     -23.059   0.961  28.830  0.00  0.00    -0.000 A 
ATOM     24  C   UNL A   1     -24.207   1.818  28.872  0.00  0.00    +0.000 A 
ATOM     25  C   UNL A   1     -24.453   2.661  27.770  0.00  0.00    +0.000 A 
ATOM     26  C   UNL A   1     -23.602   2.597  26.654  0.00  0.00    +0.000 A 
ATOM     27  C   UNL A   1     -22.497   1.774  26.667  0.00  0.00    +0.000 A 
ATOM     28  C   UNL A   1     -22.232   1.025  27.758  0.00  0.00    +0.000 A 
ENDBRANCH  22  23
ENDBRANCH   9  21
TORSDOF 4
ENDMDL
ENDMDL
