MODEL 2370
MODEL 1
REMARK VINA RESULT:    -7.013      0.000      0.000
REMARK INTER + INTRA:          -8.611
REMARK INTER:                  -8.243
REMARK INTRA:                  -0.369
REMARK UNBOUND:                -0.369
REMARK  Name = No_2370-gen_results/8p0m/2024-11-27-11-27-31/
REMARK  3 active torsions:
REMARK  status: ('A' for Active; 'I' for Inactive)
REMARK    1  A    between atoms: C_2  and  C_8
REMARK    2  A    between atoms: C_8  and  C_9
REMARK    3  A    between atoms: C_8  and  N_12
REMARK                            x       y       z     vdW  Elec       q    Type
REMARK                         _______ _______ _______ _____ _____    ______ ____
ROOT
ATOM      1  C   UNL A   1     -24.469  -1.611  28.448  0.00  0.00    -0.047 C 
ATOM      2  C   UNL A   1     -25.344  -2.103  28.768  0.00  0.00    -0.012 C 
ATOM      3  C   UNL A   1     -24.653  -0.325  27.838  0.00  0.00    +0.022 C 
ATOM      4  C   UNL A   1     -23.497   0.546  27.540  0.00  0.00    +0.004 C 
ATOM      5  C   UNL A   1     -22.347   0.456  28.346  0.00  0.00    +0.001 C 
ATOM      6  C   UNL A   1     -22.256  -0.587  29.290  0.00  0.00    +0.004 C 
ATOM      7  C   UNL A   1     -23.258  -1.472  29.438  0.00  0.00    +0.022 C 
ATOM      8  C   UNL A   1     -23.554   1.703  26.646  0.00  0.00    +0.000 C 
ATOM      9  C   UNL A   1     -24.181   1.468  25.504  0.00  0.00    +0.000 C 
ATOM     10  C   UNL A   1     -24.280   2.849  27.396  0.00  0.00    +0.000 C 
ATOM     11  C   UNL A   1     -22.097   1.887  26.407  0.00  0.00    +0.000 C 
ATOM     12  C   UNL A   1     -21.328   1.295  27.840  0.00  0.00    +0.000 C 
ENDROOT
BRANCH   2  13
ATOM     13  C   UNL A   1     -25.244  -3.546  29.330  0.00  0.00    +0.161 C 
BRANCH  13  14
ATOM     14  C   UNL A   1     -24.960  -4.395  28.687  0.00  0.00    +0.338 C 
ATOM     15  F   UNL A   1     -25.338  -5.606  29.104  0.00  0.00    -0.197 F 
ATOM     16  F   UNL A   1     -23.496  -4.618  28.506  0.00  0.00    -0.197 F 
ENDBRANCH  13  14
BRANCH  13  17
ATOM     17  N   UNL A   1     -26.448  -3.835  30.196  0.00  0.00    -0.208 NA
ATOM     18  C   UNL A   1     -27.373  -3.024  30.395  0.00  0.00    +0.108 C 
ENDBRANCH  13  17
ENDBRANCH   2  13
TORSDOF 3
ENDMDL
ENDMDL
