MODEL 2372
MODEL 1
REMARK VINA RESULT:    -6.414      0.000      0.000
REMARK INTER + INTRA:          -7.585
REMARK INTER:                  -7.164
REMARK INTRA:                  -0.421
REMARK UNBOUND:                -0.421
REMARK  Name = No_2372-gen_results/8p0m/2024-11-27-11-27-31/
REMARK  2 active torsions:
REMARK  status: ('A' for Active; 'I' for Inactive)
REMARK    1  A    between atoms: C_2  and  C_7
REMARK    2  A    between atoms: C_7  and  C_8
REMARK                            x       y       z     vdW  Elec       q    Type
REMARK                         _______ _______ _______ _____ _____    ______ ____
ROOT
ATOM      1  C   UNL A   1     -24.488  -1.155  29.721  0.00  0.00    +0.053 C 
ENDROOT
BRANCH   1   3
ATOM      2  C   UNL A   1     -23.847  -3.265  28.782  0.00  0.00    -0.004 A 
ATOM      3  C   UNL A   1     -24.674  -2.626  29.391  0.00  0.00    -0.018 A 
ATOM      4  C   UNL A   1     -25.842  -3.142  29.852  0.00  0.00    -0.004 A 
ATOM      5  C   UNL A   1     -26.114  -4.502  29.610  0.00  0.00    -0.000 A 
ATOM      6  C   UNL A   1     -24.016  -4.682  28.581  0.00  0.00    -0.000 A 
ATOM      7  C   UNL A   1     -25.185  -5.242  29.000  0.00  0.00    -0.000 A 
ENDBRANCH   1   3
BRANCH   1   8
ATOM      8  C   UNL A   1     -24.093  -0.318  28.541  0.00  0.00    -0.018 A 
ATOM      9  C   UNL A   1     -24.858  -0.205  27.519  0.00  0.00    -0.004 A 
ATOM     10  C   UNL A   1     -22.875   0.425  28.629  0.00  0.00    -0.004 A 
ATOM     11  C   UNL A   1     -22.578   1.308  27.516  0.00  0.00    -0.000 A 
ATOM     12  C   UNL A   1     -24.591   0.738  26.461  0.00  0.00    -0.000 A 
ATOM     13  C   UNL A   1     -23.403   1.462  26.509  0.00  0.00    -0.000 A 
ENDBRANCH   1   8
TORSDOF 2
ENDMDL
ENDMDL
