MODEL 2373
MODEL 1
REMARK VINA RESULT:    -5.302      0.000      0.000
REMARK INTER + INTRA:          -5.302
REMARK INTER:                  -5.302
REMARK INTRA:                   0.000
REMARK UNBOUND:                 0.000
REMARK  Name = No_2373-gen_results/8p0m/2024-11-27-11-27-31/
REMARK  0 active torsions:
REMARK  status: ('A' for Active; 'I' for Inactive)
REMARK                            x       y       z     vdW  Elec       q    Type
REMARK                         _______ _______ _______ _____ _____    ______ ____
ROOT
ATOM      1  O   UNL A   1     -23.970  -2.930  29.534  0.00  0.00    -0.273 OA
ATOM      2  C   UNL A   1     -23.546  -1.891  29.273  0.00  0.00    +0.246 C 
ATOM      3  N   UNL A   1     -22.651  -1.183  29.440  0.00  0.00    -0.200 NA
ATOM      4  C   UNL A   1     -24.533  -1.108  28.159  0.00  0.00    +0.113 C 
ATOM      5  C   UNL A   1     -24.077   0.058  27.593  0.00  0.00    -0.015 A 
ATOM      6  C   UNL A   1     -24.734   0.692  26.520  0.00  0.00    -0.004 A 
ATOM      7  C   UNL A   1     -22.093  -0.002  28.986  0.00  0.00    +0.141 C 
ATOM      8  C   UNL A   1     -22.796   0.660  27.989  0.00  0.00    -0.004 A 
ATOM      9  C   UNL A   1     -24.129   1.788  25.824  0.00  0.00    -0.000 A 
ATOM     10  C   UNL A   1     -22.855   2.236  26.225  0.00  0.00    -0.000 A 
ATOM     11  C   UNL A   1     -22.240   1.710  27.265  0.00  0.00    -0.003 A 
ENDROOT
TORSDOF 0
ENDMDL
ENDMDL
