REMARK  Name = No_2374-gen_results/8p0m/2024-11-27-11-27-31/
REMARK  6 active torsions:
REMARK  status: ('A' for Active; 'I' for Inactive)
REMARK    1  A    between atoms: C_2  and  C_10
REMARK    2  A    between atoms: C_5  and  C_7
REMARK    3  A    between atoms: C_10  and  N_11
REMARK    4  A    between atoms: N_11  and  C_12
REMARK    5  A    between atoms: C_13  and  C_14
REMARK    6  A    between atoms: C_15  and  C_17
REMARK                            x       y       z     vdW  Elec       q    Type
REMARK                         _______ _______ _______ _____ _____    ______ ____
ROOT
ATOM      1  C   UNL A   1     -25.692  -0.207  29.419  0.00  0.00    +0.141 C 
ENDROOT
BRANCH   1   3
ATOM      2  C   UNL A   1     -28.016  -0.814  28.878  0.00  0.00    -0.003 A 
ATOM      3  C   UNL A   1     -27.064  -0.119  28.608  0.00  0.00    -0.001 A 
ATOM      4  C   UNL A   1     -26.972   0.714  27.506  0.00  0.00    -0.003 A 
ATOM      5  C   UNL A   1     -28.105   0.774  26.642  0.00  0.00    +0.001 A 
ATOM      6  C   UNL A   1     -29.201   0.104  27.053  0.00  0.00    +0.015 A 
ATOM      7  C   UNL A   1     -29.210  -0.603  28.185  0.00  0.00    +0.001 A 
BRANCH   6   8
ATOM      8  C   UNL A   1     -30.375   0.223  26.167  0.00  0.00    +0.081 C 
ATOM      9  N   UNL A   1     -30.300   0.080  24.931  0.00  0.00    -0.153 NA
ATOM     10  C   UNL A   1     -31.528  -0.698  26.668  0.00  0.00    +0.054 C 
ENDBRANCH   6   8
ENDBRANCH   1   3
BRANCH   1  11
ATOM     11  N   UNL A   1     -24.589  -0.074  28.926  0.00  0.00    -0.207 NA
BRANCH  11  12
ATOM     12  C   UNL A   1     -23.861   0.796  28.665  0.00  0.00    +0.208 C 
ATOM     13  C   UNL A   1     -22.707   1.175  28.864  0.00  0.00    +0.046 C 
ATOM     14  F   UNL A   1     -23.955   1.325  27.118  0.00  0.00    -0.186 F 
BRANCH  13  15
ATOM     15  C   UNL A   1     -21.916   2.176  28.090  0.00  0.00    +0.005 C 
ATOM     16  C   UNL A   1     -22.529   2.578  26.924  0.00  0.00    +0.045 C 
BRANCH  16  17
ATOM     17  C   UNL A   1     -23.481   2.225  26.042  0.00  0.00    +0.341 C 
ATOM     18  F   UNL A   1     -23.975   2.460  25.114  0.00  0.00    -0.193 F 
ATOM     19  F   UNL A   1     -23.183   1.040  25.601  0.00  0.00    -0.193 F 
ENDBRANCH  16  17
ENDBRANCH  13  15
ENDBRANCH  11  12
ENDBRANCH   1  11
TORSDOF 6
