MODEL 2374
MODEL 1
REMARK VINA RESULT:    -5.923      0.000      0.000
REMARK INTER + INTRA:          -8.654
REMARK INTER:                  -8.001
REMARK INTRA:                  -0.654
REMARK UNBOUND:                -0.654
REMARK  Name = No_2374-gen_results/8p0m/2024-11-27-11-27-31/
REMARK  6 active torsions:
REMARK  status: ('A' for Active; 'I' for Inactive)
REMARK    1  A    between atoms: C_2  and  C_10
REMARK    2  A    between atoms: C_5  and  C_7
REMARK    3  A    between atoms: C_10  and  N_11
REMARK    4  A    between atoms: N_11  and  C_12
REMARK    5  A    between atoms: C_13  and  C_14
REMARK    6  A    between atoms: C_15  and  C_17
REMARK                            x       y       z     vdW  Elec       q    Type
REMARK                         _______ _______ _______ _____ _____    ______ ____
ROOT
ATOM      1  C   UNL A   1     -26.073  -0.222  24.794  0.00  0.00    +0.141 C 
ENDROOT
BRANCH   1   3
ATOM      2  C   UNL A   1     -27.619   1.583  24.150  0.00  0.00    -0.003 A 
ATOM      3  C   UNL A   1     -27.427   0.391  24.210  0.00  0.00    -0.001 A 
ATOM      4  C   UNL A   1     -28.371  -0.584  23.936  0.00  0.00    -0.003 A 
ATOM      5  C   UNL A   1     -29.660  -0.140  23.521  0.00  0.00    +0.001 A 
ATOM      6  C   UNL A   1     -29.795   1.187  23.320  0.00  0.00    +0.015 A 
ATOM      7  C   UNL A   1     -28.787   2.037  23.533  0.00  0.00    +0.001 A 
BRANCH   6   8
ATOM      8  C   UNL A   1     -31.124   1.616  22.843  0.00  0.00    +0.081 C 
ATOM      9  N   UNL A   1     -32.167   0.987  23.109  0.00  0.00    -0.153 NA
ATOM     10  C   UNL A   1     -31.378   3.108  23.214  0.00  0.00    +0.054 C 
ENDBRANCH   6   8
ENDBRANCH   1   3
BRANCH   1  11
ATOM     11  N   UNL A   1     -25.032   0.394  24.912  0.00  0.00    -0.207 NA
BRANCH  11  12
ATOM     12  C   UNL A   1     -24.455   0.960  25.750  0.00  0.00    +0.208 C 
ATOM     13  C   UNL A   1     -23.822   0.757  26.785  0.00  0.00    +0.046 C 
ATOM     14  F   UNL A   1     -23.536   2.208  25.223  0.00  0.00    -0.186 F 
BRANCH  13  15
ATOM     15  C   UNL A   1     -22.867   1.670  27.479  0.00  0.00    +0.005 C 
ATOM     16  C   UNL A   1     -21.925   1.009  28.235  0.00  0.00    +0.045 C 
BRANCH  16  17
ATOM     17  C   UNL A   1     -21.666  -0.173  28.824  0.00  0.00    +0.341 C 
ATOM     18  F   UNL A   1     -21.992  -1.188  28.978  0.00  0.00    -0.193 F 
ATOM     19  F   UNL A   1     -20.524  -0.593  28.368  0.00  0.00    -0.193 F 
ENDBRANCH  16  17
ENDBRANCH  13  15
ENDBRANCH  11  12
ENDBRANCH   1  11
TORSDOF 6
ENDMDL
ENDMDL
