REMARK  Name = outputs/IAG933/test6/raw/output_2376_IAG933_linker_design_.xyz
REMARK  8 active torsions:
REMARK  status: ('A' for Active; 'I' for Inactive)
REMARK    1  A    between atoms: C_1  and  C_2
REMARK    2  A    between atoms: C_1  and  C_8
REMARK    3  A    between atoms: C_1  and  C_41
REMARK    4  A    between atoms: C_14  and  C_15
REMARK    5  A    between atoms: C_29  and  C_32
REMARK    6  A    between atoms: C_30  and  O_38
REMARK    7  A    between atoms: C_31  and  C_43
REMARK    8  A    between atoms: C_32  and  C_39
REMARK                            x       y       z     vdW  Elec       q    Type
REMARK                         _______ _______ _______ _____ _____    ______ ____
ROOT
ATOM      1  C   UNL A   1     -25.688   1.614  26.461  0.00  0.00    +0.185 C 
ATOM      2  C   UNL A   1     -26.250   2.920  26.395  0.00  0.00    +0.082 C 
ATOM      3  C   UNL A   1     -27.438   3.091  25.645  0.00  0.00    +0.104 C 
ATOM      4  N   UNL A   1     -28.075   2.089  25.003  0.00  0.00    -0.212 NA
ATOM      5  C   UNL A   1     -27.543   0.849  25.079  0.00  0.00    +0.237 C 
ATOM      6  O   UNL A   1     -28.193  -0.208  24.477  0.00  0.00    -0.459 OA
ATOM      7  C   UNL A   1     -29.460   0.005  23.866  0.00  0.00    +0.239 C 
ATOM      8  C   UNL A   1     -30.065  -1.377  23.573  0.00  0.00    +0.189 C 
ATOM      9  O   UNL A   1     -30.729  -1.878  24.721  0.00  0.00    -0.350 OA
ATOM     10  C   UNL A   1     -26.354   0.576  25.777  0.00  0.00    +0.267 C 
ATOM     11  F   UNL A   1     -25.860  -0.681  25.795  0.00  0.00    -0.224 F 
ATOM     12  C   UNL A   1     -24.769   0.148  28.122  0.00  0.00    +0.177 C 
ATOM     13  C   UNL A   1     -29.591  -1.305  28.551  0.00  0.00    +0.136 C 
ATOM     14  C   UNL A   1     -29.656   1.080  29.164  0.00  0.00    +0.020 C 
ATOM     15  C   UNL A   1     -27.175   0.272  29.259  0.00  0.00    -0.029 C 
ATOM     16  O   UNL A   1     -25.167   1.468  27.723  0.00  0.00    -0.343 OA
ATOM     17  C   UNL A   1     -31.620   0.193  27.882  0.00  0.00    +0.006 C 
ATOM     18  C   UNL A   1     -31.356   0.557  29.286  0.00  0.00    +0.004 C 
ATOM     19  C   UNL A   1     -25.814  -0.120  29.187  0.00  0.00    +0.061 C 
ATOM     20  C   UNL A   1     -30.413  -0.661  27.371  0.00  0.00    +0.061 C 
ATOM     21  C   UNL A   1     -28.688  -0.176  29.086  0.00  0.00    -0.022 C 
ATOM     22  C   UNL A   1     -30.748  -1.660  26.105  0.00  0.00    +0.145 C 
ATOM     23  C   UNL A   1     -32.235  -0.243  30.327  0.00  0.00    +0.000 C 
ENDROOT
BRANCH   2  24
ATOM     24  C   UNL A   1     -25.642   4.093  27.123  0.00  0.00    +0.265 C 
ATOM     25  N   UNL A   1     -25.614   5.252  26.449  0.00  0.00    -0.200 NA
ATOM     26  C   UNL A   1     -25.026   6.479  26.963  0.00  0.00    +0.139 C 
ATOM     27  O   UNL A   1     -25.143   3.966  28.243  0.00  0.00    -0.269 OA
ENDBRANCH   2  24
BRANCH  14  29
ATOM     28  C   UNL A   1     -30.285   2.890  27.486  0.00  0.00    +0.000 C 
ATOM     29  C   UNL A   1     -29.196   2.324  28.373  0.00  0.00    +0.004 C 
ENDBRANCH  14  29
BRANCH  12  30
ATOM     30  C   UNL A   1     -23.132   0.383  28.486  0.00  0.00    +0.178 C 
ATOM     31  O   UNL A   1     -22.515  -0.082  29.455  0.00  0.00    -0.293 OA
BRANCH  30  33
ATOM     32  C   UNL A   1     -21.013   1.461  27.499  0.00  0.00    +0.008 C 
ATOM     33  C   UNL A   1     -22.571   1.492  27.433  0.00  0.00    +0.067 C 
ENDBRANCH  30  33
ENDBRANCH  12  30
BRANCH  13  34
ATOM     34  O   UNL A   1     -30.312  -1.957  29.673  0.00  0.00    -0.349 OA
ATOM     35  C   UNL A   1     -29.794  -3.018  30.566  0.00  0.00    +0.174 C 
ENDBRANCH  13  34
BRANCH  19  36
ATOM     36  C   UNL A   1     -24.855  -1.012  30.143  0.00  0.00    +0.045 C 
BRANCH  36  37
ATOM     37  C   UNL A   1     -24.973  -2.505  29.788  0.00  0.00    -0.021 C 
ATOM     38  C   UNL A   1     -23.906  -3.173  29.146  0.00  0.00    -0.004 C 
ATOM     39  C   UNL A   1     -23.989  -4.549  28.853  0.00  0.00    -0.000 C 
ATOM     40  C   UNL A   1     -25.137  -5.280  29.205  0.00  0.00    -0.000 C 
ATOM     41  C   UNL A   1     -26.232  -4.611  29.784  0.00  0.00    -0.000 C 
ATOM     42  C   UNL A   1     -26.155  -3.232  30.065  0.00  0.00    -0.004 C 
ENDBRANCH  36  37
BRANCH  36  43
ATOM     43  C   UNL A   1     -25.387  -0.679  31.571  0.00  0.00    +0.077 C 
ATOM     44  C   UNL A   1     -25.189   0.773  32.028  0.00  0.00    +0.019 C 
ATOM     45  C   UNL A   1     -25.336   0.684  33.544  0.00  0.00    +0.020 C 
ATOM     46  C   UNL A   1     -24.829  -0.715  33.905  0.00  0.00    +0.089 C 
ATOM     47  N   UNL A   1     -24.758  -1.481  32.646  0.00  0.00    -0.219 NA
ENDBRANCH  36  43
ENDBRANCH  19  36
TORSDOF 8
