MODEL 2376
MODEL 1
REMARK VINA RESULT:    -8.494      0.000      0.000
REMARK INTER + INTRA:         -11.970
REMARK INTER:                 -10.977
REMARK INTRA:                  -0.993
REMARK UNBOUND:                -0.993
REMARK  Name = No_2376-gen_results/8p0m/2024-11-27-11-27-31/
REMARK  5 active torsions:
REMARK  status: ('A' for Active; 'I' for Inactive)
REMARK    1  A    between atoms: C_3  and  C_4
REMARK    2  A    between atoms: C_4  and  C_5
REMARK    3  A    between atoms: C_4  and  C_9
REMARK    4  A    between atoms: C_7  and  C_18
REMARK    5  A    between atoms: C_9  and  C_10
REMARK                            x       y       z     vdW  Elec       q    Type
REMARK                         _______ _______ _______ _____ _____    ______ ____
ROOT
ATOM      1  C   UNL A   1     -22.321   1.367  27.681  0.00  0.00    -0.004 A 
ATOM      2  C   UNL A   1     -22.491   1.906  26.791  0.00  0.00    -0.000 A 
ATOM      3  C   UNL A   1     -23.321   0.402  28.038  0.00  0.00    -0.011 A 
ATOM      4  C   UNL A   1     -23.712   2.054  26.011  0.00  0.00    -0.000 A 
ATOM      5  C   UNL A   1     -24.693   1.196  26.356  0.00  0.00    -0.000 A 
ATOM      6  C   UNL A   1     -24.517   0.288  27.395  0.00  0.00    -0.004 A 
ENDROOT
BRANCH   5   7
ATOM      7  C   UNL A   1     -25.969   1.152  25.569  0.00  0.00    +0.001 A 
ATOM      8  C   UNL A   1     -26.249   0.295  24.805  0.00  0.00    +0.000 A 
ATOM      9  C   UNL A   1     -27.426   0.359  23.914  0.00  0.00    +0.001 A 
ATOM     10  C   UNL A   1     -28.247   1.469  24.080  0.00  0.00    +0.011 A 
ATOM     11  C   UNL A   1     -26.746   2.377  25.486  0.00  0.00    +0.011 A 
ATOM     12  C   UNL A   1     -27.870   2.482  24.832  0.00  0.00    +0.058 A 
ATOM     13 CL   UNL A   1     -28.775   3.911  24.968  0.00  0.00    -0.082 Cl
ENDBRANCH   5   7
BRANCH   3  14
ATOM     14  C   UNL A   1     -23.095  -0.554  29.142  0.00  0.00    +0.130 C 
BRANCH  14  15
ATOM     15  C   UNL A   1     -23.079  -0.182  30.437  0.00  0.00    +0.369 C 
ATOM     16  O   UNL A   1     -22.504  -0.654  31.311  0.00  0.00    -0.245 OA
ATOM     17  O   UNL A   1     -24.030   0.755  30.679  0.00  0.00    -0.245 OA
ENDBRANCH  14  15
BRANCH  14  18
ATOM     18  C   UNL A   1     -23.060  -1.979  28.906  0.00  0.00    +0.042 C 
BRANCH  18  19
ATOM     19  C   UNL A   1     -24.213  -2.746  29.367  0.00  0.00    -0.021 A 
ATOM     20  C   UNL A   1     -25.446  -2.266  29.744  0.00  0.00    -0.004 A 
ATOM     21  C   UNL A   1     -26.510  -3.155  29.992  0.00  0.00    -0.000 A 
ATOM     22  C   UNL A   1     -26.362  -4.521  29.711  0.00  0.00    -0.000 A 
ATOM     23  C   UNL A   1     -24.215  -4.182  29.020  0.00  0.00    -0.004 A 
ATOM     24  C   UNL A   1     -25.256  -4.990  29.182  0.00  0.00    -0.000 A 
ENDBRANCH  18  19
ENDBRANCH  14  18
ENDBRANCH   3  14
TORSDOF 5
ENDMDL
ENDMDL
