MODEL 2377
MODEL 1
REMARK VINA RESULT:    -7.706      0.000      0.000
REMARK INTER + INTRA:         -11.381
REMARK INTER:                 -10.409
REMARK INTRA:                  -0.972
REMARK UNBOUND:                -0.972
REMARK  Name = No_2377-gen_results/8p0m/2024-11-27-11-27-31/
REMARK  6 active torsions:
REMARK  status: ('A' for Active; 'I' for Inactive)
REMARK    1  A    between atoms: C_3  and  C_7
REMARK    2  A    between atoms: C_6  and  C_15
REMARK    3  A    between atoms: C_7  and  C_8
REMARK    4  A    between atoms: C_7  and  C_19
REMARK    5  A    between atoms: C_20  and  C_22
REMARK    6  A    between atoms: N_25  and  C_26
REMARK                            x       y       z     vdW  Elec       q    Type
REMARK                         _______ _______ _______ _____ _____    ______ ____
ROOT
ATOM      1  C   UNL A   1     -31.237 -15.024  10.417  0.00  0.00    +0.249 C 
ATOM      2  N   UNL A   1     -30.789 -13.961  10.881  0.00  0.00    -0.276 N 
ATOM      3  C   UNL A   1     -31.011 -13.568  12.114  0.00  0.00    +0.094 C 
ATOM      4  C   UNL A   1     -30.048 -13.036  10.111  0.00  0.00    +0.103 C 
ATOM      5  C   UNL A   1     -29.553 -11.945  10.722  0.00  0.00    +0.098 C 
ATOM      6  C   UNL A   1     -30.439 -12.430  12.819  0.00  0.00    +0.022 C 
ATOM      7  C   UNL A   1     -29.712 -11.601  12.067  0.00  0.00    +0.013 C 
ATOM      8  O   UNL A   1     -32.382 -15.356  10.551  0.00  0.00    -0.270 OA
ENDROOT
BRANCH   1  14
ATOM      9  C   UNL A   1     -29.020 -16.120   9.746  0.00  0.00    +0.004 A 
ATOM     10  C   UNL A   1     -28.352 -16.703   8.924  0.00  0.00    -0.004 A 
ATOM     11  C   UNL A   1     -28.770 -16.934   7.614  0.00  0.00    -0.021 A 
ATOM     12  C   UNL A   1     -30.098 -16.512   7.212  0.00  0.00    -0.004 A 
ATOM     13  C   UNL A   1     -30.841 -15.862   8.196  0.00  0.00    +0.004 A 
ATOM     14  C   UNL A   1     -30.371 -15.695   9.417  0.00  0.00    +0.054 A 
BRANCH  11  15
ATOM     15  C   UNL A   1     -28.001 -17.636   6.546  0.00  0.00    +0.050 C 
BRANCH  15  16
ATOM     16  C   UNL A   1     -27.157 -18.587   6.813  0.00  0.00    +0.084 C 
ATOM     17  C   UNL A   1     -27.481 -19.913   7.153  0.00  0.00    +0.011 C 
ATOM     18  C   UNL A   1     -25.758 -18.108   7.056  0.00  0.00    +0.241 C 
ATOM     19  N   UNL A   1     -24.820 -19.046   7.135  0.00  0.00    -0.205 NA
ATOM     20  O   UNL A   1     -25.229 -16.926   6.895  0.00  0.00    -0.273 OA
ATOM     21  C   UNL A   1     -25.185 -20.424   7.383  0.00  0.00    +0.115 C 
ATOM     22  C   UNL A   1     -26.567 -20.617   7.464  0.00  0.00    +0.024 C 
ENDBRANCH  15  16
BRANCH  15  23
ATOM     23  C   UNL A   1     -28.399 -17.226   5.153  0.00  0.00    +0.114 C 
ATOM     24  N   UNL A   1     -27.696 -16.399   4.431  0.00  0.00    -0.131 NA
ENDBRANCH  15  23
ENDBRANCH  11  15
ENDBRANCH   1  14
BRANCH   5  25
ATOM     25  C   UNL A   1     -28.725 -11.002   9.862  0.00  0.00    +0.247 C 
ATOM     26  O   UNL A   1     -27.647 -11.103   9.555  0.00  0.00    -0.273 OA
ATOM     27  N   UNL A   1     -29.363  -9.735   9.663  0.00  0.00    -0.179 NA
BRANCH  27  28
ATOM     28  C   UNL A   1     -28.677  -8.748   8.852  0.00  0.00    +0.073 A 
ATOM     29  C   UNL A   1     -28.776  -8.864   7.789  0.00  0.00    +0.019 A 
ATOM     30  C   UNL A   1     -28.113  -8.075   6.768  0.00  0.00    +0.031 A 
ATOM     31  C   UNL A   1     -27.306  -6.976   7.275  0.00  0.00    +0.140 A 
ATOM     32  C   UNL A   1     -27.226  -6.882   8.650  0.00  0.00    +0.031 A 
ATOM     33  C   UNL A   1     -27.869  -7.807   9.479  0.00  0.00    +0.019 A 
ATOM     34  F   UNL A   1     -26.657  -6.153   6.514  0.00  0.00    -0.204 F 
ENDBRANCH  27  28
ENDBRANCH   5  25
TORSDOF 6
ENDMDL
ENDMDL
