MODEL 2378
MODEL 1
REMARK VINA RESULT:    -6.988      0.000      0.000
REMARK INTER + INTRA:          -9.116
REMARK INTER:                  -7.805
REMARK INTRA:                  -1.311
REMARK UNBOUND:                -1.311
REMARK  Name = No_2378-gen_results/8p0m/2024-11-27-11-27-31/
REMARK  2 active torsions:
REMARK  status: ('A' for Active; 'I' for Inactive)
REMARK    1  A    between atoms: C_7  and  C_9
REMARK    2  A    between atoms: C_14  and  C_15
REMARK                            x       y       z     vdW  Elec       q    Type
REMARK                         _______ _______ _______ _____ _____    ______ ____
ROOT
ATOM      1  C   UNL A   1     -23.436  -0.020  28.201  0.00  0.00    +0.001 A 
ATOM      2  C   UNL A   1     -22.204   0.092  28.668  0.00  0.00    +0.000 A 
ATOM      3  C   UNL A   1     -21.324   1.022  28.147  0.00  0.00    +0.000 A 
ATOM      4  C   UNL A   1     -21.714   1.834  27.051  0.00  0.00    +0.000 A 
ATOM      5  C   UNL A   1     -22.985   1.645  26.532  0.00  0.00    +0.000 A 
ATOM      6  C   UNL A   1     -23.877   0.676  27.078  0.00  0.00    +0.000 A 
ENDROOT
BRANCH   1  13
ATOM      7 BR   UNL A   1     -25.422   1.067  30.339  0.00  0.00    -0.049 Br
ATOM      8  C   UNL A   1     -25.351  -0.492  29.790  0.00  0.00    +0.035 A 
ATOM      9  C   UNL A   1     -26.075  -1.501  30.449  0.00  0.00    +0.008 A 
ATOM     10  C   UNL A   1     -25.949  -2.839  30.067  0.00  0.00    +0.012 A 
ATOM     11  C   UNL A   1     -25.023  -3.253  29.136  0.00  0.00    +0.058 A 
ATOM     12  C   UNL A   1     -24.272  -2.290  28.551  0.00  0.00    +0.012 A 
ATOM     13  C   UNL A   1     -24.361  -1.019  28.901  0.00  0.00    +0.007 A 
ATOM     14 CL   UNL A   1     -24.900  -4.938  28.756  0.00  0.00    -0.082 Cl
ENDBRANCH   1  13
BRANCH   6  15
ATOM     15  C   UNL A   1     -25.169   0.531  26.447  0.00  0.00    +0.000 A 
ATOM     16  C   UNL A   1     -25.427  -0.313  25.540  0.00  0.00    +0.000 A 
ATOM     17  C   UNL A   1     -26.697  -0.398  24.886  0.00  0.00    +0.000 A 
ATOM     18  C   UNL A   1     -27.692   0.538  25.229  0.00  0.00    +0.000 A 
ATOM     19  C   UNL A   1     -27.436   1.516  26.201  0.00  0.00    +0.000 A 
ATOM     20  C   UNL A   1     -26.233   1.497  26.838  0.00  0.00    +0.000 A 
ENDBRANCH   6  15
TORSDOF 2
ENDMDL
ENDMDL
