MODEL 2379
MODEL 1
REMARK VINA RESULT:    -8.480      0.000      0.000
REMARK INTER + INTRA:         -14.402
REMARK INTER:                 -12.447
REMARK INTRA:                  -1.955
REMARK UNBOUND:                -1.955
REMARK  Name = No_2379-gen_results/8p0m/2024-11-27-11-27-31/
REMARK  8 active torsions:
REMARK  status: ('A' for Active; 'I' for Inactive)
REMARK    1  A    between atoms: C_2  and  O_7
REMARK    2  A    between atoms: C_4  and  C_14
REMARK    3  A    between atoms: O_7  and  C_8
REMARK    4  A    between atoms: C_11  and  P_30
REMARK    5  A    between atoms: C_14  and  C_15
REMARK    6  A    between atoms: C_19  and  C_21
REMARK    7  A    between atoms: C_22  and  C_23
REMARK    8  A    between atoms: C_23  and  C_24
REMARK                            x       y       z     vdW  Elec       q    Type
REMARK                         _______ _______ _______ _____ _____    ______ ____
ROOT
ATOM      1  C   UNL A   1      -7.720  -2.280  42.088  0.00  0.00    +0.037 A 
ATOM      2  C   UNL A   1      -7.971  -3.140  42.642  0.00  0.00    +0.145 A 
ATOM      3  C   UNL A   1      -8.839  -1.529  41.495  0.00  0.00    -0.001 A 
ATOM      4  C   UNL A   1     -10.187  -1.886  41.788  0.00  0.00    -0.018 A 
ATOM      5  C   UNL A   1      -9.265  -3.686  43.134  0.00  0.00    +0.037 A 
ATOM      6  C   UNL A   1     -10.327  -3.022  42.597  0.00  0.00    -0.001 A 
ENDROOT
BRANCH   2   7
ATOM      7  O   UNL A   1      -6.875  -3.897  43.240  0.00  0.00    -0.454 OA
BRANCH   7   8
ATOM      8  C   UNL A   1      -6.220  -4.682  42.453  0.00  0.00    +0.145 A 
ATOM      9  C   UNL A   1      -6.570  -5.820  42.009  0.00  0.00    +0.038 A 
ATOM     10  C   UNL A   1      -5.825  -6.739  41.238  0.00  0.00    +0.010 A 
ATOM     11  C   UNL A   1      -4.537  -6.284  40.883  0.00  0.00    +0.078 A 
ATOM     12  C   UNL A   1      -4.819  -4.311  42.114  0.00  0.00    +0.038 A 
ATOM     13  C   UNL A   1      -4.070  -5.065  41.322  0.00  0.00    +0.010 A 
BRANCH  11  14
ATOM     14  P   UNL A   1      -3.571  -7.292  39.767  0.00  0.00    +0.421 P 
ATOM     15  O   UNL A   1      -3.904  -6.983  38.386  0.00  0.00    -0.256 OA
ATOM     16  O   UNL A   1      -3.916  -8.724  40.177  0.00  0.00    -0.256 OA
ENDBRANCH  11  14
ENDBRANCH   7   8
ENDBRANCH   2   7
BRANCH   4  17
ATOM     17  C   UNL A   1     -11.299  -1.167  41.251  0.00  0.00    +0.053 C 
BRANCH  17  18
ATOM     18  C   UNL A   1     -11.724  -1.278  40.023  0.00  0.00    -0.018 A 
ATOM     19  C   UNL A   1     -12.222  -2.553  39.486  0.00  0.00    -0.004 A 
ATOM     20  C   UNL A   1     -12.256  -2.746  38.131  0.00  0.00    -0.000 A 
ATOM     21  C   UNL A   1     -11.196  -2.070  37.362  0.00  0.00    -0.000 A 
ATOM     22  C   UNL A   1     -10.509  -0.945  37.931  0.00  0.00    -0.001 A 
ATOM     23  C   UNL A   1     -11.578  -0.219  39.113  0.00  0.00    -0.004 A 
BRANCH  22  24
ATOM     24  C   UNL A   1      -9.740  -0.023  37.129  0.00  0.00    -0.004 C 
ATOM     25  C   UNL A   1      -8.817  -0.404  36.348  0.00  0.00    -0.021 C 
BRANCH  25  26
ATOM     26  C   UNL A   1      -8.236  -0.131  35.368  0.00  0.00    +0.052 C 
BRANCH  26  27
ATOM     27  C   UNL A   1      -6.973  -0.604  34.890  0.00  0.00    -0.018 A 
ATOM     28  C   UNL A   1      -6.669  -1.883  34.412  0.00  0.00    -0.004 A 
ATOM     29  C   UNL A   1      -5.395  -2.306  34.175  0.00  0.00    -0.000 A 
ATOM     30  C   UNL A   1      -4.371  -1.417  34.604  0.00  0.00    -0.000 A 
ATOM     31  C   UNL A   1      -4.626  -0.177  35.112  0.00  0.00    -0.000 A 
ATOM     32  C   UNL A   1      -5.901   0.235  35.335  0.00  0.00    -0.004 A 
ENDBRANCH  26  27
ENDBRANCH  25  26
ENDBRANCH  22  24
ENDBRANCH  17  18
ENDBRANCH   4  17
TORSDOF 8
ENDMDL
ENDMDL
