REMARK  Name = No_2379-gen_results/8p0m/2024-11-27-11-27-31/
REMARK  8 active torsions:
REMARK  status: ('A' for Active; 'I' for Inactive)
REMARK    1  A    between atoms: C_2  and  O_7
REMARK    2  A    between atoms: C_4  and  C_14
REMARK    3  A    between atoms: O_7  and  C_8
REMARK    4  A    between atoms: C_11  and  P_30
REMARK    5  A    between atoms: C_14  and  C_15
REMARK    6  A    between atoms: C_19  and  C_21
REMARK    7  A    between atoms: C_22  and  C_23
REMARK    8  A    between atoms: C_23  and  C_24
REMARK                            x       y       z     vdW  Elec       q    Type
REMARK                         _______ _______ _______ _____ _____    ______ ____
ROOT
ATOM      1  C   UNL A   1     -28.016  -0.814  28.878  0.00  0.00    +0.037 A 
ATOM      2  C   UNL A   1     -28.469  -0.785  29.829  0.00  0.00    +0.145 A 
ATOM      3  C   UNL A   1     -26.546  -0.876  28.850  0.00  0.00    -0.001 A 
ATOM      4  C   UNL A   1     -25.804  -1.032  30.057  0.00  0.00    -0.018 A 
ATOM      5  C   UNL A   1     -27.944  -0.987  31.207  0.00  0.00    +0.037 A 
ATOM      6  C   UNL A   1     -26.582  -1.039  31.223  0.00  0.00    -0.001 A 
ENDROOT
BRANCH   2   7
ATOM      7  O   UNL A   1     -29.927  -0.726  29.877  0.00  0.00    -0.454 OA
BRANCH   7   8
ATOM      8  C   UNL A   1     -30.505  -0.024  28.962  0.00  0.00    +0.145 A 
ATOM      9  C   UNL A   1     -31.377  -0.399  28.117  0.00  0.00    +0.038 A 
ATOM     10  C   UNL A   1     -31.939   0.323  27.041  0.00  0.00    +0.010 A 
ATOM     11  C   UNL A   1     -31.491   1.658  26.946  0.00  0.00    +0.078 A 
ATOM     12  C   UNL A   1     -30.015   1.364  28.741  0.00  0.00    +0.038 A 
ATOM     13  C   UNL A   1     -30.543   2.152  27.815  0.00  0.00    +0.010 A 
BRANCH  11  14
ATOM     14  P   UNL A   1     -32.261   2.715  25.727  0.00  0.00    +0.421 P 
ATOM     15  O   UNL A   1     -32.772   1.924  24.620  0.00  0.00    -0.256 OA
ATOM     16  O   UNL A   1     -31.147   3.683  25.328  0.00  0.00    -0.256 OA
ENDBRANCH  11  14
ENDBRANCH   7   8
ENDBRANCH   2   7
BRANCH   4  17
ATOM     17  C   UNL A   1     -24.378  -1.120  30.068  0.00  0.00    +0.053 C 
BRANCH  17  18
ATOM     18  C   UNL A   1     -23.625  -1.004  29.010  0.00  0.00    -0.018 A 
ATOM     19  C   UNL A   1     -22.163  -0.877  29.106  0.00  0.00    -0.004 A 
ATOM     20  C   UNL A   1     -21.462  -0.345  28.058  0.00  0.00    -0.000 A 
ATOM     21  C   UNL A   1     -22.168   0.684  27.273  0.00  0.00    -0.000 A 
ATOM     22  C   UNL A   1     -23.601   0.755  27.315  0.00  0.00    -0.001 A 
ATOM     23  C   UNL A   1     -24.194  -0.838  27.737  0.00  0.00    -0.004 A 
BRANCH  22  24
ATOM     24  C   UNL A   1     -24.369   1.469  26.323  0.00  0.00    -0.004 C 
ATOM     25  C   UNL A   1     -25.563   1.159  26.033  0.00  0.00    -0.021 C 
BRANCH  25  26
ATOM     26  C   UNL A   1     -26.578   1.583  25.627  0.00  0.00    +0.052 C 
BRANCH  26  27
ATOM     27  C   UNL A   1     -27.581   0.950  24.828  0.00  0.00    -0.018 A 
ATOM     28  C   UNL A   1     -28.882   1.401  24.581  0.00  0.00    -0.004 A 
ATOM     29  C   UNL A   1     -29.835   0.632  23.982  0.00  0.00    -0.000 A 
ATOM     30  C   UNL A   1     -29.474  -0.727  23.769  0.00  0.00    -0.000 A 
ATOM     31  C   UNL A   1     -28.228  -1.216  24.033  0.00  0.00    -0.000 A 
ATOM     32  C   UNL A   1     -27.285  -0.436  24.623  0.00  0.00    -0.004 A 
ENDBRANCH  26  27
ENDBRANCH  25  26
ENDBRANCH  22  24
ENDBRANCH  17  18
ENDBRANCH   4  17
TORSDOF 8
