MODEL 237
MODEL 1
REMARK VINA RESULT:    -7.327      0.000      0.000
REMARK INTER + INTRA:         -12.310
REMARK INTER:                 -11.182
REMARK INTRA:                  -1.128
REMARK UNBOUND:                -1.128
REMARK  Name = No_237-gen_results/8p0m/2024-11-27-11-27-31/
REMARK  9 active torsions:
REMARK  status: ('A' for Active; 'I' for Inactive)
REMARK    1  A    between atoms: C_1  and  C_14
REMARK    2  A    between atoms: C_2  and  C_8
REMARK    3  A    between atoms: C_4  and  O_17
REMARK    4  A    between atoms: C_14  and  O_15
REMARK    5  A    between atoms: O_15  and  C_19
REMARK    6  A    between atoms: O_17  and  C_18
REMARK    7  A    between atoms: C_19  and  C_20
REMARK    8  A    between atoms: C_23  and  C_24
REMARK    9  A    between atoms: C_25  and  C_26
REMARK                            x       y       z     vdW  Elec       q    Type
REMARK                         _______ _______ _______ _____ _____    ______ ____
ROOT
ATOM      1  C   UNL A   1     -23.362  -0.063  28.342  0.00  0.00    +0.078 A 
ATOM      2  C   UNL A   1     -24.316  -0.652  27.890  0.00  0.00    +0.009 A 
ATOM      3  C   UNL A   1     -25.185  -0.149  26.937  0.00  0.00    +0.040 A 
ATOM      4  C   UNL A   1     -24.910   1.156  26.433  0.00  0.00    +0.173 A 
ATOM      5  C   UNL A   1     -23.758   1.722  26.847  0.00  0.00    +0.175 A 
ATOM      6  C   UNL A   1     -22.943   1.109  27.708  0.00  0.00    +0.039 A 
ATOM      7  F   UNL A   1     -23.456   2.903  26.327  0.00  0.00    -0.201 F 
ENDROOT
BRANCH   2   8
ATOM      8  C   UNL A   1     -24.792  -2.033  28.475  0.00  0.00    +0.000 A 
ATOM      9  C   UNL A   1     -24.121  -3.138  28.240  0.00  0.00    +0.000 A 
ATOM     10  C   UNL A   1     -24.363  -4.278  28.740  0.00  0.00    +0.000 A 
ATOM     11  C   UNL A   1     -25.452  -4.486  29.595  0.00  0.00    +0.000 A 
ATOM     12  C   UNL A   1     -26.285  -3.355  29.817  0.00  0.00    +0.000 A 
ATOM     13  C   UNL A   1     -25.919  -2.087  29.255  0.00  0.00    +0.000 A 
ENDBRANCH   2   8
BRANCH   1  14
ATOM     14  C   UNL A   1     -22.420  -0.649  29.386  0.00  0.00    +0.342 C 
ATOM     15  O   UNL A   1     -21.375  -1.247  29.030  0.00  0.00    -0.245 OA
BRANCH  14  16
ATOM     16  O   UNL A   1     -22.823  -0.647  30.538  0.00  0.00    -0.433 OA
BRANCH  16  17
ATOM     17  C   UNL A   1     -23.570   0.441  31.055  0.00  0.00    +0.322 C 
BRANCH  17  18
ATOM     18  C   UNL A   1     -24.554  -0.045  31.906  0.00  0.00    +0.409 C 
ATOM     19  O   UNL A   1     -25.670   0.511  31.668  0.00  0.00    -0.241 OA
ATOM     20  O   UNL A   1     -24.461  -0.857  32.793  0.00  0.00    -0.241 OA
ENDBRANCH  17  18
ENDBRANCH  16  17
ENDBRANCH  14  16
ENDBRANCH   1  14
BRANCH   4  21
ATOM     21  O   UNL A   1     -25.694   1.681  25.489  0.00  0.00    -0.448 OA
BRANCH  21  22
ATOM     22  C   UNL A   1     -26.733   2.244  25.594  0.00  0.00    +0.180 C 
ATOM     23  C   UNL A   1     -27.591   2.500  24.566  0.00  0.00    +0.041 C 
BRANCH  23  24
ATOM     24  C   UNL A   1     -28.233   1.716  23.996  0.00  0.00    +0.003 C 
ATOM     25  C   UNL A   1     -29.056   0.691  24.551  0.00  0.00    -0.000 C 
BRANCH  25  26
ATOM     26  C   UNL A   1     -30.063   0.174  24.050  0.00  0.00    -0.005 C 
ATOM     27  C   UNL A   1     -30.088  -1.198  23.638  0.00  0.00    -0.026 C 
ATOM     28  C   UNL A   1     -28.745  -1.701  23.407  0.00  0.00    +0.031 C 
ENDBRANCH  25  26
ENDBRANCH  23  24
ENDBRANCH  21  22
ENDBRANCH   4  21
TORSDOF 9
ENDMDL
ENDMDL
