REMARK  Name = No_238-gen_results/8p0m/2024-11-27-11-27-31/
REMARK  1 active torsions:
REMARK  status: ('A' for Active; 'I' for Inactive)
REMARK    1  A    between atoms: C_5  and  C_8
REMARK                            x       y       z     vdW  Elec       q    Type
REMARK                         _______ _______ _______ _____ _____    ______ ____
ROOT
ATOM      1  O   UNL A   1     -28.123  -1.335  28.487  0.00  0.00    -0.273 OA
ATOM      2  C   UNL A   1     -27.481  -0.404  28.709  0.00  0.00    +0.242 C 
ATOM      3  C   UNL A   1     -26.380  -0.087  27.939  0.00  0.00    +0.091 C 
ATOM      4  N   UNL A   1     -27.423   0.175  30.055  0.00  0.00    -0.205 NA
ATOM      5  C   UNL A   1     -25.407   0.742  28.286  0.00  0.00    +0.033 C 
ATOM      6  C   UNL A   1     -25.570   1.435  29.575  0.00  0.00    +0.028 C 
ATOM      7  C   UNL A   1     -26.534   1.073  30.423  0.00  0.00    +0.116 C 
ENDROOT
BRANCH   5   8
ATOM      8  C   UNL A   1     -24.309   1.225  27.446  0.00  0.00    -0.022 A 
ATOM      9  C   UNL A   1     -24.402   2.274  26.625  0.00  0.00    -0.004 A 
ATOM     10  C   UNL A   1     -23.259   2.646  25.832  0.00  0.00    -0.000 A 
ATOM     11  C   UNL A   1     -22.034   2.222  26.200  0.00  0.00    -0.000 A 
ATOM     12  C   UNL A   1     -22.944   0.854  27.750  0.00  0.00    -0.004 A 
ATOM     13  C   UNL A   1     -21.859   1.343  27.226  0.00  0.00    -0.000 A 
ENDBRANCH   5   8
TORSDOF 1
