MODEL 2380
MODEL 1
REMARK VINA RESULT:    -6.938      0.000      0.000
REMARK INTER + INTRA:         -14.470
REMARK INTER:                 -11.400
REMARK INTRA:                  -3.070
REMARK UNBOUND:                -3.070
REMARK  Name = No_2380-gen_results/8p0m/2024-11-27-11-27-31/
REMARK  11 active torsions:
REMARK  status: ('A' for Active; 'I' for Inactive)
REMARK    1  A    between atoms: C_2  and  C_7
REMARK    2  A    between atoms: C_4  and  C_17
REMARK    3  A    between atoms: C_6  and  C_13
REMARK    4  A    between atoms: C_17  and  C_18
REMARK    5  A    between atoms: C_18  and  C_19
REMARK    6  A    between atoms: C_18  and  C_20
REMARK    7  A    between atoms: C_19  and  C_22
REMARK    8  A    between atoms: C_21  and  C_23
REMARK    9  A    between atoms: C_23  and  C_24
REMARK   10  A    between atoms: C_24  and  C_25
REMARK   11  A    between atoms: C_28  and  C_29
REMARK                            x       y       z     vdW  Elec       q    Type
REMARK                         _______ _______ _______ _____ _____    ______ ____
ROOT
ATOM      1  C   UNL A   1     -24.183  -0.581  30.252  0.00  0.00    +0.007 A 
ATOM      2  C   UNL A   1     -24.057  -1.158  29.197  0.00  0.00    +0.003 A 
ATOM      3  C   UNL A   1     -23.671  -0.476  28.047  0.00  0.00    -0.004 A 
ATOM      4  C   UNL A   1     -23.454   0.947  28.068  0.00  0.00    -0.022 A 
ATOM      5  C   UNL A   1     -23.644   1.538  29.324  0.00  0.00    +0.002 A 
ATOM      6  C   UNL A   1     -24.026   0.852  30.377  0.00  0.00    +0.080 A 
ENDROOT
BRANCH   2   7
ATOM      7  C   UNL A   1     -24.383  -2.583  29.177  0.00  0.00    +0.039 A 
ATOM      8  C   UNL A   1     -23.856  -3.451  28.933  0.00  0.00    +0.003 A 
ATOM      9  C   UNL A   1     -25.815  -2.727  29.829  0.00  0.00    +0.196 A 
ATOM     10  C   UNL A   1     -26.427  -3.928  29.777  0.00  0.00    +0.042 A 
ATOM     11  C   UNL A   1     -24.347  -4.861  28.914  0.00  0.00    +0.000 A 
ATOM     12  C   UNL A   1     -25.663  -5.074  29.405  0.00  0.00    +0.003 A 
ATOM     13  O   UNL A   1     -26.431  -1.605  30.069  0.00  0.00    -0.287 OA
ENDBRANCH   2   7
BRANCH   6  14
ATOM     14  C   UNL A   1     -24.272   1.661  31.606  0.00  0.00    +0.388 C 
ATOM     15  O   UNL A   1     -24.118   2.755  31.568  0.00  0.00    -0.241 OA
ATOM     16  O   UNL A   1     -24.993   1.055  32.564  0.00  0.00    -0.241 OA
ENDBRANCH   6  14
BRANCH   4  17
ATOM     17  C   UNL A   1     -23.007   1.598  26.872  0.00  0.00    +0.031 C 
BRANCH  17  18
ATOM     18  C   UNL A   1     -24.003   1.723  25.800  0.00  0.00    +0.030 C 
BRANCH  18  19
ATOM     19  C   UNL A   1     -24.461   3.118  25.576  0.00  0.00    -0.030 C 
ATOM     20  C   UNL A   1     -24.612   3.991  26.684  0.00  0.00    -0.031 C 
BRANCH  20  21
ATOM     21  C   UNL A   1     -25.928   4.295  27.224  0.00  0.00    +0.026 C 
BRANCH  21  22
ATOM     22  C   UNL A   1     -26.501   3.528  28.286  0.00  0.00    +0.005 C 
BRANCH  22  23
ATOM     23  C   UNL A   1     -27.400   2.437  27.957  0.00  0.00    +0.000 C 
ATOM     24  C   UNL A   1     -27.277   1.270  28.588  0.00  0.00    +0.000 C 
ATOM     25  C   UNL A   1     -28.543   2.784  27.077  0.00  0.00    +0.000 C 
ENDBRANCH  22  23
ENDBRANCH  21  22
ENDBRANCH  20  21
ENDBRANCH  18  19
BRANCH  18  26
ATOM     26  C   UNL A   1     -24.535   0.726  25.149  0.00  0.00    +0.031 C 
BRANCH  26  27
ATOM     27  C   UNL A   1     -25.939   0.359  25.382  0.00  0.00    -0.026 C 
ATOM     28  C   UNL A   1     -26.943   0.545  24.340  0.00  0.00    -0.005 C 
BRANCH  28  29
ATOM     29  C   UNL A   1     -28.242   0.086  24.531  0.00  0.00    -0.000 C 
ATOM     30  C   UNL A   1     -28.825  -0.775  23.554  0.00  0.00    -0.000 C 
ENDBRANCH  28  29
ENDBRANCH  26  27
ENDBRANCH  18  26
ENDBRANCH  17  18
ENDBRANCH   4  17
TORSDOF 11
ENDMDL
ENDMDL
