MODEL 2381
MODEL 1
REMARK VINA RESULT:    -7.108      0.000      0.000
REMARK INTER + INTRA:          -8.416
REMARK INTER:                  -7.939
REMARK INTRA:                  -0.477
REMARK UNBOUND:                -0.477
REMARK  Name = No_2381-gen_results/8p0m/2024-11-27-11-27-31/
REMARK  2 active torsions:
REMARK  status: ('A' for Active; 'I' for Inactive)
REMARK    1  A    between atoms: C_3  and  C_4
REMARK    2  A    between atoms: C_7  and  C_13
REMARK                            x       y       z     vdW  Elec       q    Type
REMARK                         _______ _______ _______ _____ _____    ______ ____
ROOT
ATOM      1  C   UNL A   1     -30.046  -9.821  31.323  0.00  0.00    +0.000 A 
ATOM      2  C   UNL A   1     -29.865  -9.834  32.361  0.00  0.00    +0.000 A 
ATOM      3  C   UNL A   1     -29.387 -10.837  30.553  0.00  0.00    +0.000 A 
ATOM      4  C   UNL A   1     -28.828 -10.522  33.118  0.00  0.00    +0.007 A 
ATOM      5  C   UNL A   1     -28.153 -11.449  32.409  0.00  0.00    +0.080 A 
ATOM      6  C   UNL A   1     -28.438 -11.669  31.065  0.00  0.00    +0.007 A 
ENDROOT
BRANCH   3   7
ATOM      7  C   UNL A   1     -29.724 -11.049  29.130  0.00  0.00    +0.000 A 
ATOM      8  C   UNL A   1     -30.561 -10.241  28.451  0.00  0.00    +0.000 A 
ATOM      9  C   UNL A   1     -29.028 -12.032  28.331  0.00  0.00    +0.000 A 
ATOM     10  C   UNL A   1     -29.149 -12.086  26.976  0.00  0.00    +0.000 A 
ATOM     11  C   UNL A   1     -30.910 -10.420  27.053  0.00  0.00    +0.000 A 
ATOM     12  C   UNL A   1     -30.128 -11.376  26.364  0.00  0.00    +0.000 A 
ENDBRANCH   3   7
BRANCH   5  13
ATOM     13  C   UNL A   1     -27.096 -12.293  33.067  0.00  0.00    +0.388 C 
ATOM     14  O   UNL A   1     -26.375 -12.973  32.573  0.00  0.00    -0.241 OA
ATOM     15  O   UNL A   1     -27.301 -12.332  34.429  0.00  0.00    -0.241 OA
ENDBRANCH   5  13
TORSDOF 2
ENDMDL
ENDMDL
