MODEL 2382
MODEL 1
REMARK VINA RESULT:    -4.933      0.000      0.000
REMARK INTER + INTRA:          -4.933
REMARK INTER:                  -4.933
REMARK INTRA:                   0.000
REMARK UNBOUND:                 0.000
REMARK  Name = No_2382-gen_results/8p0m/2024-11-27-11-27-31/
REMARK  0 active torsions:
REMARK  status: ('A' for Active; 'I' for Inactive)
REMARK                            x       y       z     vdW  Elec       q    Type
REMARK                         _______ _______ _______ _____ _____    ______ ____
ROOT
ATOM      1  O   UNL A   1     -27.125 -10.689  35.039  0.00  0.00    -0.249 OA
ATOM      2  C   UNL A   1     -27.371 -11.086  33.985  0.00  0.00    +0.341 C 
ATOM      3  N   UNL A   1     -28.221 -10.509  33.232  0.00  0.00    -0.171 NA
ATOM      4  C   UNL A   1     -28.536 -10.738  32.300  0.00  0.00    +0.171 C 
ATOM      5  C   UNL A   1     -28.169 -11.915  31.585  0.00  0.00    +0.060 C 
ATOM      6  N   UNL A   1     -26.772 -12.364  33.575  0.00  0.00    -0.187 NA
ATOM      7  C   UNL A   1     -27.208 -12.721  32.316  0.00  0.00    +0.120 C 
ATOM      8  N   UNL A   1     -29.416 -10.179  31.294  0.00  0.00    -0.199 NA
ATOM      9  C   UNL A   1     -29.534 -10.954  30.257  0.00  0.00    +0.091 C 
ATOM     10  C   UNL A   1     -28.756 -12.045  30.352  0.00  0.00    +0.024 C 
ENDROOT
TORSDOF 0
ENDMDL
ENDMDL
