MODEL 2384
MODEL 1
REMARK VINA RESULT:    -7.228      0.000      0.000
REMARK INTER + INTRA:          -9.657
REMARK INTER:                  -8.918
REMARK INTRA:                  -0.739
REMARK UNBOUND:                -0.739
REMARK  Name = No_2384-gen_results/8p0m/2024-11-27-11-27-31/
REMARK  4 active torsions:
REMARK  status: ('A' for Active; 'I' for Inactive)
REMARK    1  A    between atoms: C_2  and  C_3
REMARK    2  A    between atoms: C_6  and  C_13
REMARK    3  A    between atoms: C_8  and  C_10
REMARK    4  A    between atoms: C_13  and  C_14
REMARK                            x       y       z     vdW  Elec       q    Type
REMARK                         _______ _______ _______ _____ _____    ______ ____
ROOT
ATOM      1  C   UNL A   1     -23.297   1.175  26.911  0.00  0.00    +0.068 A 
ATOM      2  C   UNL A   1     -23.474   0.385  27.851  0.00  0.00    +0.002 A 
ATOM      3  C   UNL A   1     -24.656  -0.411  28.105  0.00  0.00    -0.017 A 
ATOM      4  C   UNL A   1     -25.705  -0.311  27.120  0.00  0.00    +0.003 A 
ATOM      5  C   UNL A   1     -25.548   0.564  26.020  0.00  0.00    +0.080 A 
ATOM      6  C   UNL A   1     -24.416   1.324  25.878  0.00  0.00    +0.012 A 
ENDROOT
BRANCH   1   8
ATOM      7  O   UNL A   1     -21.282   2.007  27.416  0.00  0.00    -0.254 OA
ATOM      8  C   UNL A   1     -22.233   1.838  26.645  0.00  0.00    +0.333 C 
ATOM      9  F   UNL A   1     -22.162   2.537  25.439  0.00  0.00    -0.159 F 
ENDBRANCH   1   8
BRANCH   5  10
ATOM     10  C   UNL A   1     -26.647   0.642  25.070  0.00  0.00    +0.388 C 
ATOM     11  O   UNL A   1     -26.996  -0.437  24.482  0.00  0.00    -0.241 OA
ATOM     12  O   UNL A   1     -27.124   1.798  24.688  0.00  0.00    -0.241 OA
ENDBRANCH   5  10
BRANCH   3  13
ATOM     13  C   UNL A   1     -24.821  -1.307  29.229  0.00  0.00    +0.053 C 
BRANCH  13  14
ATOM     14  C   UNL A   1     -24.951  -2.531  29.186  0.00  0.00    -0.018 A 
ATOM     15  C   UNL A   1     -23.946  -3.470  28.700  0.00  0.00    -0.004 A 
ATOM     16  C   UNL A   1     -24.085  -4.853  28.684  0.00  0.00    -0.000 A 
ATOM     17  C   UNL A   1     -25.294  -5.368  29.203  0.00  0.00    -0.000 A 
ATOM     18  C   UNL A   1     -26.294  -4.573  29.720  0.00  0.00    -0.000 A 
ATOM     19  C   UNL A   1     -26.127  -3.189  29.729  0.00  0.00    -0.004 A 
ENDBRANCH  13  14
ENDBRANCH   3  13
TORSDOF 4
ENDMDL
ENDMDL
