REMARK  Name = outputs/IAG933/test6/raw/output_2386_IAG933_linker_design_.xyz
REMARK  11 active torsions:
REMARK  status: ('A' for Active; 'I' for Inactive)
REMARK    1  A    between atoms: C_1  and  C_2
REMARK    2  A    between atoms: C_1  and  C_8
REMARK    3  A    between atoms: C_1  and  N_36
REMARK    4  A    between atoms: C_13  and  C_29
REMARK    5  A    between atoms: C_14  and  C_15
REMARK    6  A    between atoms: C_21  and  O_22
REMARK    7  A    between atoms: O_22  and  C_23
REMARK    8  A    between atoms: C_23  and  C_24
REMARK    9  A    between atoms: C_33  and  C_44
REMARK   10  A    between atoms: C_35  and  C_40
REMARK   11  A    between atoms: C_35  and  C_44
REMARK                            x       y       z     vdW  Elec       q    Type
REMARK                         _______ _______ _______ _____ _____    ______ ____
ROOT
ATOM      1  C   UNL A   1     -24.785   1.198  27.509  0.00  0.00    +0.033 C 
ATOM      2  C   UNL A   1     -23.024   0.172  29.177  0.00  0.00    +0.117 C 
ATOM      3  C   UNL A   1     -21.049   1.261  27.933  0.00  0.00    +0.031 C 
ATOM      4  N   UNL A   1     -24.404  -0.044  29.290  0.00  0.00    -0.304 N 
ATOM      5  C   UNL A   1     -23.407   1.495  27.242  0.00  0.00    +0.187 C 
ATOM      6  C   UNL A   1     -25.302   0.644  28.593  0.00  0.00    +0.025 C 
ATOM      7  O   UNL A   1     -22.959   2.303  26.283  0.00  0.00    -0.287 OA
ATOM      8  C   UNL A   1     -22.539   0.960  28.208  0.00  0.00    +0.014 C 
ENDROOT
BRANCH   1   9
ATOM      9  C   UNL A   1     -25.688   1.614  26.461  0.00  0.00    +0.096 C 
ATOM     10  C   UNL A   1     -26.250   2.920  26.395  0.00  0.00    +0.059 C 
ATOM     11  C   UNL A   1     -27.438   3.091  25.645  0.00  0.00    +0.102 C 
ATOM     12  N   UNL A   1     -28.075   2.089  25.003  0.00  0.00    -0.212 NA
ATOM     13  C   UNL A   1     -27.543   0.849  25.079  0.00  0.00    +0.234 C 
ATOM     14  C   UNL A   1     -26.354   0.576  25.777  0.00  0.00    +0.244 C 
ATOM     15  F   UNL A   1     -25.860  -0.681  25.795  0.00  0.00    -0.227 F 
BRANCH  10  16
ATOM     16  C   UNL A   1     -25.642   4.093  27.123  0.00  0.00    +0.263 C 
ATOM     17  N   UNL A   1     -25.614   5.252  26.449  0.00  0.00    -0.200 NA
ATOM     18  C   UNL A   1     -25.026   6.479  26.963  0.00  0.00    +0.139 C 
ATOM     19  O   UNL A   1     -25.143   3.966  28.243  0.00  0.00    -0.269 OA
ENDBRANCH  10  16
BRANCH  13  20
ATOM     20  O   UNL A   1     -28.193  -0.208  24.477  0.00  0.00    -0.459 OA
BRANCH  20  21
ATOM     21  C   UNL A   1     -29.460   0.005  23.866  0.00  0.00    +0.242 C 
BRANCH  21  22
ATOM     22  C   UNL A   1     -30.065  -1.377  23.573  0.00  0.00    +0.229 C 
ATOM     23  O   UNL A   1     -30.729  -1.878  24.721  0.00  0.00    -0.216 OA
ENDBRANCH  21  22
ENDBRANCH  20  21
ENDBRANCH  13  20
ENDBRANCH   1   9
BRANCH   4  24
ATOM     24  C   UNL A   1     -24.855  -1.012  30.143  0.00  0.00    +0.111 C 
BRANCH  24  25
ATOM     25  C   UNL A   1     -24.973  -2.505  29.788  0.00  0.00    -0.003 C 
ATOM     26  C   UNL A   1     -23.906  -3.173  29.146  0.00  0.00    -0.003 C 
ATOM     27  C   UNL A   1     -23.989  -4.549  28.853  0.00  0.00    -0.000 C 
ATOM     28  C   UNL A   1     -25.137  -5.280  29.205  0.00  0.00    -0.000 C 
ATOM     29  C   UNL A   1     -26.232  -4.611  29.784  0.00  0.00    -0.000 C 
ATOM     30  C   UNL A   1     -26.155  -3.232  30.065  0.00  0.00    -0.003 C 
ENDBRANCH  24  25
BRANCH  24  31
ATOM     31  C   UNL A   1     -25.387  -0.679  31.571  0.00  0.00    +0.095 C 
ATOM     32  C   UNL A   1     -25.189   0.773  32.028  0.00  0.00    +0.021 C 
ATOM     33  C   UNL A   1     -25.336   0.684  33.544  0.00  0.00    +0.020 C 
ATOM     34  C   UNL A   1     -24.829  -0.715  33.905  0.00  0.00    +0.089 C 
ATOM     35  N   UNL A   1     -24.758  -1.481  32.646  0.00  0.00    -0.217 NA
ENDBRANCH  24  31
ENDBRANCH   4  24
BRANCH   6  36
ATOM     36  C   UNL A   1     -26.778   0.931  29.088  0.00  0.00    +0.045 C 
BRANCH  36  37
ATOM     37  C   UNL A   1     -27.759   2.212  28.848  0.00  0.00    +0.032 C 
BRANCH  37  40
ATOM     38  C   UNL A   1     -30.190   3.073  28.218  0.00  0.00    +0.014 C 
ATOM     39  C   UNL A   1     -29.606   0.760  28.189  0.00  0.00    -0.004 C 
ATOM     40  C   UNL A   1     -29.225   2.061  28.446  0.00  0.00    -0.021 C 
ATOM     41  C   UNL A   1     -31.451   2.778  27.667  0.00  0.00    +0.089 C 
ATOM     42  C   UNL A   1     -31.722   1.467  27.344  0.00  0.00    +0.018 C 
ATOM     43  C   UNL A   1     -30.798   0.441  27.640  0.00  0.00    +0.001 C 
ATOM     44  N   UNL A   1     -32.372   3.804  27.494  0.00  0.00    -0.128 NA
ENDBRANCH  37  40
ENDBRANCH  36  37
ENDBRANCH   6  36
TORSDOF 11
