MODEL 2386
MODEL 1
REMARK VINA RESULT:    -6.225      0.000      0.000
REMARK INTER + INTRA:          -6.730
REMARK INTER:                  -6.589
REMARK INTRA:                  -0.141
REMARK UNBOUND:                -0.141
REMARK  Name = No_2386-gen_results/8p0m/2024-11-27-11-27-31/
REMARK  1 active torsions:
REMARK  status: ('A' for Active; 'I' for Inactive)
REMARK    1  A    between atoms: C_3  and  C_8
REMARK                            x       y       z     vdW  Elec       q    Type
REMARK                         _______ _______ _______ _____ _____    ______ ____
ROOT
ATOM      1  O   UNL A   1     -25.507  -0.174  27.326  0.00  0.00    -0.273 OA
ATOM      2  C   UNL A   1     -24.429  -0.429  27.875  0.00  0.00    +0.245 C 
ATOM      3  C   UNL A   1     -23.998  -1.118  28.523  0.00  0.00    +0.100 C 
ATOM      4  N   UNL A   1     -23.448   0.844  27.709  0.00  0.00    -0.205 NA
ATOM      5  C   UNL A   1     -22.711  -1.244  29.281  0.00  0.00    +0.015 C 
ATOM      6  C   UNL A   1     -21.845  -0.134  28.985  0.00  0.00    +0.024 C 
ATOM      7  C   UNL A   1     -22.290   0.885  28.247  0.00  0.00    +0.115 C 
ENDROOT
BRANCH   3   8
ATOM      8  C   UNL A   1     -24.800  -2.425  28.882  0.00  0.00    -0.014 A 
ATOM      9  C   UNL A   1     -25.737  -2.464  29.443  0.00  0.00    -0.004 A 
ATOM     10  C   UNL A   1     -24.052  -3.639  28.397  0.00  0.00    -0.004 A 
ATOM     11  C   UNL A   1     -24.393  -4.896  28.796  0.00  0.00    -0.000 A 
ATOM     12  C   UNL A   1     -26.359  -3.794  29.848  0.00  0.00    -0.000 A 
ATOM     13  C   UNL A   1     -25.660  -4.994  29.486  0.00  0.00    -0.000 A 
ENDBRANCH   3   8
TORSDOF 1
ENDMDL
ENDMDL
