REMARK  Name = No_2387-gen_results/8p0m/2024-11-27-11-27-31/
REMARK  3 active torsions:
REMARK  status: ('A' for Active; 'I' for Inactive)
REMARK    1  A    between atoms: C_3  and  C_4
REMARK    2  A    between atoms: N_16  and  C_17
REMARK    3  A    between atoms: C_18  and  C_19
REMARK                            x       y       z     vdW  Elec       q    Type
REMARK                         _______ _______ _______ _____ _____    ______ ____
ROOT
ATOM      1  C   UNL A   1     -24.546   0.349  28.823  0.00  0.00    +0.017 A 
ATOM      2  C   UNL A   1     -23.241   0.022  29.332  0.00  0.00    +0.001 A 
ATOM      3  C   UNL A   1     -22.159   0.787  28.951  0.00  0.00    +0.003 A 
ATOM      4  C   UNL A   1     -22.131   1.744  27.982  0.00  0.00    +0.038 A 
ATOM      5  C   UNL A   1     -24.517   1.371  27.793  0.00  0.00    +0.089 A 
ATOM      6  C   UNL A   1     -23.338   2.035  27.427  0.00  0.00    +0.154 A 
ATOM      7  O   UNL A   1     -23.466   2.982  26.470  0.00  0.00    -0.454 OA
ATOM      8  C   UNL A   1     -24.753   2.961  25.867  0.00  0.00    +0.310 C 
ATOM      9  N   UNL A   1     -25.545   1.736  27.027  0.00  0.00    -0.246 N 
ENDROOT
BRANCH   1  12
ATOM     10  C   UNL A   1     -28.016  -0.814  28.878  0.00  0.00    +0.011 A 
ATOM     11  C   UNL A   1     -27.064  -0.119  28.608  0.00  0.00    +0.001 A 
ATOM     12  C   UNL A   1     -25.792  -0.430  29.076  0.00  0.00    +0.001 A 
ATOM     13  C   UNL A   1     -27.882  -1.899  29.863  0.00  0.00    +0.058 A 
ATOM     14  C   UNL A   1     -26.653  -2.314  30.314  0.00  0.00    +0.011 A 
ATOM     15  C   UNL A   1     -25.515  -1.561  29.979  0.00  0.00    +0.001 A 
ATOM     16 CL   UNL A   1     -29.237  -2.846  30.343  0.00  0.00    -0.082 Cl
ENDBRANCH   1  12
BRANCH   9  17
ATOM     17  C   UNL A   1     -26.575   1.779  26.326  0.00  0.00    +0.068 C 
ATOM     18  C   UNL A   1     -27.190   1.769  25.490  0.00  0.00    +0.016 C 
BRANCH  18  19
ATOM     19  C   UNL A   1     -28.555   1.385  25.137  0.00  0.00    +0.001 A 
ATOM     20  C   UNL A   1     -29.315   1.103  26.229  0.00  0.00    +0.000 A 
ATOM     21  C   UNL A   1     -30.614   0.640  26.026  0.00  0.00    +0.000 A 
ATOM     22  C   UNL A   1     -31.022   0.380  24.741  0.00  0.00    +0.000 A 
ATOM     23  C   UNL A   1     -30.247   0.607  23.623  0.00  0.00    +0.000 A 
ATOM     24  C   UNL A   1     -28.985   1.111  23.855  0.00  0.00    +0.000 A 
ENDBRANCH  18  19
ENDBRANCH   9  17
TORSDOF 3
