MODEL 2388
MODEL 1
REMARK VINA RESULT:    -6.082      0.000      0.000
REMARK INTER + INTRA:          -6.507
REMARK INTER:                  -6.437
REMARK INTRA:                  -0.070
REMARK UNBOUND:                -0.070
REMARK  Name = No_2388-gen_results/8p0m/2024-11-27-11-27-31/
REMARK  1 active torsions:
REMARK  status: ('A' for Active; 'I' for Inactive)
REMARK    1  A    between atoms: C_5  and  C_9
REMARK                            x       y       z     vdW  Elec       q    Type
REMARK                         _______ _______ _______ _____ _____    ______ ____
ROOT
ATOM      1  C   UNL A   1     -26.221  -3.198  30.068  0.00  0.00    +0.101 A 
ATOM      2  C   UNL A   1     -25.467  -2.362  29.627  0.00  0.00    +0.019 A 
ATOM      3  C   UNL A   1     -24.094  -2.504  29.519  0.00  0.00    +0.005 A 
ATOM      4  C   UNL A   1     -23.163  -1.497  29.074  0.00  0.00    +0.007 A 
ATOM      5  C   UNL A   1     -23.668  -0.229  28.697  0.00  0.00    +0.080 A 
ATOM      6  C   UNL A   1     -25.069  -0.018  28.781  0.00  0.00    +0.007 A 
ATOM      7  C   UNL A   1     -25.862  -1.022  29.241  0.00  0.00    +0.002 A 
ATOM      8  N   UNL A   1     -26.204  -4.397  29.469  0.00  0.00    -0.216 NA
ATOM      9  C   UNL A   1     -25.209  -4.866  29.016  0.00  0.00    +0.222 A 
ATOM     10  F   UNL A   1     -25.076  -6.049  28.600  0.00  0.00    -0.183 F 
ATOM     11  C   UNL A   1     -23.877  -4.207  28.903  0.00  0.00    +0.050 A 
ENDROOT
BRANCH   5  12
ATOM     12  C   UNL A   1     -22.809   0.834  28.229  0.00  0.00    +0.388 C 
ATOM     13  O   UNL A   1     -23.175   2.043  28.305  0.00  0.00    -0.241 OA
ATOM     14  O   UNL A   1     -21.545   0.580  28.048  0.00  0.00    -0.241 OA
ENDBRANCH   5  12
TORSDOF 1
ENDMDL
ENDMDL
