REMARK  Name = No_2388-gen_results/8p0m/2024-11-27-11-27-31/
REMARK  1 active torsions:
REMARK  status: ('A' for Active; 'I' for Inactive)
REMARK    1  A    between atoms: C_5  and  C_9
REMARK                            x       y       z     vdW  Elec       q    Type
REMARK                         _______ _______ _______ _____ _____    ______ ____
ROOT
ATOM      1  C   UNL A   1     -28.016  -0.814  28.878  0.00  0.00    +0.101 A 
ATOM      2  C   UNL A   1     -27.064  -0.119  28.608  0.00  0.00    +0.019 A 
ATOM      3  C   UNL A   1     -26.972   0.714  27.506  0.00  0.00    +0.005 A 
ATOM      4  C   UNL A   1     -25.821   1.491  27.116  0.00  0.00    +0.007 A 
ATOM      5  C   UNL A   1     -24.656   1.424  27.918  0.00  0.00    +0.080 A 
ATOM      6  C   UNL A   1     -24.685   0.590  29.066  0.00  0.00    +0.007 A 
ATOM      7  C   UNL A   1     -25.810  -0.127  29.334  0.00  0.00    +0.002 A 
ATOM      8  N   UNL A   1     -29.194  -0.190  29.016  0.00  0.00    -0.216 NA
ATOM      9  C   UNL A   1     -29.488   0.763  28.368  0.00  0.00    +0.222 A 
ATOM     10  F   UNL A   1     -30.631   1.293  28.314  0.00  0.00    -0.183 F 
ATOM     11  C   UNL A   1     -28.613   1.505  27.416  0.00  0.00    +0.050 A 
ENDROOT
BRANCH   5  12
ATOM     12  C   UNL A   1     -23.463   2.176  27.608  0.00  0.00    +0.388 C 
ATOM     13  O   UNL A   1     -22.353   1.877  28.137  0.00  0.00    -0.241 OA
ATOM     14  O   UNL A   1     -23.460   2.930  26.546  0.00  0.00    -0.241 OA
ENDBRANCH   5  12
TORSDOF 1
