MODEL 238
MODEL 1
REMARK VINA RESULT:    -6.199      0.000      0.000
REMARK INTER + INTRA:          -6.795
REMARK INTER:                  -6.562
REMARK INTRA:                  -0.233
REMARK UNBOUND:                -0.233
REMARK  Name = No_238-gen_results/8p0m/2024-11-27-11-27-31/
REMARK  1 active torsions:
REMARK  status: ('A' for Active; 'I' for Inactive)
REMARK    1  A    between atoms: C_5  and  C_8
REMARK                            x       y       z     vdW  Elec       q    Type
REMARK                         _______ _______ _______ _____ _____    ______ ____
ROOT
ATOM      1  O   UNL A   1     -27.820  -3.605  30.144  0.00  0.00    -0.273 OA
ATOM      2  C   UNL A   1     -26.684  -3.641  29.950  0.00  0.00    +0.242 C 
ATOM      3  C   UNL A   1     -25.976  -2.508  29.606  0.00  0.00    +0.091 C 
ATOM      4  N   UNL A   1     -26.025  -4.879  29.523  0.00  0.00    -0.205 NA
ATOM      5  C   UNL A   1     -24.771  -2.487  29.055  0.00  0.00    +0.033 C 
ATOM      6  C   UNL A   1     -24.115  -3.793  28.874  0.00  0.00    +0.028 C 
ATOM      7  C   UNL A   1     -24.795  -4.926  29.057  0.00  0.00    +0.116 C 
ENDROOT
BRANCH   5   8
ATOM      8  C   UNL A   1     -23.922  -1.318  28.818  0.00  0.00    -0.022 A 
ATOM      9  C   UNL A   1     -22.634  -1.247  29.164  0.00  0.00    -0.004 A 
ATOM     10  C   UNL A   1     -21.903  -0.035  28.896  0.00  0.00    -0.000 A 
ATOM     11  C   UNL A   1     -22.372   0.828  27.974  0.00  0.00    -0.000 A 
ATOM     12  C   UNL A   1     -24.308  -0.326  27.838  0.00  0.00    -0.004 A 
ATOM     13  C   UNL A   1     -23.585   0.653  27.381  0.00  0.00    -0.000 A 
ENDBRANCH   5   8
TORSDOF 1
ENDMDL
ENDMDL
