REMARK  Name = outputs/IAG933/test6/raw/output_2390_IAG933_linker_design_.xyz
REMARK  14 active torsions:
REMARK  status: ('A' for Active; 'I' for Inactive)
REMARK    1  A    between atoms: C_1  and  C_2
REMARK    2  A    between atoms: C_1  and  C_8
REMARK    3  A    between atoms: C_9  and  C_31
REMARK    4  A    between atoms: C_13  and  N_41
REMARK    5  A    between atoms: C_14  and  C_15
REMARK    6  A    between atoms: C_21  and  O_22
REMARK    7  A    between atoms: O_22  and  C_23
REMARK    8  A    between atoms: C_23  and  C_24
REMARK    9  A    between atoms: C_28  and  C_31
REMARK   10  A    between atoms: C_28  and  C_39
REMARK   11  A    between atoms: C_29  and  C_34
REMARK   12  A    between atoms: C_29  and  O_36
REMARK   13  A    between atoms: C_30  and  N_41
REMARK   14  A    between atoms: C_31  and  O_36
REMARK                            x       y       z     vdW  Elec       q    Type
REMARK                         _______ _______ _______ _____ _____    ______ ____
ROOT
ATOM      1  C   UNL A   1     -23.566   1.490  26.930  0.00  0.00    +0.110 C 
ATOM      2  C   UNL A   1     -22.704   1.349  27.976  0.00  0.00    +0.063 C 
ATOM      3  C   UNL A   1     -21.468   1.664  27.442  0.00  0.00    +0.179 C 
ATOM      4  C   UNL A   1     -22.995   1.871  25.738  0.00  0.00    +0.196 C 
ATOM      5  O   UNL A   1     -21.576   1.995  26.019  0.00  0.00    -0.446 OA
ENDROOT
BRANCH   2   6
ATOM      6  C   UNL A   1     -23.160   1.032  29.431  0.00  0.00    +0.173 C 
BRANCH   6   7
ATOM      7  O   UNL A   1     -24.289   1.837  29.878  0.00  0.00    -0.348 OA
BRANCH   7   8
ATOM      8  C   UNL A   1     -24.594   2.036  31.353  0.00  0.00    +0.156 C 
BRANCH   8  10
ATOM      9  C   UNL A   1     -25.387  -0.679  31.571  0.00  0.00    +0.080 C 
ATOM     10  C   UNL A   1     -25.189   0.773  32.028  0.00  0.00    +0.048 C 
ATOM     11  C   UNL A   1     -25.336   0.684  33.544  0.00  0.00    +0.023 C 
ATOM     12  C   UNL A   1     -24.829  -0.715  33.905  0.00  0.00    +0.089 C 
ATOM     13  N   UNL A   1     -24.758  -1.481  32.646  0.00  0.00    -0.219 NA
BRANCH   9  14
ATOM     14  C   UNL A   1     -24.855  -1.012  30.143  0.00  0.00    +0.044 C 
BRANCH  14  15
ATOM     15  C   UNL A   1     -24.973  -2.505  29.788  0.00  0.00    -0.021 C 
ATOM     16  C   UNL A   1     -23.906  -3.173  29.146  0.00  0.00    -0.004 C 
ATOM     17  C   UNL A   1     -23.989  -4.549  28.853  0.00  0.00    -0.000 C 
ATOM     18  C   UNL A   1     -25.137  -5.280  29.205  0.00  0.00    -0.000 C 
ATOM     19  C   UNL A   1     -26.232  -4.611  29.784  0.00  0.00    -0.000 C 
ATOM     20  C   UNL A   1     -26.155  -3.232  30.065  0.00  0.00    -0.004 C 
ENDBRANCH  14  15
ENDBRANCH   9  14
ENDBRANCH   8  10
BRANCH   8  21
ATOM     21  C   UNL A   1     -25.234   3.474  31.588  0.00  0.00    +0.257 C 
ATOM     22  O   UNL A   1     -26.597   3.297  31.967  0.00  0.00    -0.210 OA
BRANCH  21  25
ATOM     23  N   UNL A   1     -25.377   5.802  32.422  0.00  0.00    -0.086 NA
ATOM     24  O   UNL A   1     -24.206   4.260  33.569  0.00  0.00    -0.269 OA
ATOM     25  C   UNL A   1     -24.922   4.488  32.602  0.00  0.00    +0.294 C 
ENDBRANCH  21  25
ENDBRANCH   8  21
ENDBRANCH   7   8
ENDBRANCH   6   7
ENDBRANCH   2   6
BRANCH   1  26
ATOM     26  N   UNL A   1     -24.572   1.349  27.117  0.00  0.00    -0.207 NA
BRANCH  26  27
ATOM     27  C   UNL A   1     -25.688   1.614  26.461  0.00  0.00    +0.108 C 
ATOM     28  C   UNL A   1     -26.250   2.920  26.395  0.00  0.00    +0.092 C 
ATOM     29  C   UNL A   1     -27.438   3.091  25.645  0.00  0.00    +0.108 C 
ATOM     30  N   UNL A   1     -28.075   2.089  25.003  0.00  0.00    -0.208 NA
ATOM     31  C   UNL A   1     -27.543   0.849  25.079  0.00  0.00    +0.255 C 
ATOM     32  C   UNL A   1     -26.354   0.576  25.777  0.00  0.00    +0.208 C 
ATOM     33  F   UNL A   1     -25.860  -0.681  25.795  0.00  0.00    -0.198 F 
BRANCH  28  34
ATOM     34  C   UNL A   1     -25.642   4.093  27.123  0.00  0.00    +0.268 C 
ATOM     35  N   UNL A   1     -25.614   5.252  26.449  0.00  0.00    -0.200 NA
ATOM     36  C   UNL A   1     -25.026   6.479  26.963  0.00  0.00    +0.139 C 
ATOM     37  O   UNL A   1     -25.143   3.966  28.243  0.00  0.00    -0.268 OA
ENDBRANCH  28  34
BRANCH  31  38
ATOM     38  O   UNL A   1     -28.193  -0.208  24.477  0.00  0.00    -0.456 OA
BRANCH  38  39
ATOM     39  C   UNL A   1     -29.460   0.005  23.866  0.00  0.00    +0.243 C 
BRANCH  39  40
ATOM     40  C   UNL A   1     -30.065  -1.377  23.573  0.00  0.00    +0.229 C 
ATOM     41  O   UNL A   1     -30.729  -1.878  24.721  0.00  0.00    -0.216 OA
ENDBRANCH  39  40
ENDBRANCH  38  39
ENDBRANCH  31  38
ENDBRANCH  26  27
ENDBRANCH   1  26
TORSDOF 14
