MODEL 2390
MODEL 1
REMARK VINA RESULT:    -5.059      0.000      0.000
REMARK INTER + INTRA:          -5.059
REMARK INTER:                  -5.059
REMARK INTRA:                   0.000
REMARK UNBOUND:                 0.000
REMARK  Name = No_2390-gen_results/8p0m/2024-11-27-11-27-31/
REMARK  0 active torsions:
REMARK  status: ('A' for Active; 'I' for Inactive)
REMARK                            x       y       z     vdW  Elec       q    Type
REMARK                         _______ _______ _______ _____ _____    ______ ____
ROOT
ATOM      1  C   UNL A   1      -9.152  -9.154  20.150  0.00  0.00    +0.053 A 
ATOM      2  C   UNL A   1      -8.180  -9.861  20.015  0.00  0.00    +0.061 A 
ATOM      3  C   UNL A   1      -8.044 -10.690  18.907  0.00  0.00    +0.012 A 
ATOM      4  C   UNL A   1      -9.080 -10.769  17.908  0.00  0.00    +0.004 A 
ATOM      5  C   UNL A   1     -10.179  -9.936  18.156  0.00  0.00    +0.042 A 
ATOM      6  C   UNL A   1     -10.266  -9.182  19.228  0.00  0.00    +0.197 A 
ATOM      7 CL   UNL A   1      -6.879  -9.932  21.126  0.00  0.00    -0.082 Cl
ATOM      8  O   UNL A   1     -11.392  -8.424  19.404  0.00  0.00    -0.286 OA
ENDROOT
TORSDOF 0
ENDMDL
ENDMDL
