REMARK  Name = outputs/IAG933/test6/raw/output_2391_IAG933_linker_design_.xyz
REMARK  9 active torsions:
REMARK  status: ('A' for Active; 'I' for Inactive)
REMARK    1  A    between atoms: C_1  and  C_2
REMARK    2  A    between atoms: C_1  and  C_8
REMARK    3  A    between atoms: C_1  and  C_29
REMARK    4  A    between atoms: C_13  and  C_37
REMARK    5  A    between atoms: C_14  and  C_15
REMARK    6  A    between atoms: C_21  and  O_22
REMARK    7  A    between atoms: O_22  and  C_23
REMARK    8  A    between atoms: C_23  and  C_24
REMARK    9  A    between atoms: C_33  and  C_36
REMARK                            x       y       z     vdW  Elec       q    Type
REMARK                         _______ _______ _______ _____ _____    ______ ____
ROOT
ATOM      1  C   UNL A   1     -22.627   1.692  26.744  0.00  0.00    +0.219 C 
ATOM      2  C   UNL A   1     -24.359   0.008  29.329  0.00  0.00    -0.025 C 
ATOM      3  O   UNL A   1     -22.849   2.156  25.531  0.00  0.00    -0.284 OA
ATOM      4  C   UNL A   1     -23.201   0.502  28.803  0.00  0.00    +0.066 C 
ATOM      5  C   UNL A   1     -25.530   0.634  28.569  0.00  0.00    +0.069 C 
ATOM      6  C   UNL A   1     -21.838   0.426  29.133  0.00  0.00    -0.015 C 
ATOM      7  C   UNL A   1     -24.890   1.187  27.674  0.00  0.00    -0.009 C 
ATOM      8  C   UNL A   1     -20.891   0.978  28.281  0.00  0.00    +0.029 C 
ATOM      9  C   UNL A   1     -21.329   1.638  27.075  0.00  0.00    +0.178 C 
ATOM     10  C   UNL A   1     -23.588   1.224  27.635  0.00  0.00    +0.023 C 
ATOM     11  F   UNL A   1     -20.560   2.269  26.273  0.00  0.00    -0.201 F 
ENDROOT
BRANCH   7  12
ATOM     12  C   UNL A   1     -25.688   1.614  26.461  0.00  0.00    +0.092 C 
ATOM     13  C   UNL A   1     -26.250   2.920  26.395  0.00  0.00    +0.059 C 
ATOM     14  C   UNL A   1     -27.438   3.091  25.645  0.00  0.00    +0.102 C 
ATOM     15  N   UNL A   1     -28.075   2.089  25.003  0.00  0.00    -0.212 NA
ATOM     16  C   UNL A   1     -27.543   0.849  25.079  0.00  0.00    +0.234 C 
ATOM     17  C   UNL A   1     -26.354   0.576  25.777  0.00  0.00    +0.244 C 
ATOM     18  F   UNL A   1     -25.860  -0.681  25.795  0.00  0.00    -0.227 F 
BRANCH  13  19
ATOM     19  C   UNL A   1     -25.642   4.093  27.123  0.00  0.00    +0.263 C 
ATOM     20  N   UNL A   1     -25.614   5.252  26.449  0.00  0.00    -0.200 NA
ATOM     21  C   UNL A   1     -25.026   6.479  26.963  0.00  0.00    +0.139 C 
ATOM     22  O   UNL A   1     -25.143   3.966  28.243  0.00  0.00    -0.269 OA
ENDBRANCH  13  19
BRANCH  16  23
ATOM     23  O   UNL A   1     -28.193  -0.208  24.477  0.00  0.00    -0.459 OA
BRANCH  23  24
ATOM     24  C   UNL A   1     -29.460   0.005  23.866  0.00  0.00    +0.242 C 
BRANCH  24  25
ATOM     25  C   UNL A   1     -30.065  -1.377  23.573  0.00  0.00    +0.229 C 
ATOM     26  O   UNL A   1     -30.729  -1.878  24.721  0.00  0.00    -0.216 OA
ENDBRANCH  24  25
ENDBRANCH  23  24
ENDBRANCH  16  23
ENDBRANCH   7  12
BRANCH   5  29
ATOM     27  O   UNL A   1     -27.755   1.587  28.866  0.00  0.00    -0.241 OA
ATOM     28  O   UNL A   1     -27.703  -0.565  28.450  0.00  0.00    -0.241 OA
ATOM     29  C   UNL A   1     -27.072   0.569  28.730  0.00  0.00    +0.387 C 
ENDBRANCH   5  29
BRANCH   2  30
ATOM     30  C   UNL A   1     -24.855  -1.012  30.143  0.00  0.00    +0.057 C 
BRANCH  30  31
ATOM     31  C   UNL A   1     -24.973  -2.505  29.788  0.00  0.00    -0.017 C 
ATOM     32  C   UNL A   1     -23.906  -3.173  29.146  0.00  0.00    -0.004 C 
ATOM     33  C   UNL A   1     -23.989  -4.549  28.853  0.00  0.00    -0.000 C 
ATOM     34  C   UNL A   1     -25.137  -5.280  29.205  0.00  0.00    -0.000 C 
ATOM     35  C   UNL A   1     -26.232  -4.611  29.784  0.00  0.00    -0.000 C 
ATOM     36  C   UNL A   1     -26.155  -3.232  30.065  0.00  0.00    -0.004 C 
ENDBRANCH  30  31
BRANCH  30  37
ATOM     37  C   UNL A   1     -25.387  -0.679  31.571  0.00  0.00    +0.081 C 
ATOM     38  C   UNL A   1     -25.189   0.773  32.028  0.00  0.00    +0.019 C 
ATOM     39  C   UNL A   1     -25.336   0.684  33.544  0.00  0.00    +0.020 C 
ATOM     40  C   UNL A   1     -24.829  -0.715  33.905  0.00  0.00    +0.089 C 
ATOM     41  N   UNL A   1     -24.758  -1.481  32.646  0.00  0.00    -0.219 NA
ENDBRANCH  30  37
ENDBRANCH   2  30
TORSDOF 9
