REMARK  Name = outputs/IAG933/test6/raw/output_2392_IAG933_linker_design_.xyz
REMARK  19 active torsions:
REMARK  status: ('A' for Active; 'I' for Inactive)
REMARK    1  A    between atoms: C_1  and  C_2
REMARK    2  A    between atoms: C_1  and  C_8
REMARK    3  A    between atoms: C_1  and  C_38
REMARK    4  A    between atoms: C_13  and  C_29
REMARK    5  A    between atoms: C_14  and  C_15
REMARK    6  A    between atoms: C_21  and  O_22
REMARK    7  A    between atoms: O_22  and  C_23
REMARK    8  A    between atoms: C_23  and  C_24
REMARK    9  A    between atoms: C_29  and  C_33
REMARK   10  A    between atoms: C_30  and  C_40
REMARK   11  A    between atoms: C_30  and  C_42
REMARK   12  A    between atoms: O_31  and  C_34
REMARK   13  A    between atoms: O_31  and  C_42
REMARK   14  A    between atoms: C_33  and  C_36
REMARK   15  A    between atoms: C_33  and  N_43
REMARK   16  A    between atoms: C_34  and  C_38
REMARK   17  A    between atoms: C_36  and  C_39
REMARK   18  A    between atoms: C_38  and  N_43
REMARK   19  A    between atoms: C_40  and  C_41
REMARK                            x       y       z     vdW  Elec       q    Type
REMARK                         _______ _______ _______ _____ _____    ______ ____
ROOT
ATOM      1  C   UNL A   1     -25.684  -0.127  29.182  0.00  0.00    +0.177 C 
ENDROOT
BRANCH   1   2
ATOM      2  C   UNL A   1     -27.244   0.155  29.494  0.00  0.00    +0.333 C 
ATOM      3  O   UNL A   1     -27.997  -0.648  29.016  0.00  0.00    -0.248 OA
BRANCH   2   4
ATOM      4  O   UNL A   1     -27.824   1.201  30.294  0.00  0.00    -0.448 OA
BRANCH   4   5
ATOM      5  C   UNL A   1     -28.845   1.930  29.591  0.00  0.00    +0.209 C 
BRANCH   5   6
ATOM      6  C   UNL A   1     -28.461   3.369  29.030  0.00  0.00    +0.057 C 
BRANCH   6   7
ATOM      7  C   UNL A   1     -28.883   4.394  30.066  0.00  0.00    +0.092 C 
BRANCH   7  10
ATOM      8  N   UNL A   1     -27.506   6.378  30.297  0.00  0.00    -0.088 NA
ATOM      9  O   UNL A   1     -26.938   4.431  31.379  0.00  0.00    -0.272 OA
ATOM     10  C   UNL A   1     -27.685   5.115  30.661  0.00  0.00    +0.261 C 
ENDBRANCH   7  10
ENDBRANCH   6   7
ENDBRANCH   5   6
ENDBRANCH   4   5
ENDBRANCH   2   4
ENDBRANCH   1   2
BRANCH   1  11
ATOM     11  N   UNL A   1     -24.976   1.175  28.983  0.00  0.00    -0.210 NA
BRANCH  11  12
ATOM     12  C   UNL A   1     -23.726   1.274  28.188  0.00  0.00    +0.074 C 
BRANCH  12  13
ATOM     13  C   UNL A   1     -22.535   0.414  28.677  0.00  0.00    +0.017 C 
BRANCH  13  15
ATOM     14  C   UNL A   1     -21.474   1.745  26.640  0.00  0.00    +0.000 C 
ATOM     15  C   UNL A   1     -21.333   1.103  28.035  0.00  0.00    +0.001 C 
ENDBRANCH  13  15
ENDBRANCH  12  13
BRANCH  12  16
ATOM     16  C   UNL A   1     -24.172   1.463  26.697  0.00  0.00    +0.025 C 
BRANCH  16  17
ATOM     17  C   UNL A   1     -25.688   1.614  26.461  0.00  0.00    +0.071 C 
ATOM     18  C   UNL A   1     -26.250   2.920  26.395  0.00  0.00    +0.055 C 
ATOM     19  C   UNL A   1     -27.438   3.091  25.645  0.00  0.00    +0.102 C 
ATOM     20  N   UNL A   1     -28.075   2.089  25.003  0.00  0.00    -0.212 NA
ATOM     21  C   UNL A   1     -27.543   0.849  25.079  0.00  0.00    +0.234 C 
ATOM     22  C   UNL A   1     -26.354   0.576  25.777  0.00  0.00    +0.240 C 
ATOM     23  F   UNL A   1     -25.860  -0.681  25.795  0.00  0.00    -0.227 F 
BRANCH  18  24
ATOM     24  C   UNL A   1     -25.642   4.093  27.123  0.00  0.00    +0.262 C 
ATOM     25  N   UNL A   1     -25.614   5.252  26.449  0.00  0.00    -0.200 NA
ATOM     26  C   UNL A   1     -25.026   6.479  26.963  0.00  0.00    +0.139 C 
ATOM     27  O   UNL A   1     -25.143   3.966  28.243  0.00  0.00    -0.269 OA
ENDBRANCH  18  24
BRANCH  21  28
ATOM     28  O   UNL A   1     -28.193  -0.208  24.477  0.00  0.00    -0.459 OA
BRANCH  28  29
ATOM     29  C   UNL A   1     -29.460   0.005  23.866  0.00  0.00    +0.242 C 
BRANCH  29  30
ATOM     30  C   UNL A   1     -30.065  -1.377  23.573  0.00  0.00    +0.229 C 
ATOM     31  O   UNL A   1     -30.729  -1.878  24.721  0.00  0.00    -0.216 OA
ENDBRANCH  29  30
ENDBRANCH  28  29
ENDBRANCH  21  28
ENDBRANCH  16  17
ENDBRANCH  12  16
ENDBRANCH  11  12
ENDBRANCH   1  11
BRANCH   1  32
ATOM     32  C   UNL A   1     -24.855  -1.012  30.143  0.00  0.00    +0.065 C 
BRANCH  32  33
ATOM     33  C   UNL A   1     -24.973  -2.505  29.788  0.00  0.00    -0.019 C 
ATOM     34  C   UNL A   1     -23.906  -3.173  29.146  0.00  0.00    -0.004 C 
ATOM     35  C   UNL A   1     -23.989  -4.549  28.853  0.00  0.00    -0.000 C 
ATOM     36  C   UNL A   1     -25.137  -5.280  29.205  0.00  0.00    -0.000 C 
ATOM     37  C   UNL A   1     -26.232  -4.611  29.784  0.00  0.00    -0.000 C 
ATOM     38  C   UNL A   1     -26.155  -3.232  30.065  0.00  0.00    -0.004 C 
ENDBRANCH  32  33
BRANCH  32  39
ATOM     39  C   UNL A   1     -25.387  -0.679  31.571  0.00  0.00    +0.079 C 
ATOM     40  C   UNL A   1     -25.189   0.773  32.028  0.00  0.00    +0.019 C 
ATOM     41  C   UNL A   1     -25.336   0.684  33.544  0.00  0.00    +0.020 C 
ATOM     42  C   UNL A   1     -24.829  -0.715  33.905  0.00  0.00    +0.089 C 
ATOM     43  N   UNL A   1     -24.758  -1.481  32.646  0.00  0.00    -0.219 NA
ENDBRANCH  32  39
ENDBRANCH   1  32
TORSDOF 19
