MODEL 2392
MODEL 1
REMARK VINA RESULT:    -5.292      0.000      0.000
REMARK INTER + INTRA:          -6.233
REMARK INTER:                  -5.911
REMARK INTRA:                  -0.323
REMARK UNBOUND:                -0.323
REMARK  Name = No_2392-gen_results/8p0m/2024-11-27-11-27-31/
REMARK  2 active torsions:
REMARK  status: ('A' for Active; 'I' for Inactive)
REMARK    1  A    between atoms: C_2  and  C_3
REMARK    2  A    between atoms: C_3  and  C_4
REMARK                            x       y       z     vdW  Elec       q    Type
REMARK                         _______ _______ _______ _____ _____    ______ ____
ROOT
ATOM      1  C   UNL A   1     -23.818  -3.402  28.712  0.00  0.00    -0.004 A 
ATOM      2  C   UNL A   1     -24.698  -2.640  29.039  0.00  0.00    -0.018 A 
ATOM      3  C   UNL A   1     -24.169  -4.851  28.587  0.00  0.00    -0.000 A 
ATOM      4  C   UNL A   1     -25.327  -5.295  29.146  0.00  0.00    -0.000 A 
ATOM      5  C   UNL A   1     -26.243  -4.473  29.711  0.00  0.00    -0.000 A 
ATOM      6  C   UNL A   1     -25.987  -3.127  29.668  0.00  0.00    -0.004 A 
ENDROOT
BRANCH   2   7
ATOM      7  C   UNL A   1     -24.527  -1.273  29.137  0.00  0.00    +0.052 C 
BRANCH   7   8
ATOM      8  C   UNL A   1     -23.198  -0.766  29.164  0.00  0.00    -0.026 C 
ATOM      9  C   UNL A   1     -22.579  -0.434  30.307  0.00  0.00    -0.030 C 
ATOM     10  C   UNL A   1     -23.234  -0.622  31.583  0.00  0.00    +0.030 C 
ENDBRANCH   7   8
ENDBRANCH   2   7
TORSDOF 2
ENDMDL
ENDMDL
