MODEL 2393
MODEL 1
REMARK VINA RESULT:    -4.293      0.000      0.000
REMARK INTER + INTRA:          -4.293
REMARK INTER:                  -4.293
REMARK INTRA:                   0.000
REMARK UNBOUND:                 0.000
REMARK  Name = No_2393-gen_results/8p0m/2024-11-27-11-27-31/
REMARK  0 active torsions:
REMARK  status: ('A' for Active; 'I' for Inactive)
REMARK                            x       y       z     vdW  Elec       q    Type
REMARK                         _______ _______ _______ _____ _____    ______ ____
ROOT
ATOM      1  C   UNL A   1     -24.948  -5.360  28.954  0.00  0.00    +0.000 A 
ATOM      2  C   UNL A   1     -24.182  -4.676  28.719  0.00  0.00    +0.000 A 
ATOM      3  C   UNL A   1     -26.107  -4.744  29.600  0.00  0.00    +0.000 A 
ATOM      4  C   UNL A   1     -26.173  -3.395  29.847  0.00  0.00    +0.000 A 
ATOM      5  C   UNL A   1     -23.982  -3.233  28.855  0.00  0.00    +0.000 A 
ATOM      6  C   UNL A   1     -25.098  -2.627  29.479  0.00  0.00    +0.000 A 
ENDROOT
TORSDOF 0
ENDMDL
ENDMDL
