MODEL 2395
MODEL 1
REMARK VINA RESULT:    -4.274      0.000      0.000
REMARK INTER + INTRA:          -4.274
REMARK INTER:                  -4.274
REMARK INTRA:                   0.000
REMARK UNBOUND:                 0.000
REMARK  Name = No_2395-gen_results/8p0m/2024-11-27-11-27-31/
REMARK  0 active torsions:
REMARK  status: ('A' for Active; 'I' for Inactive)
REMARK                            x       y       z     vdW  Elec       q    Type
REMARK                         _______ _______ _______ _____ _____    ______ ____
ROOT
ATOM      1  C   UNL A   1     -26.071  -4.860  29.653  0.00  0.00    +0.000 A 
ATOM      2  C   UNL A   1     -26.216  -3.661  29.719  0.00  0.00    +0.000 A 
ATOM      3  C   UNL A   1     -25.255  -2.752  29.324  0.00  0.00    +0.000 A 
ATOM      4  C   UNL A   1     -24.044  -3.258  28.773  0.00  0.00    +0.000 A 
ATOM      5  C   UNL A   1     -23.999  -4.594  28.563  0.00  0.00    +0.000 A 
ATOM      6  C   UNL A   1     -24.986  -5.386  28.937  0.00  0.00    +0.000 A 
ENDROOT
TORSDOF 0
ENDMDL
ENDMDL
