MODEL 2396
MODEL 1
REMARK VINA RESULT:    -4.298      0.000      0.000
REMARK INTER + INTRA:          -4.298
REMARK INTER:                  -4.298
REMARK INTRA:                   0.000
REMARK UNBOUND:                 0.000
REMARK  Name = No_2396-gen_results/8p0m/2024-11-27-11-27-31/
REMARK  0 active torsions:
REMARK  status: ('A' for Active; 'I' for Inactive)
REMARK                            x       y       z     vdW  Elec       q    Type
REMARK                         _______ _______ _______ _____ _____    ______ ____
ROOT
ATOM      1  C   UNL A   1     -24.947  -5.379  28.974  0.00  0.00    +0.000 A 
ATOM      2  C   UNL A   1     -24.190  -4.689  28.728  0.00  0.00    +0.000 A 
ATOM      3  C   UNL A   1     -26.113  -4.767  29.611  0.00  0.00    +0.000 A 
ATOM      4  C   UNL A   1     -26.196  -3.416  29.837  0.00  0.00    +0.000 A 
ATOM      5  C   UNL A   1     -24.008  -3.242  28.840  0.00  0.00    +0.000 A 
ATOM      6  C   UNL A   1     -25.131  -2.640  29.455  0.00  0.00    +0.000 A 
ENDROOT
TORSDOF 0
ENDMDL
ENDMDL
