REMARK  Name = No_2397-gen_results/8p0m/2024-11-27-11-27-31/
REMARK  6 active torsions:
REMARK  status: ('A' for Active; 'I' for Inactive)
REMARK    1  A    between atoms: C_4  and  C_11
REMARK    2  A    between atoms: C_7  and  O_17
REMARK    3  A    between atoms: C_14  and  C_33
REMARK    4  A    between atoms: O_17  and  C_18
REMARK    5  A    between atoms: C_18  and  C_19
REMARK    6  A    between atoms: C_33  and  C_34
REMARK                            x       y       z     vdW  Elec       q    Type
REMARK                         _______ _______ _______ _____ _____    ______ ____
ROOT
ATOM      1  C   UNL A   1     -24.645   1.658  27.946  0.00  0.00    +0.023 C 
ATOM      2  C   UNL A   1     -24.896   2.756  28.561  0.00  0.00    +0.015 C 
ATOM      3  C   UNL A   1     -25.792   3.594  28.030  0.00  0.00    +0.092 C 
ATOM      4  C   UNL A   1     -25.945   3.587  26.605  0.00  0.00    +0.073 C 
ATOM      5  C   UNL A   1     -24.685   1.590  26.547  0.00  0.00    +0.006 C 
ATOM      6  C   UNL A   1     -25.472   2.497  25.900  0.00  0.00    +0.017 C 
ATOM      7  C   UNL A   1     -26.121   4.907  28.708  0.00  0.00    +0.227 C 
ATOM      8  O   UNL A   1     -26.441   4.983  29.744  0.00  0.00    -0.275 OA
ATOM      9  N   UNL A   1     -26.032   6.103  27.948  0.00  0.00    -0.267 N 
ATOM     10  C   UNL A   1     -26.319   7.398  28.530  0.00  0.00    +0.095 C 
ATOM     11  C   UNL A   1     -26.388   8.355  27.696  0.00  0.00    +0.022 C 
ATOM     12  C   UNL A   1     -25.902   8.297  26.382  0.00  0.00    +0.005 C 
ATOM     13  C   UNL A   1     -25.374   7.062  25.943  0.00  0.00    +0.038 C 
ATOM     14  C   UNL A   1     -25.470   6.011  26.695  0.00  0.00    +0.149 C 
ATOM     15  N   UNL A   1     -25.437   4.807  26.087  0.00  0.00    -0.202 NA
ENDROOT
BRANCH   1  19
ATOM     16  C   UNL A   1     -28.016  -0.814  28.878  0.00  0.00    +0.037 A 
ATOM     17  C   UNL A   1     -27.064  -0.119  28.608  0.00  0.00    +0.003 A 
ATOM     18  C   UNL A   1     -25.765  -0.390  29.036  0.00  0.00    -0.004 A 
ATOM     19  C   UNL A   1     -24.552   0.406  28.765  0.00  0.00    -0.022 A 
ATOM     20  C   UNL A   1     -23.230   0.118  29.258  0.00  0.00    -0.004 A 
ATOM     21  C   UNL A   1     -23.094  -1.131  29.873  0.00  0.00    -0.000 A 
ATOM     22  C   UNL A   1     -27.798  -1.934  29.856  0.00  0.00    +0.139 A 
ATOM     23  C   UNL A   1     -26.542  -2.327  30.258  0.00  0.00    +0.037 A 
ATOM     24  C   UNL A   1     -25.451  -1.552  29.908  0.00  0.00    +0.003 A 
ATOM     25  C   UNL A   1     -24.156  -1.910  30.281  0.00  0.00    +0.000 A 
BRANCH  22  26
ATOM     26  O   UNL A   1     -28.913  -2.674  30.182  0.00  0.00    -0.466 OA
BRANCH  26  27
ATOM     27  C   UNL A   1     -28.786  -3.966  30.553  0.00  0.00    +0.290 C 
BRANCH  27  28
ATOM     28  C   UNL A   1     -30.119  -4.682  30.330  0.00  0.00    +0.270 C 
ATOM     29  O   UNL A   1     -30.658  -4.708  29.300  0.00  0.00    -0.271 OA
ATOM     30  N   UNL A   1     -30.543  -5.516  31.393  0.00  0.00    -0.273 N 
ATOM     31  C   UNL A   1     -29.927  -5.558  32.742  0.00  0.00    +0.115 C 
ATOM     32  C   UNL A   1     -31.314  -6.670  31.013  0.00  0.00    +0.115 C 
ENDBRANCH  27  28
ENDBRANCH  26  27
ENDBRANCH  22  26
ENDBRANCH   1  19
BRANCH   4  33
ATOM     33  C   UNL A   1     -27.511   3.523  26.362  0.00  0.00    +0.043 C 
BRANCH  33  34
ATOM     34  C   UNL A   1     -28.120   2.988  25.372  0.00  0.00    -0.025 C 
ATOM     35  C   UNL A   1     -29.134   2.590  25.497  0.00  0.00    -0.005 C 
ENDBRANCH  33  34
ENDBRANCH   4  33
TORSDOF 6
