MODEL 2398
MODEL 1
REMARK VINA RESULT:    -5.355      0.000      0.000
REMARK INTER + INTRA:          -7.255
REMARK INTER:                  -6.607
REMARK INTRA:                  -0.648
REMARK UNBOUND:                -0.648
REMARK  Name = No_2398-gen_results/8p0m/2024-11-27-11-27-31/
REMARK  4 active torsions:
REMARK  status: ('A' for Active; 'I' for Inactive)
REMARK    1  A    between atoms: C_2  and  O_10
REMARK    2  A    between atoms: C_5  and  C_8
REMARK    3  A    between atoms: O_10  and  C_11
REMARK    4  A    between atoms: C_11  and  C_14
REMARK                            x       y       z     vdW  Elec       q    Type
REMARK                         _______ _______ _______ _____ _____    ______ ____
ROOT
ATOM      1  C   UNL A   1     -23.369  -1.328  29.098  0.00  0.00    +0.174 A 
ATOM      2  C   UNL A   1     -23.927  -0.279  29.321  0.00  0.00    +0.166 A 
ATOM      3  C   UNL A   1     -25.281  -0.134  29.570  0.00  0.00    +0.039 A 
ATOM      4  C   UNL A   1     -26.067  -1.323  29.594  0.00  0.00    +0.008 A 
ATOM      5  C   UNL A   1     -25.576  -2.282  29.627  0.00  0.00    +0.058 A 
ATOM      6  C   UNL A   1     -24.177  -2.489  29.383  0.00  0.00    +0.037 A 
ATOM      7  F   UNL A   1     -22.095  -1.480  28.930  0.00  0.00    -0.201 F 
ENDROOT
BRANCH   5   8
ATOM      8  C   UNL A   1     -26.186  -3.681  29.750  0.00  0.00    +0.265 C 
ATOM      9  N   UNL A   1     -27.382  -3.892  29.964  0.00  0.00    -0.200 NA
ATOM     10  O   UNL A   1     -25.473  -4.698  29.475  0.00  0.00    -0.268 OA
ATOM     11  C   UNL A   1     -27.944  -4.666  30.257  0.00  0.00    +0.139 C 
ENDBRANCH   5   8
BRANCH   2  12
ATOM     12  O   UNL A   1     -23.415   1.081  29.156  0.00  0.00    -0.469 OA
BRANCH  12  13
ATOM     13  C   UNL A   1     -23.778   1.815  28.247  0.00  0.00    +0.228 C 
BRANCH  13  14
ATOM     14  C   UNL A   1     -23.005   1.806  27.121  0.00  0.00    -0.001 C 
ATOM     15  C   UNL A   1     -23.445   1.898  25.905  0.00  0.00    -0.005 C 
ATOM     16  C   UNL A   1     -21.513   1.708  27.352  0.00  0.00    +0.030 C 
ENDBRANCH  13  14
ENDBRANCH  12  13
ENDBRANCH   2  12
TORSDOF 4
ENDMDL
ENDMDL
