REMARK  Name = outputs/IAG933/test6/raw/output_2399_IAG933_linker_design_.xyz
REMARK  11 active torsions:
REMARK  status: ('A' for Active; 'I' for Inactive)
REMARK    1  A    between atoms: C_1  and  C_2
REMARK    2  A    between atoms: C_13  and  N_33
REMARK    3  A    between atoms: C_14  and  C_15
REMARK    4  A    between atoms: C_21  and  O_22
REMARK    5  A    between atoms: O_22  and  C_23
REMARK    6  A    between atoms: C_23  and  C_24
REMARK    7  A    between atoms: C_28  and  C_32
REMARK    8  A    between atoms: C_32  and  C_43
REMARK    9  A    between atoms: O_37  and  N_38
REMARK   10  A    between atoms: O_37  and  C_41
REMARK   11  A    between atoms: O_40  and  C_43
REMARK                            x       y       z     vdW  Elec       q    Type
REMARK                         _______ _______ _______ _____ _____    ______ ____
ROOT
ATOM      1  C   UNL A   1     -23.394   1.705  26.332  0.00  0.00    +0.069 C 
ATOM      2  C   UNL A   1     -21.170   1.920  27.069  0.00  0.00    +0.005 C 
ATOM      3  N   UNL A   1     -24.463   1.444  26.666  0.00  0.00    -0.277 N 
ATOM      4  C   UNL A   1     -21.675   1.524  28.268  0.00  0.00    +0.041 C 
ATOM      5  C   UNL A   1     -23.626   1.357  27.378  0.00  0.00    +0.103 C 
ATOM      6  C   UNL A   1     -23.011   1.317  28.464  0.00  0.00    +0.180 C 
ATOM      7  C   UNL A   1     -21.963   2.070  26.067  0.00  0.00    +0.016 C 
ENDROOT
BRANCH   3   8
ATOM      8  C   UNL A   1     -25.688   1.614  26.461  0.00  0.00    +0.147 C 
ATOM      9  C   UNL A   1     -26.250   2.920  26.395  0.00  0.00    +0.073 C 
ATOM     10  C   UNL A   1     -27.438   3.091  25.645  0.00  0.00    +0.104 C 
ATOM     11  N   UNL A   1     -28.075   2.089  25.003  0.00  0.00    -0.212 NA
ATOM     12  C   UNL A   1     -27.543   0.849  25.079  0.00  0.00    +0.236 C 
ATOM     13  C   UNL A   1     -26.354   0.576  25.777  0.00  0.00    +0.258 C 
ATOM     14  F   UNL A   1     -25.860  -0.681  25.795  0.00  0.00    -0.225 F 
BRANCH   9  15
ATOM     15  C   UNL A   1     -25.642   4.093  27.123  0.00  0.00    +0.264 C 
ATOM     16  N   UNL A   1     -25.614   5.252  26.449  0.00  0.00    -0.200 NA
ATOM     17  C   UNL A   1     -25.026   6.479  26.963  0.00  0.00    +0.139 C 
ATOM     18  O   UNL A   1     -25.143   3.966  28.243  0.00  0.00    -0.269 OA
ENDBRANCH   9  15
BRANCH  12  19
ATOM     19  O   UNL A   1     -28.193  -0.208  24.477  0.00  0.00    -0.459 OA
BRANCH  19  20
ATOM     20  C   UNL A   1     -29.460   0.005  23.866  0.00  0.00    +0.242 C 
BRANCH  20  21
ATOM     21  C   UNL A   1     -30.065  -1.377  23.573  0.00  0.00    +0.229 C 
ATOM     22  O   UNL A   1     -30.729  -1.878  24.721  0.00  0.00    -0.216 OA
ENDBRANCH  20  21
ENDBRANCH  19  20
ENDBRANCH  12  19
ENDBRANCH   3   8
BRANCH   6  23
ATOM     23  O   UNL A   1     -23.633   1.170  29.735  0.00  0.00    -0.400 OA
BRANCH  23  32
ATOM     24  C   UNL A   1     -24.855  -1.012  30.143  0.00  0.00    +0.058 C 
ATOM     25  C   UNL A   1     -25.387  -0.679  31.571  0.00  0.00    +0.080 C 
ATOM     26  C   UNL A   1     -25.189   0.773  32.028  0.00  0.00    +0.036 C 
ATOM     27  C   UNL A   1     -25.336   0.684  33.544  0.00  0.00    +0.022 C 
ATOM     28  C   UNL A   1     -24.829  -0.715  33.905  0.00  0.00    +0.089 C 
ATOM     29  N   UNL A   1     -24.758  -1.481  32.646  0.00  0.00    -0.219 NA
ATOM     30  C   UNL A   1     -25.551   1.645  30.774  0.00  0.00    +0.108 C 
ATOM     31  C   UNL A   1     -25.216  -0.116  29.137  0.00  0.00    +0.119 C 
ATOM     32  N   UNL A   1     -25.035   1.279  29.612  0.00  0.00    -0.121 NA
BRANCH  24  33
ATOM     33  C   UNL A   1     -24.973  -2.505  29.788  0.00  0.00    -0.020 C 
ATOM     34  C   UNL A   1     -23.906  -3.173  29.146  0.00  0.00    -0.004 C 
ATOM     35  C   UNL A   1     -23.989  -4.549  28.853  0.00  0.00    -0.000 C 
ATOM     36  C   UNL A   1     -25.137  -5.280  29.205  0.00  0.00    -0.000 C 
ATOM     37  C   UNL A   1     -26.232  -4.611  29.784  0.00  0.00    -0.000 C 
ATOM     38  C   UNL A   1     -26.155  -3.232  30.065  0.00  0.00    -0.004 C 
ENDBRANCH  24  33
BRANCH  30  39
ATOM     39  C   UNL A   1     -26.130   3.017  30.879  0.00  0.00    +0.129 C 
BRANCH  39  41
ATOM     40  O   UNL A   1     -27.720   2.350  29.126  0.00  0.00    -0.250 OA
ATOM     41  C   UNL A   1     -27.483   3.114  30.109  0.00  0.00    +0.319 C 
BRANCH  41  43
ATOM     42  C   UNL A   1     -28.026   5.043  31.399  0.00  0.00    +0.256 C 
ATOM     43  O   UNL A   1     -28.475   3.867  30.661  0.00  0.00    -0.444 OA
ENDBRANCH  41  43
ENDBRANCH  39  41
ENDBRANCH  30  39
ENDBRANCH  23  32
ENDBRANCH   6  23
TORSDOF 11
