MODEL 2399
MODEL 1
REMARK VINA RESULT:    -5.298      0.000      0.000
REMARK INTER + INTRA:          -5.759
REMARK INTER:                  -5.608
REMARK INTRA:                  -0.151
REMARK UNBOUND:                -0.151
REMARK  Name = No_2399-gen_results/8p0m/2024-11-27-11-27-31/
REMARK  1 active torsions:
REMARK  status: ('A' for Active; 'I' for Inactive)
REMARK    1  A    between atoms: C_4  and  C_7
REMARK                            x       y       z     vdW  Elec       q    Type
REMARK                         _______ _______ _______ _____ _____    ______ ____
ROOT
ATOM      1  C   UNL A   1     -26.631  -3.971  29.833  0.00  0.00    -0.000 A 
ATOM      2  C   UNL A   1     -26.108  -4.860  29.621  0.00  0.00    -0.000 A 
ATOM      3  C   UNL A   1     -25.866  -2.691  29.581  0.00  0.00    -0.000 A 
ATOM      4  C   UNL A   1     -24.599  -2.753  28.963  0.00  0.00    -0.000 A 
ATOM      5  C   UNL A   1     -24.828  -5.196  28.957  0.00  0.00    -0.000 A 
ATOM      6  C   UNL A   1     -24.099  -4.043  28.704  0.00  0.00    -0.000 A 
ENDROOT
BRANCH   4   7
ATOM      7  C   UNL A   1     -23.826  -1.583  28.718  0.00  0.00    -0.005 C 
ATOM      8  C   UNL A   1     -22.735  -1.320  29.307  0.00  0.00    -0.026 C 
ATOM      9  C   UNL A   1     -21.878  -0.177  28.945  0.00  0.00    +0.031 C 
ENDBRANCH   4   7
TORSDOF 1
ENDMDL
ENDMDL
