MODEL 239
MODEL 1
REMARK VINA RESULT:    -7.489      0.000      0.000
REMARK INTER + INTRA:         -11.052
REMARK INTER:                  -9.678
REMARK INTRA:                  -1.374
REMARK UNBOUND:                -1.374
REMARK  Name = No_239-gen_results/8p0m/2024-11-27-11-27-31/
REMARK  5 active torsions:
REMARK  status: ('A' for Active; 'I' for Inactive)
REMARK    1  A    between atoms: C_1  and  C_2
REMARK    2  A    between atoms: C_1  and  C_8
REMARK    3  A    between atoms: C_3  and  C_16
REMARK    4  A    between atoms: C_5  and  C_12
REMARK    5  A    between atoms: C_19  and  O_23
REMARK                            x       y       z     vdW  Elec       q    Type
REMARK                         _______ _______ _______ _____ _____    ______ ____
ROOT
ATOM      1  C   UNL A   1     -22.931  -0.515  29.456  0.00  0.00    -0.013 A 
ATOM      2  C   UNL A   1     -24.000  -0.797  28.624  0.00  0.00    +0.007 A 
ATOM      3  C   UNL A   1     -24.336  -0.108  27.400  0.00  0.00    +0.061 A 
ATOM      4  C   UNL A   1     -23.517   0.968  26.984  0.00  0.00    +0.082 A 
ATOM      5  C   UNL A   1     -22.404   1.312  27.795  0.00  0.00    +0.004 A 
ATOM      6  C   UNL A   1     -22.154   0.583  28.917  0.00  0.00    -0.004 A 
ATOM      7 CL   UNL A   1     -25.671  -0.537  26.478  0.00  0.00    -0.082 Cl
ENDROOT
BRANCH   2   8
ATOM      8  C   UNL A   1     -24.910  -1.888  28.981  0.00  0.00    +0.001 A 
ATOM      9  C   UNL A   1     -26.162  -1.484  29.603  0.00  0.00    +0.003 A 
ATOM     10  C   UNL A   1     -27.013  -2.473  30.080  0.00  0.00    +0.037 A 
ATOM     11  C   UNL A   1     -26.681  -3.763  29.893  0.00  0.00    +0.139 A 
ATOM     12  C   UNL A   1     -24.664  -3.211  28.826  0.00  0.00    +0.003 A 
ATOM     13  C   UNL A   1     -25.510  -4.137  29.277  0.00  0.00    +0.037 A 
BRANCH  11  14
ATOM     14  O   UNL A   1     -27.508  -4.784  30.301  0.00  0.00    -0.471 OA
ATOM     15  C   UNL A   1     -28.757  -4.507  30.492  0.00  0.00    +0.253 C 
ENDBRANCH  11  14
ENDBRANCH   2   8
BRANCH   4  16
ATOM     16  C   UNL A   1     -23.839   1.760  25.801  0.00  0.00    +0.419 C 
ATOM     17  F   UNL A   1     -23.984   1.125  24.826  0.00  0.00    -0.166 F 
ATOM     18  F   UNL A   1     -24.960   2.555  25.994  0.00  0.00    -0.166 F 
ATOM     19  F   UNL A   1     -22.837   2.682  25.652  0.00  0.00    -0.166 F 
ENDBRANCH   4  16
BRANCH   1  20
ATOM     20  C   UNL A   1     -22.629  -1.149  30.441  0.00  0.00    +0.130 C 
BRANCH  20  21
ATOM     21  C   UNL A   1     -23.232  -0.656  31.710  0.00  0.00    +0.402 C 
ATOM     22  F   UNL A   1     -23.568   0.400  31.867  0.00  0.00    -0.170 F 
ATOM     23  F   UNL A   1     -22.291  -0.943  32.745  0.00  0.00    -0.170 F 
ATOM     24  F   UNL A   1     -24.277  -1.555  32.045  0.00  0.00    -0.170 F 
ENDBRANCH  20  21
ENDBRANCH   1  20
TORSDOF 5
ENDMDL
ENDMDL
