MODEL 23
MODEL 1
REMARK VINA RESULT:    -4.375      0.000      0.000
REMARK INTER + INTRA:          -4.375
REMARK INTER:                  -4.375
REMARK INTRA:                   0.000
REMARK UNBOUND:                 0.000
REMARK  Name = No_23-gen_results/8p0m/2024-11-27-11-27-31/
REMARK  0 active torsions:
REMARK  status: ('A' for Active; 'I' for Inactive)
REMARK                            x       y       z     vdW  Elec       q    Type
REMARK                         _______ _______ _______ _____ _____    ______ ____
ROOT
ATOM      1  C   UNL A   1     -25.346  -2.607  29.816  0.00  0.00    +0.011 A 
ATOM      2  C   UNL A   1     -24.311  -2.912  29.270  0.00  0.00    +0.058 A 
ATOM      3  C   UNL A   1     -24.028  -4.162  28.824  0.00  0.00    +0.011 A 
ATOM      4  C   UNL A   1     -24.993  -5.171  29.006  0.00  0.00    +0.001 A 
ATOM      5  C   UNL A   1     -26.415  -3.565  29.950  0.00  0.00    +0.001 A 
ATOM      6  C   UNL A   1     -26.170  -4.843  29.545  0.00  0.00    +0.000 A 
ATOM      7 CL   UNL A   1     -23.057  -1.738  28.986  0.00  0.00    -0.082 Cl
ENDROOT
TORSDOF 0
ENDMDL
ENDMDL
