REMARK  Name = No_24-gen_results/8p0m/2024-11-27-11-27-31/
REMARK  2 active torsions:
REMARK  status: ('A' for Active; 'I' for Inactive)
REMARK    1  A    between atoms: C_2  and  C_16
REMARK    2  A    between atoms: C_6  and  C_8
REMARK                            x       y       z     vdW  Elec       q    Type
REMARK                         _______ _______ _______ _____ _____    ______ ____
ROOT
ATOM      1  C   UNL A   1     -28.016  -0.814  28.878  0.00  0.00    +0.007 A 
ATOM      2  C   UNL A   1     -27.064  -0.119  28.608  0.00  0.00    +0.028 A 
ATOM      3  C   UNL A   1     -25.765  -0.390  29.036  0.00  0.00    +0.140 A 
ATOM      4  C   UNL A   1     -25.530  -1.530  29.901  0.00  0.00    +0.030 A 
ATOM      5  C   UNL A   1     -26.689  -2.289  30.181  0.00  0.00    +0.007 A 
ATOM      6  C   UNL A   1     -27.873  -1.951  29.737  0.00  0.00    +0.054 A 
ATOM      7  F   UNL A   1     -24.699   0.360  28.775  0.00  0.00    -0.204 F 
ENDROOT
BRANCH   2   8
ATOM      8  C   UNL A   1     -27.160   1.114  27.690  0.00  0.00    +0.002 A 
ATOM      9  C   UNL A   1     -27.561   2.210  28.218  0.00  0.00    +0.000 A 
ATOM     10  C   UNL A   1     -26.993   0.856  26.324  0.00  0.00    +0.000 A 
ATOM     11  C   UNL A   1     -27.798   3.351  27.350  0.00  0.00    +0.000 A 
ATOM     12  C   UNL A   1     -26.570  -0.408  25.797  0.00  0.00    +0.000 A 
ATOM     13  C   UNL A   1     -27.510   3.207  25.978  0.00  0.00    +0.000 A 
ATOM     14  C   UNL A   1     -27.087   1.970  25.453  0.00  0.00    +0.000 A 
ATOM     15  C   UNL A   1     -26.073  -0.346  24.573  0.00  0.00    +0.000 A 
ATOM     16  C   UNL A   1     -26.237   0.721  23.775  0.00  0.00    +0.000 A 
ATOM     17  C   UNL A   1     -26.755   1.819  24.161  0.00  0.00    +0.000 A 
ENDBRANCH   2   8
BRANCH   6  18
ATOM     18  C   UNL A   1     -29.033  -2.814  30.151  0.00  0.00    +0.249 C 
ATOM     19  N   UNL A   1     -30.207  -2.250  30.277  0.00  0.00    -0.276 N 
ATOM     20  O   UNL A   1     -28.836  -3.926  30.710  0.00  0.00    -0.270 OA
ATOM     21  C   UNL A   1     -31.378  -2.997  30.677  0.00  0.00    +0.094 C 
ATOM     22  C   UNL A   1     -32.363  -2.541  30.846  0.00  0.00    +0.022 C 
ATOM     23  C   UNL A   1     -32.447  -1.149  30.973  0.00  0.00    +0.004 C 
ATOM     24  C   UNL A   1     -31.390  -0.302  30.611  0.00  0.00    +0.022 C 
ATOM     25  C   UNL A   1     -30.261  -0.842  30.357  0.00  0.00    +0.094 C 
ENDBRANCH   6  18
TORSDOF 2
