MODEL 2400
MODEL 1
REMARK VINA RESULT:    -6.700      0.000      0.000
REMARK INTER + INTRA:          -7.942
REMARK INTER:                  -7.483
REMARK INTRA:                  -0.459
REMARK UNBOUND:                -0.459
REMARK  Name = No_2400-gen_results/8p0m/2024-11-27-11-27-31/
REMARK  2 active torsions:
REMARK  status: ('A' for Active; 'I' for Inactive)
REMARK    1  A    between atoms: C_4  and  C_8
REMARK    2  A    between atoms: C_8  and  C_9
REMARK                            x       y       z     vdW  Elec       q    Type
REMARK                         _______ _______ _______ _____ _____    ______ ____
ROOT
ATOM      1  C   UNL A   1     -22.611   1.813  27.105  0.00  0.00    +0.029 A 
ATOM      2  C   UNL A   1     -23.348   1.766  26.354  0.00  0.00    +0.140 A 
ATOM      3  C   UNL A   1     -22.801   0.859  28.263  0.00  0.00    -0.002 A 
ATOM      4  C   UNL A   1     -23.832  -0.103  28.204  0.00  0.00    -0.018 A 
ATOM      5  C   UNL A   1     -24.475   0.859  26.040  0.00  0.00    +0.029 A 
ATOM      6  C   UNL A   1     -24.677  -0.038  27.080  0.00  0.00    -0.002 A 
ATOM      7  F   UNL A   1     -23.153   2.675  25.239  0.00  0.00    -0.204 F 
ENDROOT
BRANCH   4   8
ATOM      8  C   UNL A   1     -24.054  -1.009  29.289  0.00  0.00    +0.053 C 
BRANCH   8   9
ATOM      9  C   UNL A   1     -24.652  -2.216  29.130  0.00  0.00    -0.018 A 
ATOM     10  C   UNL A   1     -25.811  -2.566  29.930  0.00  0.00    -0.004 A 
ATOM     11  C   UNL A   1     -26.371  -3.851  29.781  0.00  0.00    -0.000 A 
ATOM     12  C   UNL A   1     -25.529  -4.893  29.272  0.00  0.00    -0.000 A 
ATOM     13  C   UNL A   1     -24.285  -4.609  28.729  0.00  0.00    -0.000 A 
ATOM     14  C   UNL A   1     -23.788  -3.318  28.734  0.00  0.00    -0.004 A 
ENDBRANCH   8   9
ENDBRANCH   4   8
TORSDOF 2
ENDMDL
ENDMDL
