MODEL 2401
MODEL 1
REMARK VINA RESULT:    -6.514      0.000      0.000
REMARK INTER + INTRA:          -7.222
REMARK INTER:                  -6.895
REMARK INTRA:                  -0.327
REMARK UNBOUND:                -0.327
REMARK  Name = No_2401-gen_results/8p0m/2024-11-27-11-27-31/
REMARK  1 active torsions:
REMARK  status: ('A' for Active; 'I' for Inactive)
REMARK    1  A    between atoms: C_3  and  C_7
REMARK                            x       y       z     vdW  Elec       q    Type
REMARK                         _______ _______ _______ _____ _____    ______ ____
ROOT
ATOM      1  C   UNL A   1     -24.723  -4.946  28.944  0.00  0.00    +0.000 A 
ATOM      2  C   UNL A   1     -24.100  -3.936  28.713  0.00  0.00    +0.000 A 
ATOM      3  C   UNL A   1     -24.557  -2.658  29.032  0.00  0.00    +0.000 A 
ATOM      4  C   UNL A   1     -25.873  -2.505  29.621  0.00  0.00    +0.000 A 
ATOM      5  C   UNL A   1     -26.545  -3.727  29.853  0.00  0.00    +0.000 A 
ATOM      6  C   UNL A   1     -26.036  -4.883  29.512  0.00  0.00    +0.000 A 
ENDROOT
BRANCH   3   7
ATOM      7  C   UNL A   1     -23.843  -1.377  28.789  0.00  0.00    +0.000 A 
ATOM      8  C   UNL A   1     -24.317  -0.467  27.978  0.00  0.00    +0.000 A 
ATOM      9  C   UNL A   1     -23.570   0.677  27.670  0.00  0.00    +0.000 A 
ATOM     10  C   UNL A   1     -22.290   0.900  28.121  0.00  0.00    +0.000 A 
ATOM     11  C   UNL A   1     -22.478  -1.219  29.265  0.00  0.00    +0.000 A 
ATOM     12  C   UNL A   1     -21.733  -0.055  28.926  0.00  0.00    +0.000 A 
ENDBRANCH   3   7
TORSDOF 1
ENDMDL
ENDMDL
