MODEL 2402
MODEL 1
REMARK VINA RESULT:    -6.558      0.000      0.000
REMARK INTER + INTRA:          -9.194
REMARK INTER:                  -8.475
REMARK INTRA:                  -0.720
REMARK UNBOUND:                -0.720
REMARK  Name = No_2402-gen_results/8p0m/2024-11-27-11-27-31/
REMARK  5 active torsions:
REMARK  status: ('A' for Active; 'I' for Inactive)
REMARK    1  A    between atoms: C_2  and  C_7
REMARK    2  A    between atoms: C_4  and  C_10
REMARK    3  A    between atoms: C_10  and  C_11
REMARK    4  A    between atoms: C_11  and  C_12
REMARK    5  A    between atoms: C_13  and  C_14
REMARK                            x       y       z     vdW  Elec       q    Type
REMARK                         _______ _______ _______ _____ _____    ______ ____
ROOT
ATOM      1  C   UNL A   1     -22.889  -1.163  28.899  0.00  0.00    +0.031 C 
ENDROOT
BRANCH   1   5
ATOM      2  C   UNL A   1     -23.160   2.229  27.102  0.00  0.00    +0.006 A 
ATOM      3  C   UNL A   1     -24.177   2.158  26.834  0.00  0.00    +0.080 A 
ATOM      4  C   UNL A   1     -22.607   1.114  27.887  0.00  0.00    -0.004 A 
ATOM      5  C   UNL A   1     -23.386  -0.053  28.138  0.00  0.00    -0.022 A 
ATOM      6  C   UNL A   1     -25.172   1.054  26.918  0.00  0.00    +0.006 A 
ATOM      7  C   UNL A   1     -24.698   0.005  27.648  0.00  0.00    -0.004 A 
BRANCH   3   8
ATOM      8  C   UNL A   1     -24.809   3.337  25.967  0.00  0.00    +0.388 C 
ATOM      9  O   UNL A   1     -26.077   3.454  25.938  0.00  0.00    -0.241 OA
ATOM     10  O   UNL A   1     -23.989   4.135  25.446  0.00  0.00    -0.241 OA
ENDBRANCH   3   8
ENDBRANCH   1   5
BRANCH   1  11
ATOM     11  C   UNL A   1     -23.704  -1.537  30.037  0.00  0.00    +0.026 C 
ATOM     12  C   UNL A   1     -23.264  -0.960  31.317  0.00  0.00    +0.005 C 
BRANCH  11  13
ATOM     13  C   UNL A   1     -24.654  -2.551  29.952  0.00  0.00    -0.025 A 
ATOM     14  C   UNL A   1     -25.896  -2.356  30.306  0.00  0.00    -0.007 A 
ATOM     15  C   UNL A   1     -24.127  -3.814  29.405  0.00  0.00    -0.004 A 
ATOM     16  C   UNL A   1     -25.102  -4.823  29.150  0.00  0.00    -0.000 A 
ATOM     17  C   UNL A   1     -26.480  -4.637  29.576  0.00  0.00    -0.000 A 
ATOM     18  C   UNL A   1     -26.841  -3.432  30.152  0.00  0.00    -0.003 A 
BRANCH  14  19
ATOM     19  C   UNL A   1     -26.334  -1.146  30.803  0.00  0.00    +0.135 C 
ATOM     20  N   UNL A   1     -27.590  -0.808  30.473  0.00  0.00    -0.126 NA
ENDBRANCH  14  19
ENDBRANCH  11  13
ENDBRANCH   1  11
TORSDOF 5
ENDMDL
ENDMDL
