REMARK  Name = outputs/IAG933/test6/raw/output_2402_IAG933_linker_design_.xyz
REMARK  15 active torsions:
REMARK  status: ('A' for Active; 'I' for Inactive)
REMARK    1  A    between atoms: C_1  and  C_2
REMARK    2  A    between atoms: C_1  and  C_8
REMARK    3  A    between atoms: C_9  and  N_42
REMARK    4  A    between atoms: C_13  and  C_30
REMARK    5  A    between atoms: C_14  and  C_15
REMARK    6  A    between atoms: C_21  and  O_22
REMARK    7  A    between atoms: O_22  and  C_23
REMARK    8  A    between atoms: C_23  and  C_24
REMARK    9  A    between atoms: C_28  and  O_32
REMARK   10  A    between atoms: C_29  and  O_32
REMARK   11  A    between atoms: C_29  and  O_36
REMARK   12  A    between atoms: C_29  and  N_42
REMARK   13  A    between atoms: O_36  and  C_38
REMARK   14  A    between atoms: C_38  and  O_40
REMARK   15  A    between atoms: C_39  and  O_40
REMARK                            x       y       z     vdW  Elec       q    Type
REMARK                         _______ _______ _______ _____ _____    ______ ____
ROOT
ATOM      1  C   UNL A   1     -23.837   1.346  28.755  0.00  0.00    +0.153 C 
ATOM      2  C   UNL A   1     -24.312   1.425  27.172  0.00  0.00    +0.055 C 
ATOM      3  O   UNL A   1     -22.130   0.382  28.661  0.00  0.00    -0.221 OA
ATOM      4  C   UNL A   1     -23.167   2.633  25.140  0.00  0.00    +0.001 C 
ATOM      5  C   UNL A   1     -21.674   1.734  27.076  0.00  0.00    +0.036 C 
ATOM      6  C   UNL A   1     -23.045   1.551  26.256  0.00  0.00    +0.009 C 
ATOM      7  C   UNL A   1     -22.366   1.582  28.520  0.00  0.00    +0.179 C 
ENDROOT
BRANCH   2   8
ATOM      8  C   UNL A   1     -25.688   1.614  26.461  0.00  0.00    +0.018 C 
ATOM      9  C   UNL A   1     -26.250   2.920  26.395  0.00  0.00    +0.073 C 
ATOM     10  C   UNL A   1     -27.438   3.091  25.645  0.00  0.00    +0.106 C 
ATOM     11  N   UNL A   1     -28.075   2.089  25.003  0.00  0.00    -0.208 NA
ATOM     12  C   UNL A   1     -27.543   0.849  25.079  0.00  0.00    +0.253 C 
ATOM     13  C   UNL A   1     -26.354   0.576  25.777  0.00  0.00    +0.189 C 
ATOM     14  F   UNL A   1     -25.860  -0.681  25.795  0.00  0.00    -0.200 F 
BRANCH   9  15
ATOM     15  C   UNL A   1     -25.642   4.093  27.123  0.00  0.00    +0.266 C 
ATOM     16  N   UNL A   1     -25.614   5.252  26.449  0.00  0.00    -0.200 NA
ATOM     17  C   UNL A   1     -25.026   6.479  26.963  0.00  0.00    +0.139 C 
ATOM     18  O   UNL A   1     -25.143   3.966  28.243  0.00  0.00    -0.268 OA
ENDBRANCH   9  15
BRANCH  12  19
ATOM     19  O   UNL A   1     -28.193  -0.208  24.477  0.00  0.00    -0.456 OA
BRANCH  19  20
ATOM     20  C   UNL A   1     -29.460   0.005  23.866  0.00  0.00    +0.243 C 
BRANCH  20  21
ATOM     21  C   UNL A   1     -30.065  -1.377  23.573  0.00  0.00    +0.229 C 
ATOM     22  O   UNL A   1     -30.729  -1.878  24.721  0.00  0.00    -0.216 OA
ENDBRANCH  20  21
ENDBRANCH  19  20
ENDBRANCH  12  19
ENDBRANCH   2   8
BRANCH   1  23
ATOM     23  O   UNL A   1     -24.212   2.173  30.015  0.00  0.00    -0.316 OA
BRANCH  23  24
ATOM     24  C   UNL A   1     -25.270   2.701  30.865  0.00  0.00    +0.324 C 
BRANCH  24  25
ATOM     25  O   UNL A   1     -25.592   3.956  30.993  0.00  0.00    -0.288 OA
BRANCH  25  26
ATOM     26  C   UNL A   1     -25.956   5.150  31.688  0.00  0.00    +0.297 C 
BRANCH  26  27
ATOM     27  O   UNL A   1     -27.285   5.488  31.260  0.00  0.00    -0.327 OA
BRANCH  27  29
ATOM     28  C   UNL A   1     -28.179   3.373  29.709  0.00  0.00    +0.035 C 
ATOM     29  C   UNL A   1     -28.131   4.416  30.844  0.00  0.00    +0.145 C 
ENDBRANCH  27  29
ENDBRANCH  26  27
ENDBRANCH  25  26
ENDBRANCH  24  25
BRANCH  24  30
ATOM     30  N   UNL A   1     -25.943   1.796  31.369  0.00  0.00    -0.165 NA
BRANCH  30  32
ATOM     31  C   UNL A   1     -25.387  -0.679  31.571  0.00  0.00    +0.093 C 
ATOM     32  C   UNL A   1     -25.189   0.773  32.028  0.00  0.00    +0.095 C 
ATOM     33  C   UNL A   1     -25.336   0.684  33.544  0.00  0.00    +0.038 C 
ATOM     34  C   UNL A   1     -24.829  -0.715  33.905  0.00  0.00    +0.090 C 
ATOM     35  N   UNL A   1     -24.758  -1.481  32.646  0.00  0.00    -0.218 NA
BRANCH  31  36
ATOM     36  C   UNL A   1     -24.855  -1.012  30.143  0.00  0.00    +0.045 C 
BRANCH  36  37
ATOM     37  C   UNL A   1     -24.973  -2.505  29.788  0.00  0.00    -0.021 C 
ATOM     38  C   UNL A   1     -23.906  -3.173  29.146  0.00  0.00    -0.004 C 
ATOM     39  C   UNL A   1     -23.989  -4.549  28.853  0.00  0.00    -0.000 C 
ATOM     40  C   UNL A   1     -25.137  -5.280  29.205  0.00  0.00    -0.000 C 
ATOM     41  C   UNL A   1     -26.232  -4.611  29.784  0.00  0.00    -0.000 C 
ATOM     42  C   UNL A   1     -26.155  -3.232  30.065  0.00  0.00    -0.004 C 
ENDBRANCH  36  37
ENDBRANCH  31  36
ENDBRANCH  30  32
ENDBRANCH  24  30
ENDBRANCH  23  24
ENDBRANCH   1  23
TORSDOF 15
