REMARK  Name = outputs/IAG933/test6/raw/output_2403_IAG933_linker_design_.xyz
REMARK  11 active torsions:
REMARK  status: ('A' for Active; 'I' for Inactive)
REMARK    1  A    between atoms: C_1  and  C_2
REMARK    2  A    between atoms: C_1  and  C_8
REMARK    3  A    between atoms: C_1  and  C_29
REMARK    4  A    between atoms: C_13  and  N_40
REMARK    5  A    between atoms: C_14  and  C_15
REMARK    6  A    between atoms: C_21  and  O_22
REMARK    7  A    between atoms: O_22  and  C_23
REMARK    8  A    between atoms: C_23  and  C_24
REMARK    9  A    between atoms: C_29  and  C_31
REMARK   10  A    between atoms: C_29  and  C_33
REMARK   11  A    between atoms: C_32  and  C_41
REMARK                            x       y       z     vdW  Elec       q    Type
REMARK                         _______ _______ _______ _____ _____    ______ ____
ROOT
ATOM      1  C   UNL A   1     -25.723  -0.029  29.281  0.00  0.00    +0.024 C 
ENDROOT
BRANCH   1   2
ATOM      2  C   UNL A   1     -27.331   0.430  29.480  0.00  0.00    +0.002 C 
ATOM      3  C   UNL A   1     -29.458  -0.917  30.547  0.00  0.00    +0.015 C 
ATOM      4  C   UNL A   1     -29.299  -1.293  29.093  0.00  0.00    +0.058 C 
ATOM      5  C   UNL A   1     -28.423   0.281  30.736  0.00  0.00    +0.001 C 
ATOM      6  C   UNL A   1     -28.279  -0.323  28.452  0.00  0.00    +0.007 C 
ATOM      7  C   UNL A   1     -30.892  -0.239  30.356  0.00  0.00    +0.077 C 
ATOM      8  O   UNL A   1     -31.593  -0.955  28.049  0.00  0.00    -0.296 OA
ATOM      9  C   UNL A   1     -30.771  -0.900  29.009  0.00  0.00    +0.151 C 
BRANCH   7  11
ATOM     10  N   UNL A   1     -33.069   0.053  31.513  0.00  0.00    -0.131 NA
ATOM     11  C   UNL A   1     -31.710  -0.303  31.499  0.00  0.00    +0.117 C 
ENDBRANCH   7  11
ENDBRANCH   1   2
BRANCH   1  13
ATOM     12  C   UNL A   1     -23.470   1.627  26.713  0.00  0.00    +0.073 C 
ATOM     13  C   UNL A   1     -24.597   0.716  28.450  0.00  0.00    +0.073 C 
ATOM     14  C   UNL A   1     -20.989   1.460  27.482  0.00  0.00    +0.002 C 
ATOM     15  C   UNL A   1     -22.997   1.926  25.228  0.00  0.00    +0.021 C 
ATOM     16  N   UNL A   1     -24.604   1.299  27.297  0.00  0.00    -0.309 N 
ATOM     17  C   UNL A   1     -23.147   0.944  28.977  0.00  0.00    +0.021 C 
ATOM     18  C   UNL A   1     -22.425   1.822  27.883  0.00  0.00    +0.020 C 
BRANCH  16  19
ATOM     19  C   UNL A   1     -25.688   1.614  26.461  0.00  0.00    +0.086 C 
ATOM     20  C   UNL A   1     -26.250   2.920  26.395  0.00  0.00    +0.090 C 
ATOM     21  C   UNL A   1     -27.438   3.091  25.645  0.00  0.00    +0.108 C 
ATOM     22  N   UNL A   1     -28.075   2.089  25.003  0.00  0.00    -0.208 NA
ATOM     23  C   UNL A   1     -27.543   0.849  25.079  0.00  0.00    +0.255 C 
ATOM     24  C   UNL A   1     -26.354   0.576  25.777  0.00  0.00    +0.206 C 
ATOM     25  F   UNL A   1     -25.860  -0.681  25.795  0.00  0.00    -0.198 F 
BRANCH  20  26
ATOM     26  C   UNL A   1     -25.642   4.093  27.123  0.00  0.00    +0.268 C 
ATOM     27  N   UNL A   1     -25.614   5.252  26.449  0.00  0.00    -0.200 NA
ATOM     28  C   UNL A   1     -25.026   6.479  26.963  0.00  0.00    +0.139 C 
ATOM     29  O   UNL A   1     -25.143   3.966  28.243  0.00  0.00    -0.268 OA
ENDBRANCH  20  26
BRANCH  23  30
ATOM     30  O   UNL A   1     -28.193  -0.208  24.477  0.00  0.00    -0.456 OA
BRANCH  30  31
ATOM     31  C   UNL A   1     -29.460   0.005  23.866  0.00  0.00    +0.243 C 
BRANCH  31  32
ATOM     32  C   UNL A   1     -30.065  -1.377  23.573  0.00  0.00    +0.229 C 
ATOM     33  O   UNL A   1     -30.729  -1.878  24.721  0.00  0.00    -0.216 OA
ENDBRANCH  31  32
ENDBRANCH  30  31
ENDBRANCH  23  30
ENDBRANCH  16  19
ENDBRANCH   1  13
BRANCH   1  34
ATOM     34  C   UNL A   1     -24.855  -1.012  30.143  0.00  0.00    +0.040 C 
BRANCH  34  35
ATOM     35  C   UNL A   1     -24.973  -2.505  29.788  0.00  0.00    -0.021 C 
ATOM     36  C   UNL A   1     -23.906  -3.173  29.146  0.00  0.00    -0.004 C 
ATOM     37  C   UNL A   1     -23.989  -4.549  28.853  0.00  0.00    -0.000 C 
ATOM     38  C   UNL A   1     -25.137  -5.280  29.205  0.00  0.00    -0.000 C 
ATOM     39  C   UNL A   1     -26.232  -4.611  29.784  0.00  0.00    -0.000 C 
ATOM     40  C   UNL A   1     -26.155  -3.232  30.065  0.00  0.00    -0.004 C 
ENDBRANCH  34  35
BRANCH  34  41
ATOM     41  C   UNL A   1     -25.387  -0.679  31.571  0.00  0.00    +0.077 C 
ATOM     42  C   UNL A   1     -25.189   0.773  32.028  0.00  0.00    +0.019 C 
ATOM     43  C   UNL A   1     -25.336   0.684  33.544  0.00  0.00    +0.020 C 
ATOM     44  C   UNL A   1     -24.829  -0.715  33.905  0.00  0.00    +0.089 C 
ATOM     45  N   UNL A   1     -24.758  -1.481  32.646  0.00  0.00    -0.219 NA
ENDBRANCH  34  41
ENDBRANCH   1  34
TORSDOF 11
