REMARK  Name = outputs/IAG933/test6/raw/output_2404_IAG933_linker_design_.xyz
REMARK  11 active torsions:
REMARK  status: ('A' for Active; 'I' for Inactive)
REMARK    1  A    between atoms: C_1  and  C_2
REMARK    2  A    between atoms: C_1  and  C_8
REMARK    3  A    between atoms: C_1  and  N_30
REMARK    4  A    between atoms: C_14  and  C_15
REMARK    5  A    between atoms: C_15  and  O_18
REMARK    6  A    between atoms: O_18  and  C_40
REMARK    7  A    between atoms: C_21  and  O_22
REMARK    8  A    between atoms: O_22  and  C_23
REMARK    9  A    between atoms: C_23  and  C_24
REMARK   10  A    between atoms: C_32  and  C_40
REMARK   11  A    between atoms: N_35  and  C_38
REMARK                            x       y       z     vdW  Elec       q    Type
REMARK                         _______ _______ _______ _____ _____    ______ ____
ROOT
ATOM      1  C   UNL A   1     -22.942   0.189  29.224  0.00  0.00    +0.333 C 
ATOM      2  C   UNL A   1     -21.227   1.136  28.190  0.00  0.00    +0.205 C 
ATOM      3  N   UNL A   1     -24.224   0.034  29.390  0.00  0.00    -0.153 N 
ATOM      4  N   UNL A   1     -21.811  -0.562  29.470  0.00  0.00    -0.004 NA
ATOM      5  C   UNL A   1     -25.166   1.455  29.013  0.00  0.00    +0.362 C 
ATOM      6  C   UNL A   1     -22.661   1.287  28.385  0.00  0.00    +0.167 C 
ATOM      7  F   UNL A   1     -20.502   2.098  27.672  0.00  0.00    -0.199 F 
ATOM      8  N   UNL A   1     -23.773   1.796  28.055  0.00  0.00    -0.213 N 
ATOM      9  C   UNL A   1     -20.676  -0.005  28.773  0.00  0.00    +0.255 C 
ATOM     10  O   UNL A   1     -26.477   0.985  29.066  0.00  0.00    -0.155 OA
ENDROOT
BRANCH   8  12
ATOM     11  O   UNL A   1     -22.901   2.511  26.093  0.00  0.00    -0.196 OA
ATOM     12  C   UNL A   1     -23.229   2.103  27.151  0.00  0.00    +0.283 C 
ENDBRANCH   8  12
BRANCH   3  13
ATOM     13  C   UNL A   1     -24.855  -1.012  30.143  0.00  0.00    +0.202 C 
BRANCH  13  14
ATOM     14  C   UNL A   1     -24.973  -2.505  29.788  0.00  0.00    +0.021 C 
ATOM     15  C   UNL A   1     -23.906  -3.173  29.146  0.00  0.00    -0.000 C 
ATOM     16  C   UNL A   1     -23.989  -4.549  28.853  0.00  0.00    -0.000 C 
ATOM     17  C   UNL A   1     -25.137  -5.280  29.205  0.00  0.00    -0.000 C 
ATOM     18  C   UNL A   1     -26.232  -4.611  29.784  0.00  0.00    -0.000 C 
ATOM     19  C   UNL A   1     -26.155  -3.232  30.065  0.00  0.00    -0.000 C 
ENDBRANCH  13  14
BRANCH  13  20
ATOM     20  C   UNL A   1     -25.387  -0.679  31.571  0.00  0.00    +0.120 C 
ATOM     21  C   UNL A   1     -25.189   0.773  32.028  0.00  0.00    +0.023 C 
ATOM     22  C   UNL A   1     -25.336   0.684  33.544  0.00  0.00    +0.020 C 
ATOM     23  C   UNL A   1     -24.829  -0.715  33.905  0.00  0.00    +0.089 C 
ATOM     24  N   UNL A   1     -24.758  -1.481  32.646  0.00  0.00    -0.215 NA
ENDBRANCH  13  20
ENDBRANCH   3  13
BRANCH   5  25
ATOM     25  C   UNL A   1     -25.507   3.145  29.187  0.00  0.00    +0.304 C 
BRANCH  25  26
ATOM     26  O   UNL A   1     -25.143   3.966  28.243  0.00  0.00    -0.451 OA
BRANCH  26  27
ATOM     27  C   UNL A   1     -25.642   4.093  27.123  0.00  0.00    +0.222 C 
ATOM     28  N   UNL A   1     -25.614   5.252  26.449  0.00  0.00    -0.236 NA
ATOM     29  C   UNL A   1     -25.026   6.479  26.963  0.00  0.00    +0.155 C 
BRANCH  27  31
ATOM     30  C   UNL A   1     -25.688   1.614  26.461  0.00  0.00    +0.041 C 
ATOM     31  C   UNL A   1     -26.250   2.920  26.395  0.00  0.00    +0.074 C 
ATOM     32  C   UNL A   1     -27.438   3.091  25.645  0.00  0.00    +0.107 C 
ATOM     33  N   UNL A   1     -28.075   2.089  25.003  0.00  0.00    -0.208 NA
ATOM     34  C   UNL A   1     -27.543   0.849  25.079  0.00  0.00    +0.253 C 
ATOM     35  C   UNL A   1     -26.354   0.576  25.777  0.00  0.00    +0.193 C 
ATOM     36  F   UNL A   1     -25.860  -0.681  25.795  0.00  0.00    -0.199 F 
BRANCH  34  37
ATOM     37  O   UNL A   1     -28.193  -0.208  24.477  0.00  0.00    -0.456 OA
BRANCH  37  38
ATOM     38  C   UNL A   1     -29.460   0.005  23.866  0.00  0.00    +0.243 C 
BRANCH  38  39
ATOM     39  C   UNL A   1     -30.065  -1.377  23.573  0.00  0.00    +0.229 C 
ATOM     40  O   UNL A   1     -30.729  -1.878  24.721  0.00  0.00    -0.216 OA
ENDBRANCH  38  39
ENDBRANCH  37  38
ENDBRANCH  34  37
ENDBRANCH  27  31
ENDBRANCH  26  27
ENDBRANCH  25  26
ENDBRANCH   5  25
TORSDOF 11
