MODEL 2404
MODEL 1
REMARK VINA RESULT:    -6.174      0.000      0.000
REMARK INTER + INTRA:          -8.666
REMARK INTER:                  -7.979
REMARK INTRA:                  -0.687
REMARK UNBOUND:                -0.687
REMARK  Name = No_2404-gen_results/8p0m/2024-11-27-11-27-31/
REMARK  5 active torsions:
REMARK  status: ('A' for Active; 'I' for Inactive)
REMARK    1  A    between atoms: C_3  and  C_4
REMARK    2  A    between atoms: C_10  and  C_13
REMARK    3  A    between atoms: C_13  and  N_14
REMARK    4  A    between atoms: N_14  and  C_16
REMARK    5  A    between atoms: C_17  and  C_18
REMARK                            x       y       z     vdW  Elec       q    Type
REMARK                         _______ _______ _______ _____ _____    ______ ____
ROOT
ATOM      1  C   UNL A   1     -24.214   0.611  26.295  0.00  0.00    -0.003 A 
ATOM      2  C   UNL A   1     -25.058   0.695  25.433  0.00  0.00    -0.000 A 
ATOM      3  C   UNL A   1     -26.412   0.687  25.750  0.00  0.00    -0.000 A 
ATOM      4  C   UNL A   1     -24.541   0.284  27.679  0.00  0.00    -0.002 A 
ATOM      5  C   UNL A   1     -25.851   0.362  28.106  0.00  0.00    -0.003 A 
ATOM      6  C   UNL A   1     -26.844   0.504  27.128  0.00  0.00    -0.000 A 
ENDROOT
BRANCH   3   7
ATOM      7  C   UNL A   1     -27.543   0.773  24.783  0.00  0.00    -0.000 A 
ATOM      8  C   UNL A   1     -27.998   2.088  24.469  0.00  0.00    -0.000 A 
ATOM      9  C   UNL A   1     -29.080   2.271  23.609  0.00  0.00    +0.000 A 
ATOM     10  C   UNL A   1     -29.782   1.115  23.203  0.00  0.00    +0.000 A 
ATOM     11  C   UNL A   1     -29.366  -0.147  23.513  0.00  0.00    +0.000 A 
ATOM     12  C   UNL A   1     -28.224  -0.343  24.377  0.00  0.00    -0.000 A 
ENDBRANCH   3   7
BRANCH   4  13
ATOM     13  C   UNL A   1     -23.509   0.115  28.718  0.00  0.00    +0.118 C 
BRANCH  13  14
ATOM     14  N   UNL A   1     -23.645  -0.964  29.402  0.00  0.00    -0.301 N 
ATOM     15  C   UNL A   1     -23.563  -0.957  30.705  0.00  0.00    +0.113 C 
BRANCH  14  16
ATOM     16  C   UNL A   1     -23.782  -2.213  28.786  0.00  0.00    +0.062 C 
ATOM     17  C   UNL A   1     -24.067  -3.126  29.203  0.00  0.00    +0.016 C 
BRANCH  17  18
ATOM     18  C   UNL A   1     -24.084  -4.418  28.520  0.00  0.00    +0.001 C 
ATOM     19  C   UNL A   1     -24.903  -5.390  29.041  0.00  0.00    +0.000 C 
ENDBRANCH  17  18
ENDBRANCH  14  16
ENDBRANCH  13  14
ENDBRANCH   4  13
TORSDOF 5
ENDMDL
ENDMDL
