REMARK  Name = outputs/IAG933/test6/raw/output_2405_IAG933_linker_design_.xyz
REMARK  10 active torsions:
REMARK  status: ('A' for Active; 'I' for Inactive)
REMARK    1  A    between atoms: C_1  and  C_2
REMARK    2  A    between atoms: C_1  and  C_8
REMARK    3  A    between atoms: C_1  and  C_44
REMARK    4  A    between atoms: C_13  and  C_45
REMARK    5  A    between atoms: C_14  and  C_15
REMARK    6  A    between atoms: C_21  and  O_22
REMARK    7  A    between atoms: O_22  and  C_23
REMARK    8  A    between atoms: C_23  and  C_24
REMARK    9  A    between atoms: C_37  and  C_44
REMARK   10  A    between atoms: N_39  and  C_45
REMARK                            x       y       z     vdW  Elec       q    Type
REMARK                         _______ _______ _______ _____ _____    ______ ____
ROOT
ATOM      1  C   UNL A   1     -21.412   0.131  28.744  0.00  0.00    +0.090 C 
ATOM      2  F   UNL A   1     -21.506   2.192  25.891  0.00  0.00    -0.236 F 
ATOM      3  C   UNL A   1     -21.288   1.887  27.196  0.00  0.00    +0.177 C 
ATOM      4  C   UNL A   1     -19.972   1.560  27.575  0.00  0.00    +0.038 C 
ATOM      5  N   UNL A   1     -21.362  -0.987  29.442  0.00  0.00    -0.218 NA
ATOM      6  C   UNL A   1     -23.947   1.333  29.716  0.00  0.00    +0.181 C 
ATOM      7  C   UNL A   1     -23.392   1.827  28.484  0.00  0.00    +0.112 C 
ATOM      8  N   UNL A   1     -23.498   1.861  27.297  0.00  0.00    -0.220 NA
ATOM      9  C   UNL A   1     -22.177  -0.734  29.930  0.00  0.00    +0.094 C 
ATOM     10  C   UNL A   1     -22.161   1.315  27.961  0.00  0.00    +0.111 C 
ATOM     11  F   UNL A   1     -23.346   2.036  30.736  0.00  0.00    -0.236 F 
ATOM     12  C   UNL A   1     -20.131   0.209  28.253  0.00  0.00    +0.022 C 
ATOM     13  C   UNL A   1     -23.711  -0.138  29.632  0.00  0.00    +0.083 C 
ENDROOT
BRANCH   8  16
ATOM     14  F   UNL A   1     -23.623   0.886  25.319  0.00  0.00    -0.188 F 
ATOM     15  O   UNL A   1     -23.778   3.061  25.496  0.00  0.00    -0.172 OA
ATOM     16  C   UNL A   1     -24.253   1.875  26.081  0.00  0.00    +0.314 C 
BRANCH  16  17
ATOM     17  C   UNL A   1     -25.688   1.614  26.461  0.00  0.00    +0.144 C 
ATOM     18  C   UNL A   1     -26.250   2.920  26.395  0.00  0.00    +0.061 C 
ATOM     19  C   UNL A   1     -27.438   3.091  25.645  0.00  0.00    +0.102 C 
ATOM     20  N   UNL A   1     -28.075   2.089  25.003  0.00  0.00    -0.212 NA
ATOM     21  C   UNL A   1     -27.543   0.849  25.079  0.00  0.00    +0.234 C 
ATOM     22  C   UNL A   1     -26.354   0.576  25.777  0.00  0.00    +0.247 C 
ATOM     23  F   UNL A   1     -25.860  -0.681  25.795  0.00  0.00    -0.227 F 
BRANCH  18  24
ATOM     24  C   UNL A   1     -25.642   4.093  27.123  0.00  0.00    +0.263 C 
ATOM     25  N   UNL A   1     -25.614   5.252  26.449  0.00  0.00    -0.200 NA
ATOM     26  C   UNL A   1     -25.026   6.479  26.963  0.00  0.00    +0.139 C 
ATOM     27  O   UNL A   1     -25.143   3.966  28.243  0.00  0.00    -0.269 OA
ENDBRANCH  18  24
BRANCH  21  28
ATOM     28  O   UNL A   1     -28.193  -0.208  24.477  0.00  0.00    -0.459 OA
BRANCH  28  29
ATOM     29  C   UNL A   1     -29.460   0.005  23.866  0.00  0.00    +0.242 C 
BRANCH  29  30
ATOM     30  C   UNL A   1     -30.065  -1.377  23.573  0.00  0.00    +0.229 C 
ATOM     31  O   UNL A   1     -30.729  -1.878  24.721  0.00  0.00    -0.216 OA
ENDBRANCH  29  30
ENDBRANCH  28  29
ENDBRANCH  21  28
ENDBRANCH  16  17
ENDBRANCH   8  16
BRANCH  13  33
ATOM     32  O   UNL A   1     -24.286  -0.130  27.430  0.00  0.00    -0.220 OA
ATOM     33  C   UNL A   1     -24.143  -0.089  28.370  0.00  0.00    +0.186 C 
ENDBRANCH  13  33
BRANCH  13  34
ATOM     34  C   UNL A   1     -24.855  -1.012  30.143  0.00  0.00    +0.045 C 
BRANCH  34  35
ATOM     35  C   UNL A   1     -24.973  -2.505  29.788  0.00  0.00    -0.021 C 
ATOM     36  C   UNL A   1     -23.906  -3.173  29.146  0.00  0.00    -0.004 C 
ATOM     37  C   UNL A   1     -23.989  -4.549  28.853  0.00  0.00    -0.000 C 
ATOM     38  C   UNL A   1     -25.137  -5.280  29.205  0.00  0.00    -0.000 C 
ATOM     39  C   UNL A   1     -26.232  -4.611  29.784  0.00  0.00    -0.000 C 
ATOM     40  C   UNL A   1     -26.155  -3.232  30.065  0.00  0.00    -0.004 C 
ENDBRANCH  34  35
BRANCH  34  41
ATOM     41  C   UNL A   1     -25.387  -0.679  31.571  0.00  0.00    +0.077 C 
ATOM     42  C   UNL A   1     -25.189   0.773  32.028  0.00  0.00    +0.019 C 
ATOM     43  C   UNL A   1     -25.336   0.684  33.544  0.00  0.00    +0.020 C 
ATOM     44  C   UNL A   1     -24.829  -0.715  33.905  0.00  0.00    +0.089 C 
ATOM     45  N   UNL A   1     -24.758  -1.481  32.646  0.00  0.00    -0.219 NA
ENDBRANCH  34  41
ENDBRANCH  13  34
TORSDOF 10
