MODEL 2405
MODEL 1
REMARK VINA RESULT:    -6.520      0.000      0.000
REMARK INTER + INTRA:          -8.995
REMARK INTER:                  -8.044
REMARK INTRA:                  -0.951
REMARK UNBOUND:                -0.951
REMARK  Name = No_2405-gen_results/8p0m/2024-11-27-11-27-31/
REMARK  4 active torsions:
REMARK  status: ('A' for Active; 'I' for Inactive)
REMARK    1  A    between atoms: C_2  and  O_7
REMARK    2  A    between atoms: C_5  and  C_14
REMARK    3  A    between atoms: O_7  and  C_8
REMARK    4  A    between atoms: C_9  and  C_17
REMARK                            x       y       z     vdW  Elec       q    Type
REMARK                         _______ _______ _______ _____ _____    ______ ____
ROOT
ATOM      1  O   UNL A   1     -22.642   0.120  29.095  0.00  0.00    -0.454 OA
ENDROOT
BRANCH   1   3
ATOM      2  C   UNL A   1     -24.070   0.235  27.330  0.00  0.00    +0.044 A 
ATOM      3  C   UNL A   1     -23.062   0.664  27.844  0.00  0.00    +0.145 A 
ATOM      4  C   UNL A   1     -22.276   1.602  27.400  0.00  0.00    +0.037 A 
ATOM      5  C   UNL A   1     -22.601   2.215  26.151  0.00  0.00    +0.003 A 
ATOM      6  C   UNL A   1     -24.527   0.887  26.118  0.00  0.00    +0.083 A 
ATOM      7  C   UNL A   1     -23.769   1.846  25.585  0.00  0.00    +0.007 A 
BRANCH   6   8
ATOM      8  C   UNL A   1     -25.810   0.420  25.509  0.00  0.00    +0.388 C 
ATOM      9  O   UNL A   1     -25.918   0.133  24.457  0.00  0.00    -0.241 OA
ATOM     10  O   UNL A   1     -26.819   0.295  26.315  0.00  0.00    -0.241 OA
ENDBRANCH   6   8
ENDBRANCH   1   3
BRANCH   1  11
ATOM     11  C   UNL A   1     -23.621   0.135  30.130  0.00  0.00    +0.145 A 
ATOM     12  C   UNL A   1     -24.084  -1.076  30.591  0.00  0.00    +0.034 A 
ATOM     13  C   UNL A   1     -25.027  -1.082  31.646  0.00  0.00    +0.003 A 
ATOM     14  C   UNL A   1     -23.823   1.310  30.847  0.00  0.00    +0.037 A 
ATOM     15  C   UNL A   1     -24.811   1.259  31.852  0.00  0.00    +0.003 A 
ATOM     16  C   UNL A   1     -25.325   0.070  32.301  0.00  0.00    +0.000 A 
BRANCH  12  17
ATOM     17  C   UNL A   1     -23.770  -2.374  29.906  0.00  0.00    -0.002 C 
ATOM     18  C   UNL A   1     -24.601  -3.148  29.205  0.00  0.00    -0.026 C 
ATOM     19  C   UNL A   1     -24.151  -4.326  28.595  0.00  0.00    +0.031 C 
ENDBRANCH  12  17
ENDBRANCH   1  11
TORSDOF 4
ENDMDL
ENDMDL
