MODEL 2406
MODEL 1
REMARK VINA RESULT:    -5.294      0.000      0.000
REMARK INTER + INTRA:          -9.774
REMARK INTER:                  -7.770
REMARK INTRA:                  -2.004
REMARK UNBOUND:                -2.004
REMARK  Name = No_2406-gen_results/8p0m/2024-11-27-11-27-31/
REMARK  8 active torsions:
REMARK  status: ('A' for Active; 'I' for Inactive)
REMARK    1  A    between atoms: C_2  and  C_11
REMARK    2  A    between atoms: C_8  and  C_9
REMARK    3  A    between atoms: C_9  and  N_17
REMARK    4  A    between atoms: N_17  and  C_18
REMARK    5  A    between atoms: C_18  and  C_19
REMARK    6  A    between atoms: C_19  and  O_20
REMARK    7  A    between atoms: O_20  and  C_21
REMARK    8  A    between atoms: C_22  and  C_23
REMARK                            x       y       z     vdW  Elec       q    Type
REMARK                         _______ _______ _______ _____ _____    ______ ____
ROOT
ATOM      1  C   UNL A   1     -23.836  -2.672  29.134  0.00  0.00    +0.009 A 
ATOM      2  C   UNL A   1     -24.698  -3.279  29.158  0.00  0.00    +0.080 A 
ATOM      3  C   UNL A   1     -24.044  -1.226  29.310  0.00  0.00    +0.027 A 
ATOM      4  C   UNL A   1     -25.333  -0.713  29.637  0.00  0.00    -0.002 A 
ATOM      5  C   UNL A   1     -26.114  -3.011  29.530  0.00  0.00    +0.007 A 
ATOM      6  C   UNL A   1     -26.348  -1.678  29.692  0.00  0.00    -0.000 A 
ATOM      7  C   UNL A   1     -25.586   0.677  29.829  0.00  0.00    -0.024 A 
ATOM      8  C   UNL A   1     -24.690   1.580  29.801  0.00  0.00    -0.006 A 
ATOM      9  C   UNL A   1     -26.558   0.828  30.970  0.00  0.00    +0.031 C 
ATOM     10  C   UNL A   1     -23.400   1.313  29.156  0.00  0.00    +0.026 A 
ATOM     11  C   UNL A   1     -23.038  -0.182  29.074  0.00  0.00    +0.140 A 
ATOM     12  F   UNL A   1     -21.903  -0.452  28.561  0.00  0.00    -0.204 F 
ENDROOT
BRANCH   2  13
ATOM     13  C   UNL A   1     -24.487  -4.867  28.894  0.00  0.00    +0.388 C 
ATOM     14  O   UNL A   1     -23.557  -5.244  28.137  0.00  0.00    -0.241 OA
ATOM     15  O   UNL A   1     -25.211  -5.629  29.532  0.00  0.00    -0.241 OA
ENDBRANCH   2  13
BRANCH   8  16
ATOM     16  C   UNL A   1     -24.998   3.014  29.783  0.00  0.00    +0.115 C 
BRANCH  16  17
ATOM     17  N   UNL A   1     -25.827   3.869  29.188  0.00  0.00    -0.209 NA
BRANCH  17  18
ATOM     18  C   UNL A   1     -25.269   4.429  28.036  0.00  0.00    +0.136 C 
BRANCH  18  19
ATOM     19  C   UNL A   1     -26.082   4.236  26.752  0.00  0.00    +0.224 C 
BRANCH  19  20
ATOM     20  O   UNL A   1     -25.648   3.243  25.985  0.00  0.00    -0.471 OA
BRANCH  20  21
ATOM     21  C   UNL A   1     -24.370   2.805  25.960  0.00  0.00    +0.168 C 
ATOM     22  C   UNL A   1     -24.232   1.411  25.685  0.00  0.00    +0.014 C 
BRANCH  22  23
ATOM     23  C   UNL A   1     -25.315   0.645  26.020  0.00  0.00    +0.029 C 
ATOM     24  C   UNL A   1     -25.467  -0.613  25.876  0.00  0.00    +0.005 C 
ENDBRANCH  22  23
ENDBRANCH  20  21
ENDBRANCH  19  20
ENDBRANCH  18  19
ENDBRANCH  17  18
ENDBRANCH  16  17
ENDBRANCH   8  16
TORSDOF 8
ENDMDL
ENDMDL
