MODEL 2407
MODEL 1
REMARK VINA RESULT:    -4.293      0.000      0.000
REMARK INTER + INTRA:          -4.293
REMARK INTER:                  -4.293
REMARK INTRA:                   0.000
REMARK UNBOUND:                 0.000
REMARK  Name = No_2407-gen_results/8p0m/2024-11-27-11-27-31/
REMARK  0 active torsions:
REMARK  status: ('A' for Active; 'I' for Inactive)
REMARK                            x       y       z     vdW  Elec       q    Type
REMARK                         _______ _______ _______ _____ _____    ______ ____
ROOT
ATOM      1  C   UNL A   1     -24.050  -4.648  28.582  0.00  0.00    +0.000 A 
ATOM      2  C   UNL A   1     -24.962  -5.326  28.996  0.00  0.00    +0.000 A 
ATOM      3  C   UNL A   1     -26.101  -4.799  29.604  0.00  0.00    +0.000 A 
ATOM      4  C   UNL A   1     -26.190  -3.367  29.815  0.00  0.00    +0.000 A 
ATOM      5  C   UNL A   1     -25.070  -2.634  29.303  0.00  0.00    +0.000 A 
ATOM      6  C   UNL A   1     -24.044  -3.224  28.765  0.00  0.00    +0.000 A 
ENDROOT
TORSDOF 0
ENDMDL
ENDMDL
