MODEL 2409
MODEL 1
REMARK VINA RESULT:    -5.926      0.000      0.000
REMARK INTER + INTRA:          -8.940
REMARK INTER:                  -7.658
REMARK INTRA:                  -1.282
REMARK UNBOUND:                -1.282
REMARK  Name = No_2409-gen_results/8p0m/2024-11-27-11-27-31/
REMARK  5 active torsions:
REMARK  status: ('A' for Active; 'I' for Inactive)
REMARK    1  A    between atoms: C_3  and  C_13
REMARK    2  A    between atoms: C_13  and  C_14
REMARK    3  A    between atoms: C_14  and  C_15
REMARK    4  A    between atoms: C_16  and  C_17
REMARK    5  A    between atoms: C_18  and  C_19
REMARK                            x       y       z     vdW  Elec       q    Type
REMARK                         _______ _______ _______ _____ _____    ______ ____
ROOT
ATOM      1  O   UNL A   1     -31.187 -10.554   7.768  0.00  0.00    -0.273 OA
ATOM      2  C   UNL A   1     -31.075 -10.637   8.912  0.00  0.00    +0.247 C 
ATOM      3  C   UNL A   1     -31.363 -10.133   9.828  0.00  0.00    +0.083 C 
ATOM      4  N   UNL A   1     -30.568 -11.983   9.233  0.00  0.00    -0.161 NA
ATOM      5  C   UNL A   1     -30.399 -12.389  10.595  0.00  0.00    +0.155 A 
ATOM      6  C   UNL A   1     -30.805 -11.537  11.579  0.00  0.00    +0.031 A 
ATOM      7  C   UNL A   1     -31.346 -10.344  11.262  0.00  0.00    +0.040 C 
ATOM      8  N   UNL A   1     -29.875 -13.601  10.860  0.00  0.00    -0.195 NA
ATOM      9  C   UNL A   1     -29.860 -13.981  12.224  0.00  0.00    +0.258 A 
ATOM     10  N   UNL A   1     -30.268 -13.251  13.182  0.00  0.00    -0.210 NA
ATOM     11  C   UNL A   1     -30.728 -12.073  12.952  0.00  0.00    +0.101 A 
ATOM     12  N   UNL A   1     -29.340 -15.215  12.521  0.00  0.00    -0.086 NA
ENDROOT
BRANCH   3  13
ATOM     13  C   UNL A   1     -32.031  -8.672   9.545  0.00  0.00    +0.014 C 
BRANCH  13  14
ATOM     14  C   UNL A   1     -31.765  -7.763  10.572  0.00  0.00    +0.026 C 
BRANCH  14  15
ATOM     15  C   UNL A   1     -30.948  -6.929  10.560  0.00  0.00    -0.026 C 
ATOM     16  C   UNL A   1     -30.135  -6.719   9.564  0.00  0.00    -0.005 C 
BRANCH  16  17
ATOM     17  C   UNL A   1     -29.106  -6.441   9.382  0.00  0.00    -0.000 C 
ATOM     18  C   UNL A   1     -27.829  -7.197   9.106  0.00  0.00    -0.000 C 
BRANCH  18  19
ATOM     19  C   UNL A   1     -28.019  -8.592   9.206  0.00  0.00    -0.000 C 
ATOM     20  C   UNL A   1     -27.036  -9.393   9.585  0.00  0.00    -0.000 C 
ENDBRANCH  18  19
ENDBRANCH  16  17
ENDBRANCH  14  15
ENDBRANCH  13  14
ENDBRANCH   3  13
TORSDOF 5
ENDMDL
ENDMDL
