MODEL 240
MODEL 1
REMARK VINA RESULT:    -5.926      0.000      0.000
REMARK INTER + INTRA:          -6.445
REMARK INTER:                  -6.273
REMARK INTRA:                  -0.172
REMARK UNBOUND:                -0.172
REMARK  Name = No_240-gen_results/8p0m/2024-11-27-11-27-31/
REMARK  1 active torsions:
REMARK  status: ('A' for Active; 'I' for Inactive)
REMARK    1  A    between atoms: C_4  and  C_11
REMARK                            x       y       z     vdW  Elec       q    Type
REMARK                         _______ _______ _______ _____ _____    ______ ____
ROOT
ATOM      1  C   UNL A   1     -24.016  -4.757  28.552  0.00  0.00    +0.000 A 
ATOM      2  C   UNL A   1     -23.875  -3.557  28.583  0.00  0.00    +0.000 A 
ATOM      3  C   UNL A   1     -24.788  -2.687  29.178  0.00  0.00    +0.004 A 
ATOM      4  C   UNL A   1     -24.701  -1.216  29.251  0.00  0.00    +0.050 A 
ATOM      5  C   UNL A   1     -25.685  -0.344  29.840  0.00  0.00    +0.004 A 
ATOM      6  C   UNL A   1     -26.688  -0.998  30.563  0.00  0.00    +0.000 A 
ATOM      7  C   UNL A   1     -25.323  -5.311  29.045  0.00  0.00    +0.000 A 
ATOM      8  C   UNL A   1     -26.239  -4.542  29.726  0.00  0.00    +0.000 A 
ATOM      9  C   UNL A   1     -26.049  -3.174  29.796  0.00  0.00    +0.000 A 
ATOM     10  C   UNL A   1     -26.941  -2.351  30.482  0.00  0.00    +0.000 A 
ENDROOT
BRANCH   4  11
ATOM     11  C   UNL A   1     -23.533  -0.503  28.641  0.00  0.00    +0.254 C 
ATOM     12 CL   UNL A   1     -22.041  -0.532  29.246  0.00  0.00    -0.038 Cl
ATOM     13  O   UNL A   1     -23.759   0.181  27.588  0.00  0.00    -0.274 OA
ENDBRANCH   4  11
TORSDOF 1
ENDMDL
ENDMDL
