REMARK  Name = outputs/IAG933/test6/raw/output_2410_IAG933_linker_design_.xyz
REMARK  10 active torsions:
REMARK  status: ('A' for Active; 'I' for Inactive)
REMARK    1  A    between atoms: C_1  and  C_2
REMARK    2  A    between atoms: C_1  and  C_8
REMARK    3  A    between atoms: C_1  and  C_34
REMARK    4  A    between atoms: C_13  and  N_42
REMARK    5  A    between atoms: C_14  and  C_15
REMARK    6  A    between atoms: C_21  and  O_22
REMARK    7  A    between atoms: O_22  and  C_23
REMARK    8  A    between atoms: C_23  and  C_24
REMARK    9  A    between atoms: C_32  and  C_36
REMARK   10  A    between atoms: C_32  and  C_41
REMARK                            x       y       z     vdW  Elec       q    Type
REMARK                         _______ _______ _______ _____ _____    ______ ____
ROOT
ATOM      1  C   UNL A   1     -22.185   1.367  26.803  0.00  0.00    +0.305 A 
ATOM      2  C   UNL A   1     -23.569   1.146  27.343  0.00  0.00    +0.129 A 
ATOM      3  O   UNL A   1     -21.304   0.850  27.688  0.00  0.00    -0.411 OA
ATOM      4  C   UNL A   1     -24.706   0.108  29.128  0.00  0.00    +0.001 A 
ATOM      5  F   UNL A   1     -21.794   2.039  25.705  0.00  0.00    -0.161 F 
ATOM      6  C   UNL A   1     -22.087   0.246  28.718  0.00  0.00    +0.238 A 
ATOM      7  C   UNL A   1     -23.427   0.409  28.476  0.00  0.00    +0.071 A 
ATOM      8  N   UNL A   1     -21.620  -0.308  29.816  0.00  0.00    -0.088 NA
ATOM      9  C   UNL A   1     -25.606   0.940  28.577  0.00  0.00    +0.039 A 
ATOM     10  N   UNL A   1     -24.957   1.271  27.395  0.00  0.00    -0.321 N 
ENDROOT
BRANCH  10  11
ATOM     11  C   UNL A   1     -25.688   1.614  26.461  0.00  0.00    +0.155 C 
ATOM     12  C   UNL A   1     -26.250   2.920  26.395  0.00  0.00    +0.076 C 
ATOM     13  C   UNL A   1     -27.438   3.091  25.645  0.00  0.00    +0.104 C 
ATOM     14  N   UNL A   1     -28.075   2.089  25.003  0.00  0.00    -0.212 NA
ATOM     15  C   UNL A   1     -27.543   0.849  25.079  0.00  0.00    +0.236 C 
ATOM     16  C   UNL A   1     -26.354   0.576  25.777  0.00  0.00    +0.261 C 
ATOM     17  F   UNL A   1     -25.860  -0.681  25.795  0.00  0.00    -0.225 F 
BRANCH  12  18
ATOM     18  C   UNL A   1     -25.642   4.093  27.123  0.00  0.00    +0.264 C 
ATOM     19  N   UNL A   1     -25.614   5.252  26.449  0.00  0.00    -0.200 NA
ATOM     20  C   UNL A   1     -25.026   6.479  26.963  0.00  0.00    +0.139 C 
ATOM     21  O   UNL A   1     -25.143   3.966  28.243  0.00  0.00    -0.269 OA
ENDBRANCH  12  18
BRANCH  15  22
ATOM     22  O   UNL A   1     -28.193  -0.208  24.477  0.00  0.00    -0.459 OA
BRANCH  22  23
ATOM     23  C   UNL A   1     -29.460   0.005  23.866  0.00  0.00    +0.242 C 
BRANCH  23  24
ATOM     24  C   UNL A   1     -30.065  -1.377  23.573  0.00  0.00    +0.229 C 
ATOM     25  O   UNL A   1     -30.729  -1.878  24.721  0.00  0.00    -0.216 OA
ENDBRANCH  23  24
ENDBRANCH  22  23
ENDBRANCH  15  22
ENDBRANCH  10  11
BRANCH   4  26
ATOM     26  C   UNL A   1     -24.855  -1.012  30.143  0.00  0.00    +0.062 C 
BRANCH  26  27
ATOM     27  C   UNL A   1     -24.973  -2.505  29.788  0.00  0.00    -0.017 C 
ATOM     28  C   UNL A   1     -23.906  -3.173  29.146  0.00  0.00    -0.004 C 
ATOM     29  C   UNL A   1     -23.989  -4.549  28.853  0.00  0.00    -0.000 C 
ATOM     30  C   UNL A   1     -25.137  -5.280  29.205  0.00  0.00    -0.000 C 
ATOM     31  C   UNL A   1     -26.232  -4.611  29.784  0.00  0.00    -0.000 C 
ATOM     32  C   UNL A   1     -26.155  -3.232  30.065  0.00  0.00    -0.004 C 
ENDBRANCH  26  27
BRANCH  26  33
ATOM     33  C   UNL A   1     -25.387  -0.679  31.571  0.00  0.00    +0.081 C 
ATOM     34  C   UNL A   1     -25.189   0.773  32.028  0.00  0.00    +0.019 C 
ATOM     35  C   UNL A   1     -25.336   0.684  33.544  0.00  0.00    +0.020 C 
ATOM     36  C   UNL A   1     -24.829  -0.715  33.905  0.00  0.00    +0.089 C 
ATOM     37  N   UNL A   1     -24.758  -1.481  32.646  0.00  0.00    -0.219 NA
ENDBRANCH  26  33
ENDBRANCH   4  26
BRANCH   9  38
ATOM     38  C   UNL A   1     -26.811   1.748  29.412  0.00  0.00    +0.105 C 
BRANCH  38  42
ATOM     39  C   UNL A   1     -28.809  -0.257  28.866  0.00  0.00    +0.204 C 
ATOM     40  O   UNL A   1     -29.368   1.607  30.389  0.00  0.00    -0.192 OA
ATOM     41  O   UNL A   1     -27.630  -0.675  29.184  0.00  0.00    -0.325 OA
ATOM     42  C   UNL A   1     -28.216   0.726  29.872  0.00  0.00    +0.252 C 
ENDBRANCH  38  42
ENDBRANCH   9  38
TORSDOF 10
