MODEL 2410
MODEL 1
REMARK VINA RESULT:    -4.910      0.000      0.000
REMARK INTER + INTRA:          -5.270
REMARK INTER:                  -5.197
REMARK INTRA:                  -0.073
REMARK UNBOUND:                -0.073
REMARK  Name = No_2410-gen_results/8p0m/2024-11-27-11-27-31/
REMARK  1 active torsions:
REMARK  status: ('A' for Active; 'I' for Inactive)
REMARK    1  A    between atoms: C_2  and  C_7
REMARK                            x       y       z     vdW  Elec       q    Type
REMARK                         _______ _______ _______ _____ _____    ______ ____
ROOT
ATOM      1  C   UNL A   1     -23.894  -3.509  28.567  0.00  0.00    -0.000 A 
ATOM      2  C   UNL A   1     -24.680  -2.670  28.943  0.00  0.00    -0.000 A 
ATOM      3  C   UNL A   1     -25.878  -3.030  29.549  0.00  0.00    -0.000 A 
ATOM      4  C   UNL A   1     -26.243  -4.415  29.706  0.00  0.00    -0.000 A 
ATOM      5  C   UNL A   1     -25.288  -5.317  29.222  0.00  0.00    -0.000 A 
ATOM      6  C   UNL A   1     -24.176  -4.926  28.641  0.00  0.00    -0.000 A 
ENDROOT
BRANCH   2   7
ATOM      7  C   UNL A   1     -24.481  -1.200  28.838  0.00  0.00    -0.005 C 
ATOM      8  C   UNL A   1     -23.666  -0.544  29.585  0.00  0.00    -0.026 C 
ATOM      9  C   UNL A   1     -23.407  -1.079  30.989  0.00  0.00    +0.031 C 
ENDBRANCH   2   7
TORSDOF 1
ENDMDL
ENDMDL
