MODEL 2411
MODEL 1
REMARK VINA RESULT:    -6.963      0.000      0.000
REMARK INTER + INTRA:         -17.529
REMARK INTER:                 -12.663
REMARK INTRA:                  -4.866
REMARK UNBOUND:                -4.866
REMARK  Name = No_2411-gen_results/8p0m/2024-11-27-11-27-31/
REMARK  14 active torsions:
REMARK  status: ('A' for Active; 'I' for Inactive)
REMARK    1  A    between atoms: C_2  and  C_27
REMARK    2  A    between atoms: C_3  and  C_4
REMARK    3  A    between atoms: C_4  and  C_8
REMARK    4  A    between atoms: C_8  and  C_9
REMARK    5  A    between atoms: C_8  and  C_13
REMARK    6  A    between atoms: C_9  and  C_10
REMARK    7  A    between atoms: C_10  and  C_11
REMARK    8  A    between atoms: C_10  and  C_12
REMARK    9  A    between atoms: C_11  and  C_19
REMARK   10  A    between atoms: C_12  and  C_14
REMARK   11  A    between atoms: C_14  and  O_16
REMARK   12  A    between atoms: O_16  and  C_31
REMARK   13  A    between atoms: C_31  and  C_32
REMARK   14  A    between atoms: C_32  and  C_33
REMARK                            x       y       z     vdW  Elec       q    Type
REMARK                         _______ _______ _______ _____ _____    ______ ____
ROOT
ATOM      1  C   UNL A   1     -26.571  -0.665  29.996  0.00  0.00    +0.046 C 
ENDROOT
BRANCH   1   2
ATOM      2  C   UNL A   1     -27.726  -0.058  29.132  0.00  0.00    +0.250 C 
ATOM      3  O   UNL A   1     -28.976  -0.061  29.787  0.00  0.00    -0.211 OA
BRANCH   2   4
ATOM      4  C   UNL A   1     -27.470   1.335  28.708  0.00  0.00    +0.348 C 
ATOM      5  O   UNL A   1     -28.047   2.166  29.268  0.00  0.00    -0.247 OA
BRANCH   4   6
ATOM      6  O   UNL A   1     -26.786   1.500  27.667  0.00  0.00    -0.447 OA
BRANCH   6   7
ATOM      7  C   UNL A   1     -27.279   0.944  26.413  0.00  0.00    +0.214 C 
BRANCH   7   8
ATOM      8  C   UNL A   1     -26.159   0.942  25.416  0.00  0.00    +0.120 C 
BRANCH   8   9
ATOM      9  C   UNL A   1     -25.300  -0.104  25.438  0.00  0.00    +0.322 C 
ATOM     10  F   UNL A   1     -24.813  -0.488  26.328  0.00  0.00    -0.198 F 
ATOM     11  F   UNL A   1     -25.928  -1.226  24.682  0.00  0.00    -0.198 F 
ENDBRANCH   8   9
ENDBRANCH   7   8
ENDBRANCH   6   7
ENDBRANCH   4   6
ENDBRANCH   2   4
ENDBRANCH   1   2
BRANCH   1  12
ATOM     12  C   UNL A   1     -26.301   0.005  31.254  0.00  0.00    +0.012 C 
BRANCH  12  13
ATOM     13  C   UNL A   1     -25.200   0.525  31.428  0.00  0.00    +0.099 C 
BRANCH  13  14
ATOM     14  C   UNL A   1     -25.129   1.798  32.191  0.00  0.00    +0.398 C 
ATOM     15  F   UNL A   1     -25.342   1.798  33.353  0.00  0.00    -0.170 F 
ATOM     16  F   UNL A   1     -26.064   2.705  31.656  0.00  0.00    -0.170 F 
ATOM     17  F   UNL A   1     -24.065   2.553  31.945  0.00  0.00    -0.170 F 
ENDBRANCH  13  14
BRANCH  13  18
ATOM     18  C   UNL A   1     -23.991  -0.078  31.136  0.00  0.00    +0.030 C 
ATOM     19  C   UNL A   1     -23.330  -0.922  32.069  0.00  0.00    +0.005 C 
BRANCH  18  22
ATOM     20  C   UNL A   1     -23.617   1.410  28.992  0.00  0.00    +0.002 A 
ATOM     21  C   UNL A   1     -23.003   1.485  28.140  0.00  0.00    +0.080 A 
ATOM     22  C   UNL A   1     -23.237   0.326  29.975  0.00  0.00    -0.022 A 
ATOM     23  C   UNL A   1     -21.704   0.882  27.812  0.00  0.00    +0.007 A 
ATOM     24  C   UNL A   1     -21.274  -0.100  28.679  0.00  0.00    -0.000 A 
ATOM     25  C   UNL A   1     -22.000  -0.395  29.804  0.00  0.00    -0.004 A 
BRANCH  21  26
ATOM     26  C   UNL A   1     -23.428   2.556  27.008  0.00  0.00    +0.388 C 
ATOM     27  O   UNL A   1     -24.096   3.518  27.270  0.00  0.00    -0.241 OA
ATOM     28  O   UNL A   1     -22.872   2.382  25.888  0.00  0.00    -0.241 OA
ENDBRANCH  21  26
ENDBRANCH  18  22
ENDBRANCH  13  18
ENDBRANCH  12  13
ENDBRANCH   1  12
BRANCH   1  29
ATOM     29  C   UNL A   1     -26.952  -2.082  30.167  0.00  0.00    +0.029 C 
BRANCH  29  30
ATOM     30  C   UNL A   1     -26.017  -3.075  29.619  0.00  0.00    -0.022 A 
ATOM     31  C   UNL A   1     -26.196  -4.388  29.692  0.00  0.00    -0.004 A 
ATOM     32  C   UNL A   1     -24.852  -2.612  28.889  0.00  0.00    -0.004 A 
ATOM     33  C   UNL A   1     -23.940  -3.531  28.388  0.00  0.00    -0.000 A 
ATOM     34  C   UNL A   1     -25.286  -5.288  29.188  0.00  0.00    -0.000 A 
ATOM     35  C   UNL A   1     -24.111  -4.832  28.564  0.00  0.00    -0.000 A 
ENDBRANCH  29  30
ENDBRANCH   1  29
TORSDOF 14
ENDMDL
ENDMDL
