MODEL 2412
MODEL 1
REMARK VINA RESULT:    -6.085      0.000      0.000
REMARK INTER + INTRA:          -7.277
REMARK INTER:                  -6.796
REMARK INTRA:                  -0.481
REMARK UNBOUND:                -0.481
REMARK  Name = No_2412-gen_results/8p0m/2024-11-27-11-27-31/
REMARK  2 active torsions:
REMARK  status: ('A' for Active; 'I' for Inactive)
REMARK    1  A    between atoms: C_3  and  C_7
REMARK    2  A    between atoms: N_8  and  C_10
REMARK                            x       y       z     vdW  Elec       q    Type
REMARK                         _______ _______ _______ _____ _____    ______ ____
ROOT
ATOM      1  C   UNL A   1     -29.828 -14.402  12.065  0.00  0.00    +0.269 C 
ATOM      2  N   UNL A   1     -29.733 -13.341  12.247  0.00  0.00    -0.175 NA
ATOM      3  O   UNL A   1     -29.186 -15.246  12.836  0.00  0.00    -0.268 OA
ENDROOT
BRANCH   1   6
ATOM      4  C   UNL A   1     -31.781 -14.974  10.503  0.00  0.00    +0.005 A 
ATOM      5  C   UNL A   1     -32.085 -15.368   9.574  0.00  0.00    +0.000 A 
ATOM      6  C   UNL A   1     -30.400 -14.977  10.799  0.00  0.00    +0.055 A 
ATOM      7  C   UNL A   1     -29.465 -15.487   9.920  0.00  0.00    +0.005 A 
ATOM      8  C   UNL A   1     -31.304 -15.961   8.471  0.00  0.00    +0.000 A 
ATOM      9  C   UNL A   1     -29.976 -15.985   8.715  0.00  0.00    +0.000 A 
ENDBRANCH   1   6
BRANCH   2  10
ATOM     10  C   UNL A   1     -30.075 -12.241  11.317  0.00  0.00    +0.074 A 
ATOM     11  C   UNL A   1     -29.103 -11.648  10.453  0.00  0.00    +0.017 A 
ATOM     12  C   UNL A   1     -29.076 -10.712  10.000  0.00  0.00    +0.001 A 
ATOM     13  C   UNL A   1     -30.216  -9.796  10.116  0.00  0.00    +0.000 A 
ATOM     14  C   UNL A   1     -31.138 -11.443  11.672  0.00  0.00    +0.017 A 
ATOM     15  C   UNL A   1     -31.218 -10.190  10.953  0.00  0.00    +0.001 A 
ENDBRANCH   2  10
TORSDOF 2
ENDMDL
ENDMDL
