REMARK  Name = No_2412-gen_results/8p0m/2024-11-27-11-27-31/
REMARK  2 active torsions:
REMARK  status: ('A' for Active; 'I' for Inactive)
REMARK    1  A    between atoms: C_3  and  C_7
REMARK    2  A    between atoms: N_8  and  C_10
REMARK                            x       y       z     vdW  Elec       q    Type
REMARK                         _______ _______ _______ _____ _____    ______ ____
ROOT
ATOM      1  C   UNL A   1     -26.388   0.291  27.233  0.00  0.00    +0.269 C 
ATOM      2  N   UNL A   1     -25.340   0.046  27.137  0.00  0.00    -0.175 NA
ATOM      3  O   UNL A   1     -26.992   0.921  26.254  0.00  0.00    -0.268 OA
ENDROOT
BRANCH   1   6
ATOM      4  C   UNL A   1     -28.016  -0.814  28.878  0.00  0.00    +0.005 A 
ATOM      5  C   UNL A   1     -28.469  -0.785  29.829  0.00  0.00    +0.000 A 
ATOM      6  C   UNL A   1     -27.136   0.236  28.535  0.00  0.00    +0.055 A 
ATOM      7  C   UNL A   1     -26.875   1.282  29.398  0.00  0.00    +0.005 A 
ATOM      8  C   UNL A   1     -28.361   0.199  30.924  0.00  0.00    +0.000 A 
ATOM      9  C   UNL A   1     -27.528   1.223  30.636  0.00  0.00    +0.000 A 
ENDBRANCH   1   6
BRANCH   2  10
ATOM     10  C   UNL A   1     -24.409  -0.334  28.224  0.00  0.00    +0.074 A 
ATOM     11  C   UNL A   1     -23.242   0.433  28.526  0.00  0.00    +0.017 A 
ATOM     12  C   UNL A   1     -22.355   0.165  29.000  0.00  0.00    +0.001 A 
ATOM     13  C   UNL A   1     -22.198  -1.171  29.585  0.00  0.00    +0.000 A 
ATOM     14  C   UNL A   1     -24.359  -1.669  28.553  0.00  0.00    +0.017 A 
ATOM     15  C   UNL A   1     -23.209  -2.053  29.342  0.00  0.00    +0.001 A 
ENDBRANCH   2  10
TORSDOF 2
