REMARK  Name = No_2413-gen_results/8p0m/2024-11-27-11-27-31/
REMARK  4 active torsions:
REMARK  status: ('A' for Active; 'I' for Inactive)
REMARK    1  A    between atoms: C_2  and  O_15
REMARK    2  A    between atoms: C_3  and  C_7
REMARK    3  A    between atoms: O_15  and  C_16
REMARK    4  A    between atoms: C_16  and  C_17
REMARK                            x       y       z     vdW  Elec       q    Type
REMARK                         _______ _______ _______ _____ _____    ______ ____
ROOT
ATOM      1  C   UNL A   1     -28.016  -0.814  28.878  0.00  0.00    +0.037 A 
ATOM      2  C   UNL A   1     -28.469  -0.785  29.829  0.00  0.00    +0.139 A 
ATOM      3  C   UNL A   1     -27.087   0.290  28.638  0.00  0.00    +0.007 A 
ATOM      4  C   UNL A   1     -26.832   1.249  29.587  0.00  0.00    +0.000 A 
ATOM      5  C   UNL A   1     -28.391   0.080  31.006  0.00  0.00    +0.037 A 
ATOM      6  C   UNL A   1     -27.494   1.152  30.784  0.00  0.00    +0.003 A 
ENDROOT
BRANCH   3   7
ATOM      7  C   UNL A   1     -26.317   0.399  27.365  0.00  0.00    +0.055 A 
ATOM      8  C   UNL A   1     -24.941   0.255  27.503  0.00  0.00    +0.142 A 
ATOM      9  C   UNL A   1     -26.913   0.586  26.140  0.00  0.00    +0.142 A 
ATOM     10  C   UNL A   1     -26.177   0.419  24.994  0.00  0.00    +0.030 A 
ATOM     11  C   UNL A   1     -24.128   0.417  26.337  0.00  0.00    +0.030 A 
ATOM     12  C   UNL A   1     -24.793   0.434  25.094  0.00  0.00    +0.005 A 
ATOM     13  F   UNL A   1     -28.213   0.472  26.051  0.00  0.00    -0.204 F 
ATOM     14  F   UNL A   1     -24.281   0.269  28.592  0.00  0.00    -0.204 F 
ENDBRANCH   3   7
BRANCH   2  15
ATOM     15  O   UNL A   1     -29.387  -1.880  30.144  0.00  0.00    -0.466 OA
BRANCH  15  16
ATOM     16  C   UNL A   1     -28.900  -3.123  30.555  0.00  0.00    +0.290 C 
BRANCH  16  17
ATOM     17  C   UNL A   1     -29.768  -4.193  30.261  0.00  0.00    +0.270 C 
ATOM     18  O   UNL A   1     -30.146  -4.479  29.220  0.00  0.00    -0.271 OA
ATOM     19  N   UNL A   1     -30.280  -4.866  31.365  0.00  0.00    -0.273 N 
ATOM     20  C   UNL A   1     -29.973  -4.541  32.798  0.00  0.00    +0.115 C 
ATOM     21  C   UNL A   1     -31.150  -6.015  31.125  0.00  0.00    +0.115 C 
ENDBRANCH  16  17
ENDBRANCH  15  16
ENDBRANCH   2  15
TORSDOF 4
