MODEL 2413
MODEL 1
REMARK VINA RESULT:    -6.877      0.000      0.000
REMARK INTER + INTRA:          -9.334
REMARK INTER:                  -8.485
REMARK INTRA:                  -0.849
REMARK UNBOUND:                -0.849
REMARK  Name = No_2413-gen_results/8p0m/2024-11-27-11-27-31/
REMARK  4 active torsions:
REMARK  status: ('A' for Active; 'I' for Inactive)
REMARK    1  A    between atoms: C_2  and  O_15
REMARK    2  A    between atoms: C_3  and  C_7
REMARK    3  A    between atoms: O_15  and  C_16
REMARK    4  A    between atoms: C_16  and  C_17
REMARK                            x       y       z     vdW  Elec       q    Type
REMARK                         _______ _______ _______ _____ _____    ______ ____
ROOT
ATOM      1  C   UNL A   1     -24.476   0.289  27.622  0.00  0.00    +0.037 A 
ATOM      2  C   UNL A   1     -23.561   0.224  28.142  0.00  0.00    +0.139 A 
ATOM      3  C   UNL A   1     -24.466   1.271  26.539  0.00  0.00    +0.007 A 
ATOM      4  C   UNL A   1     -23.350   2.011  26.235  0.00  0.00    +0.000 A 
ATOM      5  C   UNL A   1     -22.248   0.860  28.043  0.00  0.00    +0.037 A 
ATOM      6  C   UNL A   1     -22.228   1.813  26.997  0.00  0.00    +0.003 A 
ENDROOT
BRANCH   3   7
ATOM      7  C   UNL A   1     -25.655   1.478  25.662  0.00  0.00    +0.055 A 
ATOM      8  C   UNL A   1     -26.034   0.364  24.922  0.00  0.00    +0.142 A 
ATOM      9  C   UNL A   1     -26.355   2.661  25.612  0.00  0.00    +0.142 A 
ATOM     10  C   UNL A   1     -27.577   2.702  24.990  0.00  0.00    +0.030 A 
ATOM     11  C   UNL A   1     -27.123   0.505  24.005  0.00  0.00    +0.030 A 
ATOM     12  C   UNL A   1     -27.905   1.672  24.119  0.00  0.00    +0.005 A 
ATOM     13  F   UNL A   1     -26.094   3.582  26.504  0.00  0.00    -0.204 F 
ATOM     14  F   UNL A   1     -25.357  -0.701  24.752  0.00  0.00    -0.204 F 
ENDBRANCH   3   7
BRANCH   2  15
ATOM     15  O   UNL A   1     -23.496  -0.764  29.219  0.00  0.00    -0.466 OA
BRANCH  15  16
ATOM     16  C   UNL A   1     -24.589  -1.588  29.499  0.00  0.00    +0.290 C 
BRANCH  16  17
ATOM     17  C   UNL A   1     -24.365  -2.944  29.191  0.00  0.00    +0.270 C 
ATOM     18  O   UNL A   1     -23.442  -3.365  28.662  0.00  0.00    -0.271 OA
ATOM     19  N   UNL A   1     -25.426  -3.800  29.464  0.00  0.00    -0.273 N 
ATOM     20  C   UNL A   1     -26.744  -3.388  30.051  0.00  0.00    +0.115 C 
ATOM     21  C   UNL A   1     -25.239  -5.227  29.210  0.00  0.00    +0.115 C 
ENDBRANCH  16  17
ENDBRANCH  15  16
ENDBRANCH   2  15
TORSDOF 4
ENDMDL
ENDMDL
