REMARK  Name = No_2414-gen_results/8p0m/2024-11-27-11-27-31/
REMARK  4 active torsions:
REMARK  status: ('A' for Active; 'I' for Inactive)
REMARK    1  A    between atoms: C_2  and  C_8
REMARK    2  A    between atoms: C_9  and  C_14
REMARK    3  A    between atoms: C_14  and  O_16
REMARK    4  A    between atoms: O_16  and  C_17
REMARK                            x       y       z     vdW  Elec       q    Type
REMARK                         _______ _______ _______ _____ _____    ______ ____
ROOT
ATOM      1  C   UNL A   1     -25.706  -0.217  29.418  0.00  0.00    +0.006 A 
ATOM      2  C   UNL A   1     -24.933   0.521  29.751  0.00  0.00    +0.076 A 
ATOM      3  C   UNL A   1     -23.619   0.264  30.233  0.00  0.00    +0.006 A 
ATOM      4  C   UNL A   1     -23.330  -1.063  30.525  0.00  0.00    +0.000 A 
ATOM      5  C   UNL A   1     -25.302  -1.676  29.621  0.00  0.00    +0.000 A 
ATOM      6  C   UNL A   1     -24.148  -1.995  30.183  0.00  0.00    +0.000 A 
ENDROOT
BRANCH   1   8
ATOM      7  C   UNL A   1     -28.016  -0.814  28.878  0.00  0.00    +0.001 A 
ATOM      8  C   UNL A   1     -27.064  -0.119  28.608  0.00  0.00    +0.000 A 
ATOM      9  C   UNL A   1     -27.001   0.691  27.491  0.00  0.00    +0.001 A 
ATOM     10  C   UNL A   1     -28.137   0.736  26.635  0.00  0.00    +0.007 A 
ATOM     11  C   UNL A   1     -29.236   0.076  27.069  0.00  0.00    +0.035 A 
ATOM     12  C   UNL A   1     -29.218  -0.643  28.175  0.00  0.00    +0.007 A 
ATOM     13 BR   UNL A   1     -30.740   0.174  25.975  0.00  0.00    -0.049 Br
ENDBRANCH   1   8
BRANCH   2  14
ATOM     14  C   UNL A   1     -25.147   2.058  29.512  0.00  0.00    +0.346 C 
ATOM     15  O   UNL A   1     -25.296   2.894  30.491  0.00  0.00    -0.244 OA
BRANCH  14  16
ATOM     16  O   UNL A   1     -24.832   2.613  28.371  0.00  0.00    -0.418 OA
BRANCH  16  17
ATOM     17  C   UNL A   1     -23.794   2.169  27.630  0.00  0.00    +0.178 C 
ATOM     18  C   UNL A   1     -23.896   2.448  26.207  0.00  0.00    +0.015 C 
ATOM     19  C   UNL A   1     -24.951   3.107  25.811  0.00  0.00    +0.034 C 
ENDBRANCH  16  17
ENDBRANCH  14  16
ENDBRANCH   2  14
TORSDOF 4
