MODEL 2414
MODEL 1
REMARK VINA RESULT:    -6.518      0.000      0.000
REMARK INTER + INTRA:          -9.372
REMARK INTER:                  -8.042
REMARK INTRA:                  -1.330
REMARK UNBOUND:                -1.330
REMARK  Name = No_2414-gen_results/8p0m/2024-11-27-11-27-31/
REMARK  4 active torsions:
REMARK  status: ('A' for Active; 'I' for Inactive)
REMARK    1  A    between atoms: C_2  and  C_8
REMARK    2  A    between atoms: C_9  and  C_14
REMARK    3  A    between atoms: C_14  and  O_16
REMARK    4  A    between atoms: O_16  and  C_17
REMARK                            x       y       z     vdW  Elec       q    Type
REMARK                         _______ _______ _______ _____ _____    ______ ____
ROOT
ATOM      1  C   UNL A   1     -24.000  -0.267  27.941  0.00  0.00    +0.006 A 
ATOM      2  C   UNL A   1     -22.981   0.151  28.140  0.00  0.00    +0.076 A 
ATOM      3  C   UNL A   1     -22.396   1.336  27.613  0.00  0.00    +0.006 A 
ATOM      4  C   UNL A   1     -23.085   1.937  26.566  0.00  0.00    +0.000 A 
ATOM      5  C   UNL A   1     -24.792   0.499  26.884  0.00  0.00    +0.000 A 
ATOM      6  C   UNL A   1     -24.267   1.537  26.254  0.00  0.00    +0.000 A 
ENDROOT
BRANCH   1   8
ATOM      7  C   UNL A   1     -24.635  -2.548  28.559  0.00  0.00    +0.001 A 
ATOM      8  C   UNL A   1     -24.905  -1.371  28.629  0.00  0.00    +0.000 A 
ATOM      9  C   UNL A   1     -26.087  -0.888  29.155  0.00  0.00    +0.001 A 
ATOM     10  C   UNL A   1     -27.018  -1.829  29.678  0.00  0.00    +0.007 A 
ATOM     11  C   UNL A   1     -26.598  -3.114  29.733  0.00  0.00    +0.035 A 
ATOM     12  C   UNL A   1     -25.430  -3.481  29.240  0.00  0.00    +0.007 A 
ATOM     13 BR   UNL A   1     -27.795  -4.341  30.462  0.00  0.00    -0.049 Br
ENDBRANCH   1   8
BRANCH   2  14
ATOM     14  C   UNL A   1     -22.081  -0.455  29.275  0.00  0.00    +0.346 C 
ATOM     15  O   UNL A   1     -20.964  -1.060  29.021  0.00  0.00    -0.244 OA
BRANCH  14  16
ATOM     16  O   UNL A   1     -22.219  -0.077  30.519  0.00  0.00    -0.418 OA
BRANCH  16  17
ATOM     17  C   UNL A   1     -22.795  -0.876  31.443  0.00  0.00    +0.178 C 
ATOM     18  C   UNL A   1     -23.962  -0.310  32.098  0.00  0.00    +0.015 C 
ATOM     19  C   UNL A   1     -24.335   0.880  31.711  0.00  0.00    +0.034 C 
ENDBRANCH  16  17
ENDBRANCH  14  16
ENDBRANCH   2  14
TORSDOF 4
ENDMDL
ENDMDL
