REMARK  Name = No_2415-gen_results/8p0m/2024-11-27-11-27-31/
REMARK  5 active torsions:
REMARK  status: ('A' for Active; 'I' for Inactive)
REMARK    1  A    between atoms: C_2  and  C_7
REMARK    2  A    between atoms: C_5  and  C_22
REMARK    3  A    between atoms: C_7  and  C_8
REMARK    4  A    between atoms: C_8  and  C_9
REMARK    5  A    between atoms: C_8  and  C_15
REMARK                            x       y       z     vdW  Elec       q    Type
REMARK                         _______ _______ _______ _____ _____    ______ ____
ROOT
ATOM      1  C   UNL A   1     -24.718  -1.061  28.613  0.00  0.00    +0.108 C 
ENDROOT
BRANCH   1   2
ATOM      2  C   UNL A   1     -24.915  -2.211  29.422  0.00  0.00    +0.016 A 
ATOM      3  C   UNL A   1     -25.578  -2.235  30.604  0.00  0.00    -0.001 A 
ATOM      4  C   UNL A   1     -24.509  -3.430  28.883  0.00  0.00    +0.137 A 
ATOM      5  F   UNL A   1     -23.596  -3.573  28.054  0.00  0.00    -0.204 F 
ATOM      6  C   UNL A   1     -25.334  -4.591  29.144  0.00  0.00    +0.029 A 
ATOM      7  C   UNL A   1     -26.380  -4.488  30.098  0.00  0.00    +0.002 A 
ATOM      8  C   UNL A   1     -26.539  -3.273  30.795  0.00  0.00    -0.000 A 
ENDBRANCH   1   2
BRANCH   1   9
ATOM      9  C   UNL A   1     -23.595  -0.283  28.812  0.00  0.00    -0.011 A 
ATOM     10  C   UNL A   1     -23.436   1.061  28.295  0.00  0.00    -0.004 A 
ATOM     11  C   UNL A   1     -22.171   1.692  28.375  0.00  0.00    -0.000 A 
ATOM     12  C   UNL A   1     -21.079   0.914  28.691  0.00  0.00    -0.000 A 
ATOM     13  C   UNL A   1     -21.140  -0.406  29.091  0.00  0.00    -0.000 A 
ATOM     14  C   UNL A   1     -22.425  -1.008  29.117  0.00  0.00    -0.004 A 
ENDBRANCH   1   9
BRANCH   1  15
ATOM     15  C   UNL A   1     -25.891  -0.626  27.786  0.00  0.00    +0.181 C 
ATOM     16  O   UNL A   1     -25.691  -0.207  26.635  0.00  0.00    -0.291 OA
BRANCH  15  18
ATOM     17  C   UNL A   1     -28.016  -0.814  28.878  0.00  0.00    +0.009 A 
ATOM     18  C   UNL A   1     -27.064  -0.119  28.608  0.00  0.00    +0.036 A 
ATOM     19  C   UNL A   1     -26.929   1.171  29.008  0.00  0.00    +0.003 A 
ATOM     20  C   UNL A   1     -27.956   1.741  29.784  0.00  0.00    +0.000 A 
ATOM     21  C   UNL A   1     -29.057  -0.327  29.747  0.00  0.00    +0.080 A 
ATOM     22  C   UNL A   1     -28.983   0.972  30.152  0.00  0.00    +0.007 A 
BRANCH  21  23
ATOM     23  C   UNL A   1     -30.207  -1.178  30.149  0.00  0.00    +0.388 C 
ATOM     24  O   UNL A   1     -30.996  -1.542  29.341  0.00  0.00    -0.241 OA
ATOM     25  O   UNL A   1     -30.515  -1.178  31.414  0.00  0.00    -0.241 OA
ENDBRANCH  21  23
ENDBRANCH  15  18
ENDBRANCH   1  15
TORSDOF 5
