MODEL 2415
MODEL 1
REMARK VINA RESULT:    -8.278      0.000      0.000
REMARK INTER + INTRA:         -12.721
REMARK INTER:                 -10.698
REMARK INTRA:                  -2.024
REMARK UNBOUND:                -2.024
REMARK  Name = No_2415-gen_results/8p0m/2024-11-27-11-27-31/
REMARK  5 active torsions:
REMARK  status: ('A' for Active; 'I' for Inactive)
REMARK    1  A    between atoms: C_2  and  C_7
REMARK    2  A    between atoms: C_5  and  C_22
REMARK    3  A    between atoms: C_7  and  C_8
REMARK    4  A    between atoms: C_8  and  C_9
REMARK    5  A    between atoms: C_8  and  C_15
REMARK                            x       y       z     vdW  Elec       q    Type
REMARK                         _______ _______ _______ _____ _____    ______ ____
ROOT
ATOM      1  C   UNL A   1     -23.819  -1.319  29.903  0.00  0.00    +0.108 C 
ENDROOT
BRANCH   1   2
ATOM      2  C   UNL A   1     -24.030  -0.495  31.040  0.00  0.00    +0.016 A 
ATOM      3  C   UNL A   1     -24.838   0.593  31.083  0.00  0.00    -0.001 A 
ATOM      4  C   UNL A   1     -23.463  -0.927  32.237  0.00  0.00    +0.137 A 
ATOM      5  F   UNL A   1     -22.441  -1.626  32.330  0.00  0.00    -0.204 F 
ATOM      6  C   UNL A   1     -24.221  -0.725  33.454  0.00  0.00    +0.029 A 
ATOM      7  C   UNL A   1     -25.388   0.082  33.409  0.00  0.00    +0.002 A 
ATOM      8  C   UNL A   1     -25.731   0.702  32.191  0.00  0.00    -0.000 A 
ENDBRANCH   1   2
BRANCH   1   9
ATOM      9  C   UNL A   1     -24.404  -2.569  29.861  0.00  0.00    -0.011 A 
ATOM     10  C   UNL A   1     -23.894  -3.678  29.082  0.00  0.00    -0.004 A 
ATOM     11  C   UNL A   1     -24.678  -4.849  28.941  0.00  0.00    -0.000 A 
ATOM     12  C   UNL A   1     -26.002  -4.790  29.320  0.00  0.00    -0.000 A 
ATOM     13  C   UNL A   1     -26.589  -3.724  29.973  0.00  0.00    -0.000 A 
ATOM     14  C   UNL A   1     -25.769  -2.591  30.213  0.00  0.00    -0.004 A 
ENDBRANCH   1   9
BRANCH   1  15
ATOM     15  C   UNL A   1     -22.748  -0.873  28.953  0.00  0.00    +0.181 C 
ATOM     16  O   UNL A   1     -21.567  -0.881  29.335  0.00  0.00    -0.291 OA
BRANCH  15  18
ATOM     17  C   UNL A   1     -24.250  -0.021  27.292  0.00  0.00    +0.009 A 
ATOM     18  C   UNL A   1     -23.228   0.132  27.919  0.00  0.00    +0.036 A 
ATOM     19  C   UNL A   1     -22.406   1.204  27.783  0.00  0.00    +0.003 A 
ATOM     20  C   UNL A   1     -22.760   2.203  26.856  0.00  0.00    +0.000 A 
ATOM     21  C   UNL A   1     -24.721   1.006  26.397  0.00  0.00    +0.080 A 
ATOM     22  C   UNL A   1     -23.918   2.090  26.203  0.00  0.00    +0.007 A 
BRANCH  21  23
ATOM     23  C   UNL A   1     -26.006   0.877  25.661  0.00  0.00    +0.388 C 
ATOM     24  O   UNL A   1     -27.039   0.957  26.237  0.00  0.00    -0.241 OA
ATOM     25  O   UNL A   1     -25.949   0.310  24.490  0.00  0.00    -0.241 OA
ENDBRANCH  21  23
ENDBRANCH  15  18
ENDBRANCH   1  15
TORSDOF 5
ENDMDL
ENDMDL
