REMARK  Name = No_2416-gen_results/8p0m/2024-11-27-11-27-31/
REMARK  4 active torsions:
REMARK  status: ('A' for Active; 'I' for Inactive)
REMARK    1  A    between atoms: C_1  and  C_2
REMARK    2  A    between atoms: C_1  and  N_8
REMARK    3  A    between atoms: C_5  and  C_16
REMARK    4  A    between atoms: C_9  and  C_10
REMARK                            x       y       z     vdW  Elec       q    Type
REMARK                         _______ _______ _______ _____ _____    ______ ____
ROOT
ATOM      1  C   UNL A   1     -28.016  -0.814  28.878  0.00  0.00    +0.152 C 
ENDROOT
BRANCH   1   2
ATOM      2  C   UNL A   1     -27.064  -0.119  28.608  0.00  0.00    +0.002 A 
ATOM      3  C   UNL A   1     -26.929   1.171  29.008  0.00  0.00    -0.002 A 
ATOM      4  C   UNL A   1     -25.770   2.034  28.688  0.00  0.00    +0.001 A 
ATOM      5  C   UNL A   1     -24.714   1.443  27.919  0.00  0.00    +0.015 A 
ATOM      6  C   UNL A   1     -24.859   0.078  27.584  0.00  0.00    +0.001 A 
ATOM      7  C   UNL A   1     -25.965  -0.661  27.916  0.00  0.00    -0.002 A 
BRANCH   5   8
ATOM      8  C   UNL A   1     -23.527   2.141  27.564  0.00  0.00    +0.081 C 
ATOM      9  N   UNL A   1     -22.398   2.199  27.984  0.00  0.00    -0.153 NA
ATOM     10  C   UNL A   1     -23.722   2.847  26.209  0.00  0.00    +0.054 C 
ENDBRANCH   5   8
ENDBRANCH   1   2
BRANCH   1  11
ATOM     11  N   UNL A   1     -28.700  -0.644  30.077  0.00  0.00    -0.264 NA
ATOM     12  C   UNL A   1     -29.472  -1.116  30.697  0.00  0.00    +0.093 C 
BRANCH  12  13
ATOM     13  C   UNL A   1     -30.067  -2.359  30.242  0.00  0.00    +0.019 A 
ATOM     14  C   UNL A   1     -30.268  -3.338  31.114  0.00  0.00    +0.002 A 
ATOM     15  C   UNL A   1     -30.640  -4.632  30.606  0.00  0.00    +0.000 A 
ATOM     16  C   UNL A   1     -30.952  -4.796  29.285  0.00  0.00    +0.000 A 
ATOM     17  C   UNL A   1     -30.941  -3.694  28.487  0.00  0.00    +0.000 A 
ATOM     18  C   UNL A   1     -30.436  -2.484  28.954  0.00  0.00    +0.002 A 
ENDBRANCH  12  13
ENDBRANCH   1  11
TORSDOF 4
