MODEL 2417
MODEL 1
REMARK VINA RESULT:    -7.392      0.000      0.000
REMARK INTER + INTRA:         -12.899
REMARK INTER:                 -10.418
REMARK INTRA:                  -2.482
REMARK UNBOUND:                -2.482
REMARK  Name = No_2417-gen_results/8p0m/2024-11-27-11-27-31/
REMARK  7 active torsions:
REMARK  status: ('A' for Active; 'I' for Inactive)
REMARK    1  A    between atoms: C_4  and  C_14
REMARK    2  A    between atoms: C_5  and  C_11
REMARK    3  A    between atoms: C_9  and  C_19
REMARK    4  A    between atoms: N_16  and  C_17
REMARK    5  A    between atoms: N_16  and  C_18
REMARK    6  A    between atoms: C_17  and  C_22
REMARK    7  A    between atoms: C_17  and  C_26
REMARK                            x       y       z     vdW  Elec       q    Type
REMARK                         _______ _______ _______ _____ _____    ______ ____
ROOT
ATOM      1  C   UNL A   1     -25.539   0.378  26.029  0.00  0.00    +0.253 C 
ATOM      2  O   UNL A   1     -25.376   0.087  24.805  0.00  0.00    -0.270 OA
ATOM      3  N   UNL A   1     -26.638   1.104  26.336  0.00  0.00    -0.244 N 
ENDROOT
BRANCH   1   7
ATOM      4  C   UNL A   1     -22.941  -1.480  29.722  0.00  0.00    +0.000 A 
ATOM      5  C   UNL A   1     -23.188  -0.645  28.883  0.00  0.00    +0.000 A 
ATOM      6  C   UNL A   1     -24.171  -0.636  28.029  0.00  0.00    +0.004 A 
ATOM      7  C   UNL A   1     -24.443   0.413  27.016  0.00  0.00    +0.051 A 
ATOM      8  C   UNL A   1     -23.567   1.535  27.016  0.00  0.00    -0.003 A 
ATOM      9  C   UNL A   1     -22.566   1.558  27.953  0.00  0.00    -0.003 A 
ATOM     10  C   UNL A   1     -22.360   0.586  28.872  0.00  0.00    -0.000 A 
ATOM     11  C   UNL A   1     -24.180  -2.115  30.350  0.00  0.00    +0.007 A 
ATOM     12  C   UNL A   1     -25.132  -2.536  29.449  0.00  0.00    +0.080 A 
ATOM     13  C   UNL A   1     -25.358  -1.494  28.376  0.00  0.00    +0.007 A 
BRANCH   8  14
ATOM     14  C   UNL A   1     -23.632   2.577  26.014  0.00  0.00    +0.102 C 
ATOM     15 CL   UNL A   1     -24.296   3.735  25.878  0.00  0.00    -0.110 Cl
ATOM     16  C   UNL A   1     -22.604   2.278  24.901  0.00  0.00    +0.022 C 
ENDBRANCH   8  14
BRANCH  12  17
ATOM     17  C   UNL A   1     -26.011  -3.614  29.535  0.00  0.00    +0.388 C 
ATOM     18  O   UNL A   1     -27.112  -3.431  29.743  0.00  0.00    -0.241 OA
ATOM     19  O   UNL A   1     -25.494  -4.782  29.321  0.00  0.00    -0.241 OA
ENDBRANCH  12  17
ENDBRANCH   1   7
BRANCH   3  20
ATOM     20  C   UNL A   1     -26.908   1.698  27.633  0.00  0.00    +0.054 A 
ATOM     21  C   UNL A   1     -26.832   3.143  27.633  0.00  0.00    +0.015 A 
ATOM     22  C   UNL A   1     -26.662   3.696  28.886  0.00  0.00    +0.001 A 
ATOM     23  C   UNL A   1     -26.327   2.974  29.929  0.00  0.00    +0.000 A 
ATOM     24  C   UNL A   1     -26.231   1.495  29.846  0.00  0.00    +0.001 A 
ATOM     25  C   UNL A   1     -27.603   1.012  28.554  0.00  0.00    +0.015 A 
ENDBRANCH   3  20
BRANCH   3  26
ATOM     26  C   UNL A   1     -27.769   1.224  25.385  0.00  0.00    +0.242 C 
BRANCH  26  27
ATOM     27  C   UNL A   1     -27.788   2.377  24.557  0.00  0.00    +0.420 C 
ATOM     28  F   UNL A   1     -26.774   2.986  24.584  0.00  0.00    -0.168 F 
ATOM     29  F   UNL A   1     -28.026   1.976  23.279  0.00  0.00    -0.168 F 
ATOM     30  F   UNL A   1     -28.788   3.202  24.957  0.00  0.00    -0.168 F 
ENDBRANCH  26  27
BRANCH  26  31
ATOM     31  C   UNL A   1     -28.716   0.129  25.353  0.00  0.00    +0.345 C 
ATOM     32  F   UNL A   1     -29.650   0.060  26.134  0.00  0.00    -0.196 F 
ATOM     33  F   UNL A   1     -28.551  -0.682  24.418  0.00  0.00    -0.196 F 
ENDBRANCH  26  31
ENDBRANCH   3  26
TORSDOF 7
ENDMDL
ENDMDL
