REMARK  Name = outputs/IAG933/test6/raw/output_2418_IAG933_linker_design_.xyz
REMARK  15 active torsions:
REMARK  status: ('A' for Active; 'I' for Inactive)
REMARK    1  A    between atoms: C_1  and  C_2
REMARK    2  A    between atoms: C_1  and  C_8
REMARK    3  A    between atoms: C_1  and  C_32
REMARK    4  A    between atoms: C_13  and  N_37
REMARK    5  A    between atoms: C_14  and  C_15
REMARK    6  A    between atoms: C_21  and  O_22
REMARK    7  A    between atoms: O_22  and  C_23
REMARK    8  A    between atoms: C_23  and  C_24
REMARK    9  A    between atoms: C_29  and  C_43
REMARK   10  A    between atoms: C_29  and  C_46
REMARK   11  A    between atoms: C_31  and  C_42
REMARK   12  A    between atoms: C_31  and  C_43
REMARK   13  A    between atoms: C_32  and  C_38
REMARK   14  A    between atoms: C_32  and  C_44
REMARK   15  A    between atoms: C_36  and  N_45
REMARK                            x       y       z     vdW  Elec       q    Type
REMARK                         _______ _______ _______ _____ _____    ______ ____
ROOT
ATOM      1  C   UNL A   1     -25.339   0.013  29.122  0.00  0.00    +0.114 C 
ENDROOT
BRANCH   1   5
ATOM      2  C   UNL A   1     -20.976   1.674  27.469  0.00  0.00    +0.043 C 
ATOM      3  O   UNL A   1     -22.338   0.104  29.454  0.00  0.00    -0.291 OA
ATOM      4  N   UNL A   1     -24.586   1.383  27.267  0.00  0.00    -0.230 N 
ATOM      5  C   UNL A   1     -24.412   0.709  28.372  0.00  0.00    +0.178 C 
ATOM      6  C   UNL A   1     -22.363   1.541  27.543  0.00  0.00    +0.203 C 
ATOM      7  O   UNL A   1     -23.472   1.972  26.764  0.00  0.00    -0.252 OA
ATOM      8  C   UNL A   1     -22.984   0.713  28.557  0.00  0.00    +0.203 C 
BRANCH   4   9
ATOM      9  C   UNL A   1     -25.688   1.614  26.461  0.00  0.00    +0.120 C 
ATOM     10  C   UNL A   1     -26.250   2.920  26.395  0.00  0.00    +0.094 C 
ATOM     11  C   UNL A   1     -27.438   3.091  25.645  0.00  0.00    +0.108 C 
ATOM     12  N   UNL A   1     -28.075   2.089  25.003  0.00  0.00    -0.208 NA
ATOM     13  C   UNL A   1     -27.543   0.849  25.079  0.00  0.00    +0.255 C 
ATOM     14  C   UNL A   1     -26.354   0.576  25.777  0.00  0.00    +0.211 C 
ATOM     15  F   UNL A   1     -25.860  -0.681  25.795  0.00  0.00    -0.198 F 
BRANCH  10  16
ATOM     16  C   UNL A   1     -25.642   4.093  27.123  0.00  0.00    +0.268 C 
ATOM     17  N   UNL A   1     -25.614   5.252  26.449  0.00  0.00    -0.200 NA
ATOM     18  C   UNL A   1     -25.026   6.479  26.963  0.00  0.00    +0.139 C 
ATOM     19  O   UNL A   1     -25.143   3.966  28.243  0.00  0.00    -0.268 OA
ENDBRANCH  10  16
BRANCH  13  20
ATOM     20  O   UNL A   1     -28.193  -0.208  24.477  0.00  0.00    -0.456 OA
BRANCH  20  21
ATOM     21  C   UNL A   1     -29.460   0.005  23.866  0.00  0.00    +0.243 C 
BRANCH  21  22
ATOM     22  C   UNL A   1     -30.065  -1.377  23.573  0.00  0.00    +0.229 C 
ATOM     23  O   UNL A   1     -30.729  -1.878  24.721  0.00  0.00    -0.216 OA
ENDBRANCH  21  22
ENDBRANCH  20  21
ENDBRANCH  13  20
ENDBRANCH   4   9
ENDBRANCH   1   5
BRANCH   1  25
ATOM     24  O   UNL A   1     -27.316   1.300  29.304  0.00  0.00    -0.273 OA
ATOM     25  C   UNL A   1     -26.799   0.454  28.802  0.00  0.00    +0.248 C 
ATOM     26  N   UNL A   1     -27.634  -0.429  28.313  0.00  0.00    -0.178 NA
BRANCH  26  27
ATOM     27  C   UNL A   1     -28.764  -0.884  29.005  0.00  0.00    +0.092 C 
ATOM     28  C   UNL A   1     -30.005   0.016  28.944  0.00  0.00    +0.055 C 
BRANCH  28  29
ATOM     29  C   UNL A   1     -30.448   1.194  28.398  0.00  0.00    +0.174 C 
ATOM     30  O   UNL A   1     -30.548   1.283  27.133  0.00  0.00    -0.291 OA
BRANCH  29  31
ATOM     31  C   UNL A   1     -30.753   2.441  29.219  0.00  0.00    +0.071 C 
BRANCH  31  32
ATOM     32  C   UNL A   1     -30.555   3.773  28.476  0.00  0.00    +0.029 C 
BRANCH  32  34
ATOM     33  N   UNL A   1     -32.521   5.497  28.689  0.00  0.00    -0.131 NA
ATOM     34  C   UNL A   1     -31.393   4.891  29.059  0.00  0.00    +0.110 C 
ENDBRANCH  32  34
ENDBRANCH  31  32
ENDBRANCH  29  31
ENDBRANCH  28  29
ENDBRANCH  26  27
ENDBRANCH   1  25
BRANCH   1  35
ATOM     35  C   UNL A   1     -24.855  -1.012  30.143  0.00  0.00    +0.049 C 
BRANCH  35  36
ATOM     36  C   UNL A   1     -24.973  -2.505  29.788  0.00  0.00    -0.021 C 
ATOM     37  C   UNL A   1     -23.906  -3.173  29.146  0.00  0.00    -0.004 C 
ATOM     38  C   UNL A   1     -23.989  -4.549  28.853  0.00  0.00    -0.000 C 
ATOM     39  C   UNL A   1     -25.137  -5.280  29.205  0.00  0.00    -0.000 C 
ATOM     40  C   UNL A   1     -26.232  -4.611  29.784  0.00  0.00    -0.000 C 
ATOM     41  C   UNL A   1     -26.155  -3.232  30.065  0.00  0.00    -0.004 C 
ENDBRANCH  35  36
BRANCH  35  42
ATOM     42  C   UNL A   1     -25.387  -0.679  31.571  0.00  0.00    +0.077 C 
ATOM     43  C   UNL A   1     -25.189   0.773  32.028  0.00  0.00    +0.019 C 
ATOM     44  C   UNL A   1     -25.336   0.684  33.544  0.00  0.00    +0.020 C 
ATOM     45  C   UNL A   1     -24.829  -0.715  33.905  0.00  0.00    +0.089 C 
ATOM     46  N   UNL A   1     -24.758  -1.481  32.646  0.00  0.00    -0.219 NA
ENDBRANCH  35  42
ENDBRANCH   1  35
TORSDOF 15
