MODEL 2418
MODEL 1
REMARK VINA RESULT:    -6.096      0.000      0.000
REMARK INTER + INTRA:          -6.520
REMARK INTER:                  -6.452
REMARK INTRA:                  -0.068
REMARK UNBOUND:                -0.068
REMARK  Name = No_2418-gen_results/8p0m/2024-11-27-11-27-31/
REMARK  1 active torsions:
REMARK  status: ('A' for Active; 'I' for Inactive)
REMARK    1  A    between atoms: C_5  and  C_11
REMARK                            x       y       z     vdW  Elec       q    Type
REMARK                         _______ _______ _______ _____ _____    ______ ____
ROOT
ATOM      1  C   UNL A   1     -30.836  -9.584  29.722  0.00  0.00    +0.099 A 
ATOM      2  C   UNL A   1     -30.105 -10.174  30.483  0.00  0.00    +0.019 A 
ATOM      3  C   UNL A   1     -29.231 -11.154  30.025  0.00  0.00    +0.003 A 
ATOM      4  C   UNL A   1     -28.292 -11.956  30.860  0.00  0.00    +0.005 A 
ATOM      5  C   UNL A   1     -28.183 -11.565  32.227  0.00  0.00    +0.057 A 
ATOM      6  C   UNL A   1     -29.036 -10.529  32.658  0.00  0.00    +0.005 A 
ATOM      7  C   UNL A   1     -29.901  -9.878  31.866  0.00  0.00    +0.002 A 
ATOM      8  N   UNL A   1     -31.085 -10.084  28.420  0.00  0.00    -0.242 NA
ATOM      9  C   UNL A   1     -30.186 -10.972  27.854  0.00  0.00    +0.099 A 
ATOM     10  C   UNL A   1     -29.267 -11.631  28.651  0.00  0.00    +0.021 A 
ENDROOT
BRANCH   5  11
ATOM     11  C   UNL A   1     -27.239 -12.279  33.090  0.00  0.00    +0.284 C 
ATOM     12  N   UNL A   1     -27.276 -12.065  34.372  0.00  0.00    -0.084 NA
ATOM     13  O   UNL A   1     -26.385 -13.033  32.536  0.00  0.00    -0.267 OA
ENDBRANCH   5  11
TORSDOF 1
ENDMDL
ENDMDL
