MODEL 2419
MODEL 1
REMARK VINA RESULT:    -7.265      0.000      0.000
REMARK INTER + INTRA:          -9.561
REMARK INTER:                  -8.539
REMARK INTRA:                  -1.022
REMARK UNBOUND:                -1.022
REMARK  Name = No_2419-gen_results/8p0m/2024-11-27-11-27-31/
REMARK  3 active torsions:
REMARK  status: ('A' for Active; 'I' for Inactive)
REMARK    1  A    between atoms: C_4  and  C_8
REMARK    2  A    between atoms: C_12  and  C_13
REMARK    3  A    between atoms: C_16  and  C_18
REMARK                            x       y       z     vdW  Elec       q    Type
REMARK                         _______ _______ _______ _____ _____    ______ ____
ROOT
ATOM      1  C   UNL A   1     -23.537   1.041  27.325  0.00  0.00    -0.015 C 
ATOM      2  C   UNL A   1     -22.588   1.515  27.298  0.00  0.00    -0.004 C 
ATOM      3  C   UNL A   1     -21.504   1.100  27.791  0.00  0.00    -0.004 C 
ATOM      4  C   UNL A   1     -21.617   0.156  28.822  0.00  0.00    -0.018 C 
ATOM      5  C   UNL A   1     -23.453  -0.125  28.278  0.00  0.00    +0.064 C 
ENDROOT
BRANCH   1   9
ATOM      6  C   UNL A   1     -26.721   2.315  25.541  0.00  0.00    +0.007 A 
ATOM      7  C   UNL A   1     -26.870   1.462  24.942  0.00  0.00    +0.035 A 
ATOM      8  C   UNL A   1     -25.549   2.243  26.495  0.00  0.00    +0.000 A 
ATOM      9  C   UNL A   1     -24.669   1.143  26.426  0.00  0.00    -0.003 A 
ATOM     10  C   UNL A   1     -26.102   0.229  24.657  0.00  0.00    +0.007 A 
ATOM     11  C   UNL A   1     -25.012   0.130  25.511  0.00  0.00    +0.000 A 
ATOM     12 BR   UNL A   1     -28.408   1.553  23.677  0.00  0.00    -0.049 Br
ENDBRANCH   1   9
BRANCH   5  13
ATOM     13  C   UNL A   1     -24.015  -0.984  28.991  0.00  0.00    -0.012 C 
ATOM     14  C   UNL A   1     -24.776  -0.838  30.069  0.00  0.00    +0.090 C 
ATOM     15  N   UNL A   1     -25.321  -1.995  30.641  0.00  0.00    -0.253 NA
ATOM     16  C   UNL A   1     -25.409  -3.106  29.903  0.00  0.00    +0.041 C 
ATOM     17  C   UNL A   1     -24.280  -2.407  28.560  0.00  0.00    +0.065 C 
BRANCH  16  18
ATOM     18  C   UNL A   1     -24.911  -3.492  28.802  0.00  0.00    +0.042 C 
ATOM     19  C   UNL A   1     -24.097  -4.488  28.582  0.00  0.00    +0.006 C 
ENDBRANCH  16  18
ENDBRANCH   5  13
TORSDOF 3
ENDMDL
ENDMDL
