REMARK  Name = No_2419-gen_results/8p0m/2024-11-27-11-27-31/
REMARK  3 active torsions:
REMARK  status: ('A' for Active; 'I' for Inactive)
REMARK    1  A    between atoms: C_4  and  C_8
REMARK    2  A    between atoms: C_12  and  C_13
REMARK    3  A    between atoms: C_16  and  C_18
REMARK                            x       y       z     vdW  Elec       q    Type
REMARK                         _______ _______ _______ _____ _____    ______ ____
ROOT
ATOM      1  C   UNL A   1     -24.362  -0.820  30.139  0.00  0.00    -0.015 C 
ATOM      2  C   UNL A   1     -23.676  -1.286  30.801  0.00  0.00    -0.004 C 
ATOM      3  C   UNL A   1     -22.509  -0.908  31.095  0.00  0.00    -0.004 C 
ATOM      4  C   UNL A   1     -21.888  -0.051  30.175  0.00  0.00    -0.018 C 
ATOM      5  C   UNL A   1     -23.629   0.266  29.391  0.00  0.00    +0.064 C 
ENDROOT
BRANCH   1   9
ATOM      6  C   UNL A   1     -28.016  -0.814  28.878  0.00  0.00    +0.007 A 
ATOM      7  C   UNL A   1     -28.469  -0.785  29.829  0.00  0.00    +0.035 A 
ATOM      8  C   UNL A   1     -26.504  -0.778  28.877  0.00  0.00    +0.000 A 
ATOM      9  C   UNL A   1     -25.810  -0.853  30.103  0.00  0.00    -0.003 A 
ATOM     10  C   UNL A   1     -27.991  -0.892  31.226  0.00  0.00    +0.007 A 
ATOM     11  C   UNL A   1     -26.604  -0.868  31.265  0.00  0.00    +0.000 A 
ATOM     12 BR   UNL A   1     -30.462  -0.840  29.838  0.00  0.00    -0.049 Br
ENDBRANCH   1   9
BRANCH   5  13
ATOM     13  C   UNL A   1     -23.561   1.062  28.430  0.00  0.00    -0.012 C 
ATOM     14  C   UNL A   1     -22.502   1.548  27.793  0.00  0.00    +0.090 C 
ATOM     15  N   UNL A   1     -22.734   2.397  26.703  0.00  0.00    -0.253 NA
ATOM     16  C   UNL A   1     -23.926   2.371  26.100  0.00  0.00    +0.041 C 
ATOM     17  C   UNL A   1     -24.709   1.373  27.499  0.00  0.00    +0.065 C 
BRANCH  16  18
ATOM     18  C   UNL A   1     -25.067   1.898  26.390  0.00  0.00    +0.042 C 
ATOM     19  C   UNL A   1     -26.209   2.104  25.794  0.00  0.00    +0.006 C 
ENDBRANCH  16  18
ENDBRANCH   5  13
TORSDOF 3
