MODEL 241
MODEL 1
REMARK VINA RESULT:    -5.928      0.000      0.000
REMARK INTER + INTRA:          -7.898
REMARK INTER:                  -7.315
REMARK INTRA:                  -0.584
REMARK UNBOUND:                -0.584
REMARK  Name = No_241-gen_results/8p0m/2024-11-27-11-27-31/
REMARK  4 active torsions:
REMARK  status: ('A' for Active; 'I' for Inactive)
REMARK    1  A    between atoms: C_1  and  C_8
REMARK    2  A    between atoms: C_5  and  C_10
REMARK    3  A    between atoms: C_8  and  N_9
REMARK    4  A    between atoms: N_9  and  C_13
REMARK                            x       y       z     vdW  Elec       q    Type
REMARK                         _______ _______ _______ _____ _____    ______ ____
ROOT
ATOM      1  C   UNL A   1     -10.845   1.705  36.439  0.00  0.00    -0.013 C 
ATOM      2  C   UNL A   1     -11.965   2.152  36.352  0.00  0.00    -0.047 C 
ATOM      3  C   UNL A   1     -12.622   2.457  35.270  0.00  0.00    +0.022 C 
ATOM      4  C   UNL A   1     -14.002   3.000  35.205  0.00  0.00    +0.016 C 
ATOM      5  C   UNL A   1     -14.679   3.156  36.447  0.00  0.00    +0.104 C 
ATOM      6  C   UNL A   1     -14.013   2.780  37.585  0.00  0.00    +0.016 C 
ATOM      7  C   UNL A   1     -12.806   2.349  37.523  0.00  0.00    +0.022 C 
ENDROOT
BRANCH   5   8
ATOM      8  C   UNL A   1     -16.036   3.687  36.501  0.00  0.00    +0.364 C 
ATOM      9  O   UNL A   1     -16.621   3.989  37.415  0.00  0.00    -0.246 OA
ATOM     10  O   UNL A   1     -16.646   3.737  35.291  0.00  0.00    -0.246 OA
ENDBRANCH   5   8
BRANCH   1  11
ATOM     11  C   UNL A   1     -10.704   0.183  36.256  0.00  0.00    +0.117 C 
BRANCH  11  12
ATOM     12  N   UNL A   1      -9.900  -0.533  37.118  0.00  0.00    -0.301 N 
ATOM     13  C   UNL A   1      -8.865   0.530  37.461  0.00  0.00    +0.113 C 
BRANCH  12  14
ATOM     14  C   UNL A   1     -10.463  -1.094  38.084  0.00  0.00    +0.068 A 
ATOM     15  C   UNL A   1     -11.537  -1.980  37.807  0.00  0.00    +0.018 A 
ATOM     16  C   UNL A   1     -10.114  -0.959  39.488  0.00  0.00    +0.113 A 
ATOM     17  N   UNL A   1     -10.774  -1.496  40.467  0.00  0.00    -0.241 NA
ATOM     18  C   UNL A   1     -12.253  -2.597  38.924  0.00  0.00    +0.022 A 
ATOM     19  C   UNL A   1     -11.798  -2.357  40.210  0.00  0.00    +0.099 A 
ENDBRANCH  12  14
ENDBRANCH  11  12
ENDBRANCH   1  11
TORSDOF 4
ENDMDL
ENDMDL
