REMARK  Name = outputs/IAG933/test6/raw/output_242_IAG933_linker_design_.xyz
REMARK  12 active torsions:
REMARK  status: ('A' for Active; 'I' for Inactive)
REMARK    1  A    between atoms: C_1  and  C_2
REMARK    2  A    between atoms: C_1  and  C_8
REMARK    3  A    between atoms: C_1  and  C_32
REMARK    4  A    between atoms: C_13  and  C_36
REMARK    5  A    between atoms: C_14  and  C_15
REMARK    6  A    between atoms: C_21  and  O_22
REMARK    7  A    between atoms: O_22  and  C_23
REMARK    8  A    between atoms: C_23  and  C_24
REMARK    9  A    between atoms: C_28  and  C_35
REMARK   10  A    between atoms: O_31  and  C_35
REMARK   11  A    between atoms: C_32  and  C_34
REMARK   12  A    between atoms: C_32  and  N_38
REMARK                            x       y       z     vdW  Elec       q    Type
REMARK                         _______ _______ _______ _____ _____    ______ ____
ROOT
ATOM      1  C   UNL A   1     -22.871   0.763  28.110  0.00  0.00    +0.073 C 
ATOM      2  C   UNL A   1     -23.214   1.563  26.680  0.00  0.00    +0.034 C 
ATOM      3  C   UNL A   1     -24.191   0.703  28.143  0.00  0.00    -0.024 C 
ATOM      4  C   UNL A   1     -24.546   1.383  27.120  0.00  0.00    -0.025 C 
ENDROOT
BRANCH   4   5
ATOM      5  C   UNL A   1     -25.688   1.614  26.461  0.00  0.00    +0.034 C 
ATOM      6  C   UNL A   1     -26.250   2.920  26.395  0.00  0.00    +0.076 C 
ATOM      7  C   UNL A   1     -27.438   3.091  25.645  0.00  0.00    +0.107 C 
ATOM      8  N   UNL A   1     -28.075   2.089  25.003  0.00  0.00    -0.208 NA
ATOM      9  C   UNL A   1     -27.543   0.849  25.079  0.00  0.00    +0.253 C 
ATOM     10  C   UNL A   1     -26.354   0.576  25.777  0.00  0.00    +0.193 C 
ATOM     11  F   UNL A   1     -25.860  -0.681  25.795  0.00  0.00    -0.199 F 
BRANCH   6  12
ATOM     12  C   UNL A   1     -25.642   4.093  27.123  0.00  0.00    +0.266 C 
ATOM     13  N   UNL A   1     -25.614   5.252  26.449  0.00  0.00    -0.200 NA
ATOM     14  C   UNL A   1     -25.026   6.479  26.963  0.00  0.00    +0.139 C 
ATOM     15  O   UNL A   1     -25.143   3.966  28.243  0.00  0.00    -0.268 OA
ENDBRANCH   6  12
BRANCH   9  16
ATOM     16  O   UNL A   1     -28.193  -0.208  24.477  0.00  0.00    -0.456 OA
BRANCH  16  17
ATOM     17  C   UNL A   1     -29.460   0.005  23.866  0.00  0.00    +0.243 C 
BRANCH  17  18
ATOM     18  C   UNL A   1     -30.065  -1.377  23.573  0.00  0.00    +0.229 C 
ATOM     19  O   UNL A   1     -30.729  -1.878  24.721  0.00  0.00    -0.216 OA
ENDBRANCH  17  18
ENDBRANCH  16  17
ENDBRANCH   9  16
ENDBRANCH   4   5
BRANCH   1  21
ATOM     20  N   UNL A   1     -21.966  -0.964  29.679  0.00  0.00    -0.096 NA
ATOM     21  C   UNL A   1     -21.826  -0.041  28.722  0.00  0.00    +0.251 C 
BRANCH  21  23
ATOM     22  F   UNL A   1     -20.857   1.408  27.375  0.00  0.00    -0.045 F 
ATOM     23  O   UNL A   1     -20.522   0.335  28.389  0.00  0.00    -0.162 OA
ENDBRANCH  21  23
ENDBRANCH   1  21
BRANCH   3  24
ATOM     24  C   UNL A   1     -25.068   0.055  28.957  0.00  0.00    +0.122 C 
BRANCH  24  26
ATOM     25  C   UNL A   1     -27.423   0.415  29.311  0.00  0.00    +0.463 C 
ATOM     26  N   UNL A   1     -26.228   0.913  29.225  0.00  0.00    -0.163 NA
ATOM     27  O   UNL A   1     -27.841  -0.753  29.081  0.00  0.00    -0.221 OA
ATOM     28  O   UNL A   1     -28.306   1.454  29.882  0.00  0.00    -0.221 OA
ENDBRANCH  24  26
BRANCH  24  29
ATOM     29  C   UNL A   1     -24.855  -1.012  30.143  0.00  0.00    +0.062 C 
BRANCH  29  30
ATOM     30  C   UNL A   1     -24.973  -2.505  29.788  0.00  0.00    -0.019 C 
ATOM     31  C   UNL A   1     -23.906  -3.173  29.146  0.00  0.00    -0.004 C 
ATOM     32  C   UNL A   1     -23.989  -4.549  28.853  0.00  0.00    -0.000 C 
ATOM     33  C   UNL A   1     -25.137  -5.280  29.205  0.00  0.00    -0.000 C 
ATOM     34  C   UNL A   1     -26.232  -4.611  29.784  0.00  0.00    -0.000 C 
ATOM     35  C   UNL A   1     -26.155  -3.232  30.065  0.00  0.00    -0.004 C 
ENDBRANCH  29  30
BRANCH  29  36
ATOM     36  C   UNL A   1     -25.387  -0.679  31.571  0.00  0.00    +0.079 C 
ATOM     37  C   UNL A   1     -25.189   0.773  32.028  0.00  0.00    +0.019 C 
ATOM     38  C   UNL A   1     -25.336   0.684  33.544  0.00  0.00    +0.020 C 
ATOM     39  C   UNL A   1     -24.829  -0.715  33.905  0.00  0.00    +0.089 C 
ATOM     40  N   UNL A   1     -24.758  -1.481  32.646  0.00  0.00    -0.219 NA
ENDBRANCH  29  36
ENDBRANCH  24  29
ENDBRANCH   3  24
TORSDOF 12
