MODEL 2420
MODEL 1
REMARK VINA RESULT:    -6.759      0.000      0.000
REMARK INTER + INTRA:         -14.320
REMARK INTER:                 -12.291
REMARK INTRA:                  -2.029
REMARK UNBOUND:                -2.029
REMARK  Name = No_2420-gen_results/8p0m/2024-11-27-11-27-31/
REMARK  14 active torsions:
REMARK  status: ('A' for Active; 'I' for Inactive)
REMARK    1  A    between atoms: C_3  and  C_4
REMARK    2  A    between atoms: C_6  and  O_13
REMARK    3  A    between atoms: O_13  and  C_14
REMARK    4  A    between atoms: C_14  and  C_15
REMARK    5  A    between atoms: C_15  and  C_16
REMARK    6  A    between atoms: C_15  and  O_18
REMARK    7  A    between atoms: C_16  and  O_20
REMARK    8  A    between atoms: O_18  and  C_32
REMARK    9  A    between atoms: O_20  and  C_21
REMARK   10  A    between atoms: C_21  and  C_22
REMARK   11  A    between atoms: C_22  and  C_23
REMARK   12  A    between atoms: C_22  and  N_28
REMARK   13  A    between atoms: C_23  and  P_24
REMARK   14  A    between atoms: C_33  and  C_34
REMARK                            x       y       z     vdW  Elec       q    Type
REMARK                         _______ _______ _______ _____ _____    ______ ____
ROOT
ATOM      1  C   UNL A   1     -23.445 -17.089   5.526  0.00  0.00    +0.307 C 
ENDROOT
BRANCH   1   2
ATOM      2  C   UNL A   1     -22.985 -15.865   5.698  0.00  0.00    +0.362 C 
ATOM      3  O   UNL A   1     -23.149 -15.258   6.568  0.00  0.00    -0.246 OA
BRANCH   2   4
ATOM      4  O   UNL A   1     -22.243 -15.367   4.735  0.00  0.00    -0.444 OA
BRANCH   4   5
ATOM      5  C   UNL A   1     -22.722 -14.806   3.536  0.00  0.00    +0.231 C 
BRANCH   5   6
ATOM      6  C   UNL A   1     -22.382 -13.453   3.537  0.00  0.00    +0.148 C 
BRANCH   6   7
ATOM      7  N   UNL A   1     -21.131 -13.253   2.716  0.00  0.00    -0.183 NA
ATOM      8  C   UNL A   1     -20.121 -12.594   3.146  0.00  0.00    +0.359 C 
ATOM      9  N   UNL A   1     -19.054 -12.461   2.428  0.00  0.00    -0.068 NA
ATOM     10  O   UNL A   1     -19.965 -12.436   4.458  0.00  0.00    -0.247 OA
ENDBRANCH   6   7
BRANCH   6  11
ATOM     11  C   UNL A   1     -23.451 -12.482   3.245  0.00  0.00    +0.084 C 
BRANCH  11  12
ATOM     12  P   UNL A   1     -24.469 -12.149   4.134  0.00  0.00    +0.119 P 
ATOM     13  O   UNL A   1     -24.191 -12.149   5.338  0.00  0.00    -0.460 OA
ATOM     14  O   UNL A   1     -24.886 -10.661   3.820  0.00  0.00    -0.357 OA
ATOM     15  O   UNL A   1     -25.737 -13.025   3.918  0.00  0.00    -0.357 OA
ENDBRANCH  11  12
ENDBRANCH   6  11
ENDBRANCH   5   6
ENDBRANCH   4   5
ENDBRANCH   2   4
ENDBRANCH   1   2
BRANCH   1  16
ATOM     16  C   UNL A   1     -22.512 -18.162   5.463  0.00  0.00    +0.260 C 
BRANCH  16  17
ATOM     17  O   UNL A   1     -21.949 -18.451   6.662  0.00  0.00    -0.471 OA
BRANCH  17  21
ATOM     18  C   UNL A   1     -20.883 -20.471   7.626  0.00  0.00    +0.037 A 
ATOM     19  C   UNL A   1     -19.972 -21.266   7.602  0.00  0.00    +0.003 A 
ATOM     20  C   UNL A   1     -18.829 -21.027   6.847  0.00  0.00    +0.000 A 
ATOM     21  C   UNL A   1     -20.882 -19.321   6.707  0.00  0.00    +0.139 A 
ATOM     22  C   UNL A   1     -19.783 -18.961   5.985  0.00  0.00    +0.037 A 
ATOM     23  C   UNL A   1     -18.678 -19.828   6.029  0.00  0.00    +0.003 A 
BRANCH  20  24
ATOM     24  C   UNL A   1     -17.648 -21.929   6.728  0.00  0.00    +0.002 A 
ATOM     25  C   UNL A   1     -17.070 -22.387   5.493  0.00  0.00    +0.000 A 
ATOM     26  C   UNL A   1     -15.978 -23.204   5.549  0.00  0.00    +0.002 A 
ATOM     27  C   UNL A   1     -15.178 -23.451   6.618  0.00  0.00    +0.030 A 
ATOM     28  C   UNL A   1     -16.576 -21.993   7.717  0.00  0.00    +0.030 A 
ATOM     29  C   UNL A   1     -15.537 -22.821   7.734  0.00  0.00    +0.140 A 
ATOM     30  F   UNL A   1     -14.816 -22.928   8.857  0.00  0.00    -0.204 F 
ENDBRANCH  20  24
ENDBRANCH  17  21
ENDBRANCH  16  17
ENDBRANCH   1  16
BRANCH   1  31
ATOM     31  O   UNL A   1     -24.461 -17.442   6.541  0.00  0.00    -0.461 OA
BRANCH  31  32
ATOM     32  C   UNL A   1     -25.414 -17.945   6.424  0.00  0.00    +0.173 C 
ATOM     33  C   UNL A   1     -25.898 -18.898   7.008  0.00  0.00    +0.040 C 
BRANCH  33  34
ATOM     34  C   UNL A   1     -25.044 -19.680   7.703  0.00  0.00    +0.003 C 
ATOM     35  C   UNL A   1     -25.043 -20.839   7.683  0.00  0.00    +0.000 C 
ENDBRANCH  33  34
ENDBRANCH  31  32
ENDBRANCH   1  31
TORSDOF 14
ENDMDL
ENDMDL
