MODEL 2421
MODEL 1
REMARK VINA RESULT:    -6.220      0.000      0.000
REMARK INTER + INTRA:          -7.049
REMARK INTER:                  -6.584
REMARK INTRA:                  -0.466
REMARK UNBOUND:                -0.466
REMARK  Name = No_2421-gen_results/8p0m/2024-11-27-11-27-31/
REMARK  1 active torsions:
REMARK  status: ('A' for Active; 'I' for Inactive)
REMARK    1  A    between atoms: C_2  and  C_7
REMARK                            x       y       z     vdW  Elec       q    Type
REMARK                         _______ _______ _______ _____ _____    ______ ____
ROOT
ATOM      1  C   UNL A   1     -24.282  -1.261  29.510  0.00  0.00    +0.119 C 
ATOM      2  N   UNL A   1     -23.338  -0.870  30.295  0.00  0.00    -0.233 NA
ATOM      3  C   UNL A   1     -22.424  -0.363  30.246  0.00  0.00    +0.080 C 
ATOM      4  C   UNL A   1     -21.976   0.143  28.971  0.00  0.00    +0.017 C 
ATOM      5  C   UNL A   1     -23.013   0.213  28.062  0.00  0.00    -0.003 C 
ATOM      6  C   UNL A   1     -25.400  -0.323  29.343  0.00  0.00    +0.052 C 
ATOM      7  C   UNL A   1     -24.410   0.318  28.152  0.00  0.00    -0.024 C 
ENDROOT
BRANCH   1   9
ATOM      8  C   UNL A   1     -23.826  -3.370  28.749  0.00  0.00    -0.003 A 
ATOM      9  C   UNL A   1     -24.529  -2.824  29.313  0.00  0.00    -0.002 A 
ATOM     10  C   UNL A   1     -24.096  -4.806  28.573  0.00  0.00    -0.000 A 
ATOM     11  C   UNL A   1     -25.321  -5.375  29.030  0.00  0.00    -0.000 A 
ATOM     12  C   UNL A   1     -25.882  -3.153  29.838  0.00  0.00    -0.003 A 
ATOM     13  C   UNL A   1     -26.164  -4.480  29.703  0.00  0.00    -0.000 A 
ENDBRANCH   1   9
TORSDOF 1
ENDMDL
ENDMDL
