REMARK  Name = outputs/IAG933/test6/raw/output_2421_IAG933_linker_design_.xyz
REMARK  12 active torsions:
REMARK  status: ('A' for Active; 'I' for Inactive)
REMARK    1  A    between atoms: C_1  and  C_2
REMARK    2  A    between atoms: C_1  and  C_8
REMARK    3  A    between atoms: C_9  and  N_30
REMARK    4  A    between atoms: C_14  and  C_15
REMARK    5  A    between atoms: C_15  and  O_18
REMARK    6  A    between atoms: O_18  and  C_31
REMARK    7  A    between atoms: C_21  and  O_22
REMARK    8  A    between atoms: O_22  and  C_23
REMARK    9  A    between atoms: C_23  and  C_24
REMARK   10  A    between atoms: C_33  and  N_37
REMARK   11  A    between atoms: N_37  and  C_39
REMARK   12  A    between atoms: O_41  and  C_44
REMARK                            x       y       z     vdW  Elec       q    Type
REMARK                         _______ _______ _______ _____ _____    ______ ____
ROOT
ATOM      1  C   UNL A   1     -26.117   4.860  30.294  0.00  0.00    +0.075 C 
ATOM      2  N   UNL A   1     -25.424   2.358  31.649  0.00  0.00    -0.283 N 
ATOM      3  C   UNL A   1     -25.526   3.795  29.602  0.00  0.00    +0.167 C 
ATOM      4  C   UNL A   1     -25.156   2.614  30.382  0.00  0.00    +0.226 C 
ATOM      5  C   UNL A   1     -25.863   3.537  32.364  0.00  0.00    +0.100 C 
ATOM      6  C   UNL A   1     -26.099   4.761  31.728  0.00  0.00    +0.156 C 
ENDROOT
BRANCH   2   8
ATOM      7  C   UNL A   1     -25.387  -0.679  31.571  0.00  0.00    +0.095 C 
ATOM      8  C   UNL A   1     -25.189   0.773  32.028  0.00  0.00    +0.092 C 
ATOM      9  C   UNL A   1     -25.336   0.684  33.544  0.00  0.00    +0.040 C 
ATOM     10  C   UNL A   1     -24.829  -0.715  33.905  0.00  0.00    +0.090 C 
ATOM     11  N   UNL A   1     -24.758  -1.481  32.646  0.00  0.00    -0.217 NA
BRANCH   7  12
ATOM     12  C   UNL A   1     -24.855  -1.012  30.143  0.00  0.00    +0.045 C 
BRANCH  12  13
ATOM     13  C   UNL A   1     -24.973  -2.505  29.788  0.00  0.00    -0.021 C 
ATOM     14  C   UNL A   1     -23.906  -3.173  29.146  0.00  0.00    -0.004 C 
ATOM     15  C   UNL A   1     -23.989  -4.549  28.853  0.00  0.00    -0.000 C 
ATOM     16  C   UNL A   1     -25.137  -5.280  29.205  0.00  0.00    -0.000 C 
ATOM     17  C   UNL A   1     -26.232  -4.611  29.784  0.00  0.00    -0.000 C 
ATOM     18  C   UNL A   1     -26.155  -3.232  30.065  0.00  0.00    -0.004 C 
ENDBRANCH  12  13
ENDBRANCH   7  12
ENDBRANCH   2   8
BRANCH   6  19
ATOM     19  O   UNL A   1     -26.268   5.855  32.519  0.00  0.00    -0.470 OA
ATOM     20  C   UNL A   1     -25.657   5.775  33.822  0.00  0.00    +0.253 C 
ENDBRANCH   6  19
BRANCH   3  21
ATOM     21  O   UNL A   1     -25.143   3.966  28.243  0.00  0.00    -0.437 OA
BRANCH  21  22
ATOM     22  C   UNL A   1     -25.642   4.093  27.123  0.00  0.00    +0.227 C 
ATOM     23  N   UNL A   1     -25.614   5.252  26.449  0.00  0.00    -0.235 NA
ATOM     24  C   UNL A   1     -25.026   6.479  26.963  0.00  0.00    +0.155 C 
BRANCH  22  26
ATOM     25  C   UNL A   1     -25.688   1.614  26.461  0.00  0.00    +0.041 C 
ATOM     26  C   UNL A   1     -26.250   2.920  26.395  0.00  0.00    +0.075 C 
ATOM     27  C   UNL A   1     -27.438   3.091  25.645  0.00  0.00    +0.107 C 
ATOM     28  N   UNL A   1     -28.075   2.089  25.003  0.00  0.00    -0.208 NA
ATOM     29  C   UNL A   1     -27.543   0.849  25.079  0.00  0.00    +0.253 C 
ATOM     30  C   UNL A   1     -26.354   0.576  25.777  0.00  0.00    +0.193 C 
ATOM     31  F   UNL A   1     -25.860  -0.681  25.795  0.00  0.00    -0.199 F 
BRANCH  29  32
ATOM     32  O   UNL A   1     -28.193  -0.208  24.477  0.00  0.00    -0.456 OA
BRANCH  32  33
ATOM     33  C   UNL A   1     -29.460   0.005  23.866  0.00  0.00    +0.243 C 
BRANCH  33  34
ATOM     34  C   UNL A   1     -30.065  -1.377  23.573  0.00  0.00    +0.229 C 
ATOM     35  O   UNL A   1     -30.729  -1.878  24.721  0.00  0.00    -0.216 OA
ENDBRANCH  33  34
ENDBRANCH  32  33
ENDBRANCH  29  32
ENDBRANCH  22  26
ENDBRANCH  21  22
ENDBRANCH   3  21
BRANCH   4  36
ATOM     36  N   UNL A   1     -24.369   1.625  29.685  0.00  0.00    -0.210 NA
BRANCH  36  43
ATOM     37  C   UNL A   1     -22.356   0.776  28.753  0.00  0.00    +0.192 C 
ATOM     38  O   UNL A   1     -21.413   1.322  26.588  0.00  0.00    -0.440 OA
ATOM     39  C   UNL A   1     -22.539   1.973  26.225  0.00  0.00    +0.353 C 
ATOM     40  F   UNL A   1     -22.673   2.229  24.893  0.00  0.00    -0.183 F 
ATOM     41  C   UNL A   1     -23.404   2.390  27.228  0.00  0.00    +0.073 C 
ATOM     42  C   UNL A   1     -21.285   0.744  27.803  0.00  0.00    +0.206 C 
ATOM     43  C   UNL A   1     -23.355   1.684  28.601  0.00  0.00    +0.100 C 
ATOM     44  F   UNL A   1     -22.372  -0.156  29.809  0.00  0.00    -0.200 F 
ENDBRANCH  36  43
ENDBRANCH   4  36
TORSDOF 12
