MODEL 2422
MODEL 1
REMARK VINA RESULT:    -9.515      0.000      0.000
REMARK INTER + INTRA:         -14.275
REMARK INTER:                 -12.852
REMARK INTRA:                  -1.423
REMARK UNBOUND:                -1.423
REMARK  Name = No_2422-gen_results/8p0m/2024-11-27-11-27-31/
REMARK  6 active torsions:
REMARK  status: ('A' for Active; 'I' for Inactive)
REMARK    1  A    between atoms: C_2  and  N_7
REMARK    2  A    between atoms: C_6  and  C_17
REMARK    3  A    between atoms: C_8  and  C_9
REMARK    4  A    between atoms: C_18  and  C_19
REMARK    5  A    between atoms: C_19  and  O_25
REMARK    6  A    between atoms: O_25  and  C_26
REMARK                            x       y       z     vdW  Elec       q    Type
REMARK                         _______ _______ _______ _____ _____    ______ ____
ROOT
ATOM      1  C   UNL A   1     -10.318   1.258  33.767  0.00  0.00    +0.066 A 
ATOM      2  C   UNL A   1      -9.957   1.618  34.864  0.00  0.00    +0.157 A 
ATOM      3  N   UNL A   1     -10.769   1.958  35.822  0.00  0.00    -0.229 NA
ATOM      4  C   UNL A   1     -11.751   1.214  33.501  0.00  0.00    +0.144 A 
ATOM      5  C   UNL A   1     -12.614   1.621  34.400  0.00  0.00    +0.049 A 
ATOM      6  C   UNL A   1     -12.101   2.010  35.620  0.00  0.00    +0.085 A 
ATOM      7  F   UNL A   1     -12.124   0.775  32.279  0.00  0.00    -0.204 F 
ENDROOT
BRANCH   6   8
ATOM      8  C   UNL A   1     -13.016   2.456  36.737  0.00  0.00    +0.024 A 
ATOM      9  C   UNL A   1     -13.112   2.421  37.845  0.00  0.00    +0.077 A 
ATOM     10  C   UNL A   1     -14.284   3.048  35.975  0.00  0.00    +0.002 A 
ATOM     11  C   UNL A   1     -15.246   3.361  36.838  0.00  0.00    +0.000 A 
ATOM     12  C   UNL A   1     -14.182   2.826  38.743  0.00  0.00    +0.006 A 
ATOM     13  C   UNL A   1     -15.358   3.362  38.154  0.00  0.00    +0.000 A 
BRANCH   9  14
ATOM     14  C   UNL A   1     -12.025   1.881  38.613  0.00  0.00    +0.342 C 
ATOM     15  O   UNL A   1     -11.180   2.359  39.200  0.00  0.00    -0.245 OA
BRANCH  14  16
ATOM     16  O   UNL A   1     -12.044   0.482  38.668  0.00  0.00    -0.445 OA
BRANCH  16  17
ATOM     17  C   UNL A   1     -10.828  -0.202  38.735  0.00  0.00    +0.192 C 
ATOM     18  C   UNL A   1     -10.842  -0.897  39.953  0.00  0.00    +0.017 C 
ATOM     19  C   UNL A   1     -11.839  -1.763  40.305  0.00  0.00    -0.001 C 
ATOM     20  C   UNL A   1     -12.441  -2.482  39.337  0.00  0.00    -0.005 C 
ATOM     21  C   UNL A   1     -12.069  -2.669  38.210  0.00  0.00    -0.026 C 
ATOM     22  C   UNL A   1     -11.095  -2.033  37.490  0.00  0.00    +0.030 C 
ATOM     23  C   UNL A   1     -10.406  -0.970  37.528  0.00  0.00    +0.053 C 
ENDBRANCH  16  17
ENDBRANCH  14  16
ENDBRANCH   9  14
ENDBRANCH   6   8
BRANCH   2  24
ATOM     24  N   UNL A   1      -8.642   1.712  35.412  0.00  0.00    -0.157 NA
ATOM     25  C   UNL A   1      -7.522   1.585  34.661  0.00  0.00    +0.270 C 
ATOM     26  O   UNL A   1      -7.517   2.125  33.502  0.00  0.00    -0.268 OA
BRANCH  25  27
ATOM     27  C   UNL A   1      -6.705   0.431  34.885  0.00  0.00    +0.055 A 
ATOM     28  C   UNL A   1      -5.358   0.371  34.910  0.00  0.00    +0.005 A 
ATOM     29  C   UNL A   1      -4.655  -0.577  34.773  0.00  0.00    +0.000 A 
ATOM     30  C   UNL A   1      -5.203  -1.871  34.564  0.00  0.00    +0.000 A 
ATOM     31  C   UNL A   1      -6.600  -1.975  34.393  0.00  0.00    +0.000 A 
ATOM     32  C   UNL A   1      -7.359  -0.809  34.554  0.00  0.00    +0.005 A 
ENDBRANCH  25  27
ENDBRANCH   2  24
TORSDOF 6
ENDMDL
ENDMDL
