REMARK  Name = outputs/IAG933/test6/raw/output_2423_IAG933_linker_design_.xyz
REMARK  10 active torsions:
REMARK  status: ('A' for Active; 'I' for Inactive)
REMARK    1  A    between atoms: C_1  and  C_2
REMARK    2  A    between atoms: C_13  and  N_38
REMARK    3  A    between atoms: C_14  and  C_15
REMARK    4  A    between atoms: C_21  and  O_22
REMARK    5  A    between atoms: O_22  and  C_23
REMARK    6  A    between atoms: C_23  and  C_24
REMARK    7  A    between atoms: C_28  and  N_38
REMARK    8  A    between atoms: C_33  and  N_38
REMARK    9  A    between atoms: C_34  and  C_44
REMARK   10  A    between atoms: C_40  and  C_44
REMARK                            x       y       z     vdW  Elec       q    Type
REMARK                         _______ _______ _______ _____ _____    ______ ____
ROOT
ATOM      1  N   UNL A   1     -24.780   1.280  27.462  0.00  0.00    -0.229 NA
ENDROOT
BRANCH   1  11
ATOM      2  C   UNL A   1     -24.855  -1.012  30.143  0.00  0.00    +0.042 C 
ATOM      3  C   UNL A   1     -25.387  -0.679  31.571  0.00  0.00    +0.082 C 
ATOM      4  C   UNL A   1     -25.189   0.773  32.028  0.00  0.00    +0.077 C 
ATOM      5  C   UNL A   1     -25.336   0.684  33.544  0.00  0.00    +0.025 C 
ATOM      6  C   UNL A   1     -24.829  -0.715  33.905  0.00  0.00    +0.089 C 
ATOM      7  N   UNL A   1     -24.758  -1.481  32.646  0.00  0.00    -0.219 NA
ATOM      8  C   UNL A   1     -25.494   1.977  31.018  0.00  0.00    +0.271 C 
ATOM      9  C   UNL A   1     -25.694  -0.210  29.228  0.00  0.00    +0.053 C 
ATOM     10  O   UNL A   1     -24.611   1.760  29.864  0.00  0.00    -0.315 OA
ATOM     11  C   UNL A   1     -25.131   1.111  28.845  0.00  0.00    +0.181 C 
ATOM     12  O   UNL A   1     -26.677   2.477  30.361  0.00  0.00    -0.190 OA
BRANCH   2  13
ATOM     13  C   UNL A   1     -24.973  -2.505  29.788  0.00  0.00    -0.021 C 
ATOM     14  C   UNL A   1     -23.906  -3.173  29.146  0.00  0.00    -0.004 C 
ATOM     15  C   UNL A   1     -23.989  -4.549  28.853  0.00  0.00    -0.000 C 
ATOM     16  C   UNL A   1     -25.137  -5.280  29.205  0.00  0.00    -0.000 C 
ATOM     17  C   UNL A   1     -26.232  -4.611  29.784  0.00  0.00    -0.000 C 
ATOM     18  C   UNL A   1     -26.155  -3.232  30.065  0.00  0.00    -0.004 C 
ENDBRANCH   2  13
ENDBRANCH   1  11
BRANCH   1  19
ATOM     19  C   UNL A   1     -25.688   1.614  26.461  0.00  0.00    +0.131 C 
ATOM     20  C   UNL A   1     -26.250   2.920  26.395  0.00  0.00    +0.070 C 
ATOM     21  C   UNL A   1     -27.438   3.091  25.645  0.00  0.00    +0.103 C 
ATOM     22  N   UNL A   1     -28.075   2.089  25.003  0.00  0.00    -0.212 NA
ATOM     23  C   UNL A   1     -27.543   0.849  25.079  0.00  0.00    +0.235 C 
ATOM     24  C   UNL A   1     -26.354   0.576  25.777  0.00  0.00    +0.255 C 
ATOM     25  F   UNL A   1     -25.860  -0.681  25.795  0.00  0.00    -0.225 F 
BRANCH  20  26
ATOM     26  C   UNL A   1     -25.642   4.093  27.123  0.00  0.00    +0.264 C 
ATOM     27  N   UNL A   1     -25.614   5.252  26.449  0.00  0.00    -0.200 NA
ATOM     28  C   UNL A   1     -25.026   6.479  26.963  0.00  0.00    +0.139 C 
ATOM     29  O   UNL A   1     -25.143   3.966  28.243  0.00  0.00    -0.269 OA
ENDBRANCH  20  26
BRANCH  23  30
ATOM     30  O   UNL A   1     -28.193  -0.208  24.477  0.00  0.00    -0.459 OA
BRANCH  30  31
ATOM     31  C   UNL A   1     -29.460   0.005  23.866  0.00  0.00    +0.242 C 
BRANCH  31  32
ATOM     32  C   UNL A   1     -30.065  -1.377  23.573  0.00  0.00    +0.229 C 
ATOM     33  O   UNL A   1     -30.729  -1.878  24.721  0.00  0.00    -0.216 OA
ENDBRANCH  31  32
ENDBRANCH  30  31
ENDBRANCH  23  30
ENDBRANCH   1  19
BRANCH   1  34
ATOM     34  C   UNL A   1     -23.517   1.185  27.110  0.00  0.00    +0.166 C 
ATOM     35  O   UNL A   1     -22.208   2.642  24.256  0.00  0.00    -0.225 OA
ATOM     36  N   UNL A   1     -23.348   1.330  25.796  0.00  0.00    -0.153 NA
ATOM     37  C   UNL A   1     -21.346   1.939  27.499  0.00  0.00    +0.216 C 
ATOM     38  C   UNL A   1     -22.273   2.001  25.365  0.00  0.00    +0.422 C 
ATOM     39  C   UNL A   1     -22.434   1.045  27.932  0.00  0.00    +0.112 C 
ATOM     40  O   UNL A   1     -21.130   1.854  26.110  0.00  0.00    -0.433 OA
BRANCH  39  42
ATOM     41  O   UNL A   1     -22.457  -1.139  28.808  0.00  0.00    -0.220 OA
ATOM     42  C   UNL A   1     -21.973   0.140  28.961  0.00  0.00    +0.191 C 
BRANCH  42  43
ATOM     43  C   UNL A   1     -20.524  -0.015  28.839  0.00  0.00    +0.215 C 
ATOM     44  O   UNL A   1     -19.517   0.905  28.598  0.00  0.00    -0.218 OA
ENDBRANCH  42  43
ENDBRANCH  39  42
ENDBRANCH   1  34
TORSDOF 10
