MODEL 2423
MODEL 1
REMARK VINA RESULT:    -7.529      0.000      0.000
REMARK INTER + INTRA:         -14.668
REMARK INTER:                 -11.931
REMARK INTRA:                  -2.737
REMARK UNBOUND:                -2.737
REMARK  Name = No_2423-gen_results/8p0m/2024-11-27-11-27-31/
REMARK  10 active torsions:
REMARK  status: ('A' for Active; 'I' for Inactive)
REMARK    1  A    between atoms: C_1  and  C_7
REMARK    2  A    between atoms: C_3  and  C_17
REMARK    3  A    between atoms: C_5  and  N_10
REMARK    4  A    between atoms: C_17  and  C_18
REMARK    5  A    between atoms: C_18  and  C_29
REMARK    6  A    between atoms: C_19  and  C_20
REMARK    7  A    between atoms: C_20  and  C_21
REMARK    8  A    between atoms: C_29  and  C_30
REMARK    9  A    between atoms: C_31  and  C_32
REMARK   10  A    between atoms: C_31  and  C_33
REMARK                            x       y       z     vdW  Elec       q    Type
REMARK                         _______ _______ _______ _____ _____    ______ ____
ROOT
ATOM      1  C   UNL A   1      -9.441   2.631  37.376  0.00  0.00    +0.041 C 
ATOM      2  C   UNL A   1      -9.209   3.820  38.031  0.00  0.00    +0.009 C 
ENDROOT
BRANCH   1   5
ATOM      3  C   UNL A   1     -11.741   1.827  34.638  0.00  0.00    +0.081 A 
ATOM      4  C   UNL A   1     -10.703   1.866  35.256  0.00  0.00    +0.003 A 
ATOM      5  C   UNL A   1     -10.591   2.388  36.530  0.00  0.00    -0.017 A 
ATOM      6  C   UNL A   1     -11.773   2.869  37.160  0.00  0.00    +0.011 A 
ATOM      7  C   UNL A   1     -12.932   2.648  36.498  0.00  0.00    +0.048 A 
ATOM      8  C   UNL A   1     -12.949   2.103  35.297  0.00  0.00    +0.021 A 
BRANCH   7   9
ATOM      9  N   UNL A   1     -14.211   2.957  36.985  0.00  0.00    -0.309 N 
ATOM     10  C   UNL A   1     -14.470   2.876  38.247  0.00  0.00    +0.073 C 
ATOM     11  C   UNL A   1     -15.250   3.410  36.175  0.00  0.00    +0.091 C 
ATOM     12  C   UNL A   1     -16.275   3.944  36.678  0.00  0.00    +0.021 C 
ATOM     13  C   UNL A   1     -13.448   2.583  39.202  0.00  0.00    +0.021 C 
ATOM     14  C   UNL A   1     -15.658   3.297  38.860  0.00  0.00    +0.020 C 
ATOM     15  C   UNL A   1     -16.628   3.847  38.033  0.00  0.00    +0.004 C 
ENDBRANCH   7   9
BRANCH   3  16
ATOM     16  C   UNL A   1     -11.774   1.227  33.254  0.00  0.00    +0.388 C 
ATOM     17  O   UNL A   1     -12.540   1.079  32.574  0.00  0.00    -0.241 OA
ATOM     18  O   UNL A   1     -10.405   1.238  32.747  0.00  0.00    -0.241 OA
ENDBRANCH   3  16
ENDBRANCH   1   5
BRANCH   1  19
ATOM     19  C   UNL A   1      -8.439   1.607  37.367  0.00  0.00    -0.040 C 
ATOM     20  C   UNL A   1      -8.441   0.635  37.943  0.00  0.00    -0.030 C 
BRANCH  20  21
ATOM     21  C   UNL A   1      -9.540   0.331  38.809  0.00  0.00    +0.044 C 
ATOM     22  C   UNL A   1      -9.393   0.942  40.181  0.00  0.00    +0.009 C 
BRANCH  21  23
ATOM     23  C   UNL A   1     -10.300  -0.484  38.782  0.00  0.00    -0.018 A 
ATOM     24  C   UNL A   1     -10.715  -1.202  37.648  0.00  0.00    -0.004 A 
ATOM     25  C   UNL A   1     -11.486  -2.306  37.556  0.00  0.00    -0.000 A 
ATOM     26  C   UNL A   1     -11.143  -0.964  39.940  0.00  0.00    -0.004 A 
ATOM     27  C   UNL A   1     -12.079  -2.036  39.897  0.00  0.00    -0.000 A 
ATOM     28  C   UNL A   1     -12.278  -2.686  38.664  0.00  0.00    -0.000 A 
ENDBRANCH  21  23
ENDBRANCH  20  21
BRANCH  19  29
ATOM     29  C   UNL A   1      -7.369   1.951  36.337  0.00  0.00    +0.048 C 
BRANCH  29  30
ATOM     30  C   UNL A   1      -6.448   1.271  36.065  0.00  0.00    -0.025 C 
ATOM     31  C   UNL A   1      -5.994   0.262  35.497  0.00  0.00    -0.007 C 
BRANCH  31  32
ATOM     32  C   UNL A   1      -4.736  -0.336  35.257  0.00  0.00    +0.135 C 
ATOM     33  N   UNL A   1      -3.899   0.290  34.421  0.00  0.00    -0.126 NA
ENDBRANCH  31  32
BRANCH  31  34
ATOM     34  C   UNL A   1      -7.104  -0.556  34.809  0.00  0.00    -0.003 C 
ATOM     35  C   UNL A   1      -7.059  -1.566  34.269  0.00  0.00    -0.000 C 
ENDBRANCH  31  34
ENDBRANCH  29  30
ENDBRANCH  19  29
ENDBRANCH   1  19
TORSDOF 10
ENDMDL
ENDMDL
