MODEL 2424
MODEL 1
REMARK VINA RESULT:    -3.592      0.000      0.000
REMARK INTER + INTRA:          -3.802
REMARK INTER:                  -3.802
REMARK INTRA:                   0.000
REMARK UNBOUND:                 0.000
REMARK  Name = No_2424-gen_results/8p0m/2024-11-27-11-27-31/
REMARK  1 active torsions:
REMARK  status: ('A' for Active; 'I' for Inactive)
REMARK    1  A    between atoms: C_2  and  C_4
REMARK                            x       y       z     vdW  Elec       q    Type
REMARK                         _______ _______ _______ _____ _____    ______ ____
ROOT
ATOM      1  F   UNL A   1      -9.943  -9.280  21.000  0.00  0.00    -0.198 F 
ATOM      2  C   UNL A   1      -9.360  -9.271  20.014  0.00  0.00    +0.319 C 
ATOM      3  F   UNL A   1      -9.993  -9.274  19.020  0.00  0.00    -0.198 F 
ENDROOT
BRANCH   2   4
ATOM      4  C   UNL A   1      -7.930  -9.322  20.068  0.00  0.00    +0.072 C 
ATOM      5  C   UNL A   1      -7.140  -8.164  19.666  0.00  0.00    +0.006 C 
ENDBRANCH   2   4
TORSDOF 1
ENDMDL
ENDMDL
