REMARK  Name = outputs/IAG933/test6/raw/output_2424_IAG933_linker_design_.xyz
REMARK  11 active torsions:
REMARK  status: ('A' for Active; 'I' for Inactive)
REMARK    1  A    between atoms: C_1  and  C_2
REMARK    2  A    between atoms: C_1  and  C_8
REMARK    3  A    between atoms: C_1  and  C_40
REMARK    4  A    between atoms: C_13  and  C_44
REMARK    5  A    between atoms: C_14  and  C_15
REMARK    6  A    between atoms: C_21  and  O_22
REMARK    7  A    between atoms: O_22  and  C_23
REMARK    8  A    between atoms: C_23  and  C_24
REMARK    9  A    between atoms: C_29  and  C_40
REMARK   10  A    between atoms: N_36  and  C_40
REMARK   11  A    between atoms: C_39  and  C_41
REMARK                            x       y       z     vdW  Elec       q    Type
REMARK                         _______ _______ _______ _____ _____    ______ ____
ROOT
ATOM      1  C   UNL A   1     -23.338   1.140  28.910  0.00  0.00    +0.161 C 
ATOM      2  C   UNL A   1     -23.561   1.736  25.080  0.00  0.00    +0.011 C 
ATOM      3  C   UNL A   1     -21.032   0.152  28.573  0.00  0.00    +0.361 C 
ATOM      4  F   UNL A   1     -21.232   1.970  24.514  0.00  0.00    -0.201 F 
ATOM      5  C   UNL A   1     -23.292   1.321  27.373  0.00  0.00    +0.025 C 
ATOM      6  C   UNL A   1     -22.228   1.673  25.337  0.00  0.00    +0.169 C 
ATOM      7  O   UNL A   1     -22.113   0.522  29.400  0.00  0.00    -0.312 OA
ATOM      8  C   UNL A   1     -22.049   1.315  26.670  0.00  0.00    +0.163 C 
ATOM      9  O   UNL A   1     -20.884   0.872  27.278  0.00  0.00    -0.446 OA
ATOM     10  C   UNL A   1     -24.250   1.541  26.306  0.00  0.00    +0.055 C 
ENDROOT
BRANCH  10  11
ATOM     11  C   UNL A   1     -25.688   1.614  26.461  0.00  0.00    +0.078 C 
ATOM     12  C   UNL A   1     -26.250   2.920  26.395  0.00  0.00    +0.055 C 
ATOM     13  C   UNL A   1     -27.438   3.091  25.645  0.00  0.00    +0.102 C 
ATOM     14  N   UNL A   1     -28.075   2.089  25.003  0.00  0.00    -0.212 NA
ATOM     15  C   UNL A   1     -27.543   0.849  25.079  0.00  0.00    +0.234 C 
ATOM     16  C   UNL A   1     -26.354   0.576  25.777  0.00  0.00    +0.241 C 
ATOM     17  F   UNL A   1     -25.860  -0.681  25.795  0.00  0.00    -0.227 F 
BRANCH  12  18
ATOM     18  C   UNL A   1     -25.642   4.093  27.123  0.00  0.00    +0.263 C 
ATOM     19  N   UNL A   1     -25.614   5.252  26.449  0.00  0.00    -0.200 NA
ATOM     20  C   UNL A   1     -25.026   6.479  26.963  0.00  0.00    +0.139 C 
ATOM     21  O   UNL A   1     -25.143   3.966  28.243  0.00  0.00    -0.269 OA
ENDBRANCH  12  18
BRANCH  15  22
ATOM     22  O   UNL A   1     -28.193  -0.208  24.477  0.00  0.00    -0.459 OA
BRANCH  22  23
ATOM     23  C   UNL A   1     -29.460   0.005  23.866  0.00  0.00    +0.242 C 
BRANCH  23  24
ATOM     24  C   UNL A   1     -30.065  -1.377  23.573  0.00  0.00    +0.229 C 
ATOM     25  O   UNL A   1     -30.729  -1.878  24.721  0.00  0.00    -0.216 OA
ENDBRANCH  23  24
ENDBRANCH  22  23
ENDBRANCH  15  22
ENDBRANCH  10  11
BRANCH   1  26
ATOM     26  C   UNL A   1     -24.492   0.299  29.371  0.00  0.00    +0.132 C 
BRANCH  26  28
ATOM     27  O   UNL A   1     -27.559   0.498  28.695  0.00  0.00    -0.273 OA
ATOM     28  N   UNL A   1     -25.583   1.264  29.358  0.00  0.00    -0.204 NA
ATOM     29  C   UNL A   1     -26.859   1.287  29.305  0.00  0.00    +0.241 C 
BRANCH  29  32
ATOM     30  C   UNL A   1     -28.499   2.071  31.082  0.00  0.00    +0.010 C 
ATOM     31  C   UNL A   1     -26.779   3.765  30.758  0.00  0.00    +0.010 C 
ATOM     32  C   UNL A   1     -27.500   2.539  30.001  0.00  0.00    +0.078 C 
ENDBRANCH  29  32
ENDBRANCH  26  28
BRANCH  26  33
ATOM     33  C   UNL A   1     -24.855  -1.012  30.143  0.00  0.00    +0.061 C 
BRANCH  33  34
ATOM     34  C   UNL A   1     -24.973  -2.505  29.788  0.00  0.00    -0.019 C 
ATOM     35  C   UNL A   1     -23.906  -3.173  29.146  0.00  0.00    -0.004 C 
ATOM     36  C   UNL A   1     -23.989  -4.549  28.853  0.00  0.00    -0.000 C 
ATOM     37  C   UNL A   1     -25.137  -5.280  29.205  0.00  0.00    -0.000 C 
ATOM     38  C   UNL A   1     -26.232  -4.611  29.784  0.00  0.00    -0.000 C 
ATOM     39  C   UNL A   1     -26.155  -3.232  30.065  0.00  0.00    -0.004 C 
ENDBRANCH  33  34
BRANCH  33  40
ATOM     40  C   UNL A   1     -25.387  -0.679  31.571  0.00  0.00    +0.079 C 
ATOM     41  C   UNL A   1     -25.189   0.773  32.028  0.00  0.00    +0.019 C 
ATOM     42  C   UNL A   1     -25.336   0.684  33.544  0.00  0.00    +0.020 C 
ATOM     43  C   UNL A   1     -24.829  -0.715  33.905  0.00  0.00    +0.089 C 
ATOM     44  N   UNL A   1     -24.758  -1.481  32.646  0.00  0.00    -0.219 NA
ENDBRANCH  33  40
ENDBRANCH  26  33
ENDBRANCH   1  26
TORSDOF 11
