REMARK  Name = outputs/IAG933/test6/raw/output_2425_IAG933_linker_design_.xyz
REMARK  17 active torsions:
REMARK  status: ('A' for Active; 'I' for Inactive)
REMARK    1  A    between atoms: C_1  and  C_2
REMARK    2  A    between atoms: C_1  and  C_8
REMARK    3  A    between atoms: C_1  and  N_28
REMARK    4  A    between atoms: C_13  and  C_42
REMARK    5  A    between atoms: C_14  and  C_15
REMARK    6  A    between atoms: C_21  and  O_22
REMARK    7  A    between atoms: O_22  and  C_23
REMARK    8  A    between atoms: C_23  and  C_24
REMARK    9  A    between atoms: N_28  and  C_30
REMARK   10  A    between atoms: N_28  and  C_32
REMARK   11  A    between atoms: O_29  and  C_31
REMARK   12  A    between atoms: O_29  and  C_33
REMARK   13  A    between atoms: C_30  and  C_33
REMARK   14  A    between atoms: C_31  and  C_41
REMARK   15  A    between atoms: C_34  and  C_41
REMARK   16  A    between atoms: C_34  and  C_46
REMARK   17  A    between atoms: O_40  and  C_46
REMARK                            x       y       z     vdW  Elec       q    Type
REMARK                         _______ _______ _______ _____ _____    ______ ____
ROOT
ATOM      1  N   UNL A   1     -25.246  -0.226  28.983  0.00  0.00    -0.300 N 
ENDROOT
BRANCH   1   2
ATOM      2  C   UNL A   1     -24.249   0.495  28.292  0.00  0.00    +0.068 C 
ATOM      3  C   UNL A   1     -21.844   1.076  27.946  0.00  0.00    +0.160 C 
ATOM      4  F   UNL A   1     -20.557   0.929  28.265  0.00  0.00    -0.203 F 
ATOM      5  N   UNL A   1     -23.375   1.906  26.439  0.00  0.00    -0.240 NA
ATOM      6  C   UNL A   1     -22.877   0.432  28.684  0.00  0.00    +0.047 C 
ATOM      7  C   UNL A   1     -24.405   1.336  27.101  0.00  0.00    +0.097 C 
ATOM      8  C   UNL A   1     -22.141   1.847  26.847  0.00  0.00    +0.128 C 
BRANCH   7   9
ATOM      9  C   UNL A   1     -25.688   1.614  26.461  0.00  0.00    +0.057 C 
ATOM     10  C   UNL A   1     -26.250   2.920  26.395  0.00  0.00    +0.078 C 
ATOM     11  C   UNL A   1     -27.438   3.091  25.645  0.00  0.00    +0.107 C 
ATOM     12  N   UNL A   1     -28.075   2.089  25.003  0.00  0.00    -0.208 NA
ATOM     13  C   UNL A   1     -27.543   0.849  25.079  0.00  0.00    +0.253 C 
ATOM     14  C   UNL A   1     -26.354   0.576  25.777  0.00  0.00    +0.195 C 
ATOM     15  F   UNL A   1     -25.860  -0.681  25.795  0.00  0.00    -0.199 F 
BRANCH  10  16
ATOM     16  C   UNL A   1     -25.642   4.093  27.123  0.00  0.00    +0.267 C 
ATOM     17  N   UNL A   1     -25.614   5.252  26.449  0.00  0.00    -0.200 NA
ATOM     18  C   UNL A   1     -25.026   6.479  26.963  0.00  0.00    +0.139 C 
ATOM     19  O   UNL A   1     -25.143   3.966  28.243  0.00  0.00    -0.268 OA
ENDBRANCH  10  16
BRANCH  13  20
ATOM     20  O   UNL A   1     -28.193  -0.208  24.477  0.00  0.00    -0.456 OA
BRANCH  20  21
ATOM     21  C   UNL A   1     -29.460   0.005  23.866  0.00  0.00    +0.243 C 
BRANCH  21  22
ATOM     22  C   UNL A   1     -30.065  -1.377  23.573  0.00  0.00    +0.229 C 
ATOM     23  O   UNL A   1     -30.729  -1.878  24.721  0.00  0.00    -0.216 OA
ENDBRANCH  21  22
ENDBRANCH  20  21
ENDBRANCH  13  20
ENDBRANCH   7   9
ENDBRANCH   1   2
BRANCH   1  24
ATOM     24  C   UNL A   1     -24.855  -1.012  30.143  0.00  0.00    +0.111 C 
BRANCH  24  25
ATOM     25  C   UNL A   1     -24.973  -2.505  29.788  0.00  0.00    -0.003 C 
ATOM     26  C   UNL A   1     -23.906  -3.173  29.146  0.00  0.00    -0.003 C 
ATOM     27  C   UNL A   1     -23.989  -4.549  28.853  0.00  0.00    -0.000 C 
ATOM     28  C   UNL A   1     -25.137  -5.280  29.205  0.00  0.00    -0.000 C 
ATOM     29  C   UNL A   1     -26.232  -4.611  29.784  0.00  0.00    -0.000 C 
ATOM     30  C   UNL A   1     -26.155  -3.232  30.065  0.00  0.00    -0.003 C 
ENDBRANCH  24  25
BRANCH  24  31
ATOM     31  C   UNL A   1     -25.387  -0.679  31.571  0.00  0.00    +0.095 C 
ATOM     32  C   UNL A   1     -25.189   0.773  32.028  0.00  0.00    +0.021 C 
ATOM     33  C   UNL A   1     -25.336   0.684  33.544  0.00  0.00    +0.020 C 
ATOM     34  C   UNL A   1     -24.829  -0.715  33.905  0.00  0.00    +0.089 C 
ATOM     35  N   UNL A   1     -24.758  -1.481  32.646  0.00  0.00    -0.217 NA
ENDBRANCH  24  31
ENDBRANCH   1  24
BRANCH   1  36
ATOM     36  C   UNL A   1     -26.455  -0.544  28.486  0.00  0.00    +0.123 C 
BRANCH  36  37
ATOM     37  C   UNL A   1     -28.059  -0.413  28.412  0.00  0.00    +0.164 C 
BRANCH  37  38
ATOM     38  O   UNL A   1     -28.392  -0.851  29.787  0.00  0.00    -0.352 OA
BRANCH  38  39
ATOM     39  C   UNL A   1     -29.454   0.062  30.051  0.00  0.00    +0.144 C 
BRANCH  39  40
ATOM     40  C   UNL A   1     -29.174   1.398  29.386  0.00  0.00    +0.050 C 
ATOM     41  C   UNL A   1     -28.001   2.257  29.357  0.00  0.00    +0.004 C 
BRANCH  40  42
ATOM     42  C   UNL A   1     -30.146   1.805  28.289  0.00  0.00    +0.124 C 
ATOM     43  N   UNL A   1     -30.024   3.294  28.012  0.00  0.00    -0.130 NA
BRANCH  42  44
ATOM     44  C   UNL A   1     -31.553   1.469  28.823  0.00  0.00    +0.161 C 
BRANCH  44  45
ATOM     45  O   UNL A   1     -31.975   2.323  29.921  0.00  0.00    -0.350 OA
ATOM     46  C   UNL A   1     -31.590   2.056  31.367  0.00  0.00    +0.174 C 
ENDBRANCH  44  45
ENDBRANCH  42  44
ENDBRANCH  40  42
ENDBRANCH  39  40
ENDBRANCH  38  39
ENDBRANCH  37  38
ENDBRANCH  36  37
ENDBRANCH   1  36
TORSDOF 17
