MODEL 2425
MODEL 1
REMARK VINA RESULT:    -7.817      0.000      0.000
REMARK INTER + INTRA:          -8.470
REMARK INTER:                  -8.274
REMARK INTRA:                  -0.196
REMARK UNBOUND:                -0.196
REMARK  Name = No_2425-gen_results/8p0m/2024-11-27-11-27-31/
REMARK  1 active torsions:
REMARK  status: ('A' for Active; 'I' for Inactive)
REMARK    1  A    between atoms: N_3  and  C_11
REMARK                            x       y       z     vdW  Elec       q    Type
REMARK                         _______ _______ _______ _____ _____    ______ ____
ROOT
ATOM      1  C   UNL A   1     -24.317   2.149  25.950  0.00  0.00    +0.015 A 
ATOM      2  C   UNL A   1     -24.696   1.181  26.567  0.00  0.00    +0.047 A 
ATOM      3  N   UNL A   1     -25.933   0.771  26.568  0.00  0.00    -0.287 N 
ATOM      4  C   UNL A   1     -22.873   2.464  26.032  0.00  0.00    +0.001 A 
ATOM      5  C   UNL A   1     -22.065   1.839  26.965  0.00  0.00    -0.004 A 
ATOM      6  C   UNL A   1     -22.559   0.862  27.795  0.00  0.00    -0.025 A 
ATOM      7  C   UNL A   1     -23.922   0.491  27.615  0.00  0.00    -0.013 A 
ATOM      8  C   UNL A   1     -26.607   0.186  27.555  0.00  0.00    +0.096 C 
ATOM      9  C   UNL A   1     -25.883  -0.589  28.493  0.00  0.00    +0.026 C 
ATOM     10  C   UNL A   1     -24.530  -0.402  28.580  0.00  0.00    +0.025 C 
ATOM     11  C   UNL A   1     -23.716  -1.142  29.604  0.00  0.00    +0.004 C 
ATOM     12  C   UNL A   1     -23.820  -0.706  30.986  0.00  0.00    +0.000 C 
ATOM     13  C   UNL A   1     -23.941  -2.666  29.640  0.00  0.00    +0.000 C 
ATOM     14  C   UNL A   1     -22.123  -1.097  29.264  0.00  0.00    +0.005 C 
ATOM     15  C   UNL A   1     -21.605   0.070  28.617  0.00  0.00    +0.026 C 
ENDROOT
BRANCH   3  16
ATOM     16  C   UNL A   1     -26.852   1.335  25.529  0.00  0.00    +0.052 A 
ATOM     17  C   UNL A   1     -27.107   0.399  24.571  0.00  0.00    +0.015 A 
ATOM     18  C   UNL A   1     -27.371   2.587  25.515  0.00  0.00    +0.015 A 
ATOM     19  C   UNL A   1     -28.119   3.049  24.441  0.00  0.00    +0.001 A 
ATOM     20  C   UNL A   1     -27.881   0.851  23.454  0.00  0.00    +0.001 A 
ATOM     21  C   UNL A   1     -28.430   2.128  23.455  0.00  0.00    +0.000 A 
ENDBRANCH   3  16
TORSDOF 1
ENDMDL
ENDMDL
