REMARK  Name = No_2426-gen_results/8p0m/2024-11-27-11-27-31/
REMARK  6 active torsions:
REMARK  status: ('A' for Active; 'I' for Inactive)
REMARK    1  A    between atoms: C_2  and  C_5
REMARK    2  A    between atoms: C_3  and  O_18
REMARK    3  A    between atoms: C_6  and  C_31
REMARK    4  A    between atoms: O_18  and  C_19
REMARK    5  A    between atoms: C_20  and  C_21
REMARK    6  A    between atoms: C_21  and  C_22
REMARK                            x       y       z     vdW  Elec       q    Type
REMARK                         _______ _______ _______ _____ _____    ______ ____
ROOT
ATOM      1  C   UNL A   1     -28.016  -0.814  28.878  0.00  0.00    +0.035 A 
ATOM      2  C   UNL A   1     -28.469  -0.785  29.829  0.00  0.00    -0.003 A 
ATOM      3  C   UNL A   1     -28.196   0.348  28.055  0.00  0.00    +0.145 A 
ATOM      4  C   UNL A   1     -29.019   1.350  28.378  0.00  0.00    +0.041 A 
ATOM      5  C   UNL A   1     -29.595   1.286  29.605  0.00  0.00    +0.045 A 
ATOM      6  C   UNL A   1     -29.346   0.209  30.375  0.00  0.00    +0.001 A 
ENDROOT
BRANCH   2   7
ATOM      7  C   UNL A   1     -28.317  -1.981  30.856  0.00  0.00    +0.077 C 
ATOM      8  N   UNL A   1     -29.215  -2.917  30.867  0.00  0.00    -0.306 N 
ATOM      9  C   UNL A   1     -29.949  -3.043  31.813  0.00  0.00    +0.058 A 
ATOM     10  C   UNL A   1     -30.834  -3.513  32.080  0.00  0.00    -0.006 A 
ATOM     11  C   UNL A   1     -31.584  -3.586  33.346  0.00  0.00    +0.018 A 
ATOM     12  C   UNL A   1     -31.043  -2.838  34.368  0.00  0.00    +0.098 A 
ATOM     13  C   UNL A   1     -29.411  -2.179  33.143  0.00  0.00    +0.072 A 
ATOM     14  N   UNL A   1     -30.009  -2.217  34.256  0.00  0.00    -0.247 NA
ATOM     15  C   UNL A   1     -28.177  -1.434  32.903  0.00  0.00    +0.049 C 
ATOM     16  C   UNL A   1     -27.939  -1.228  32.234  0.00  0.00    +0.029 C 
ATOM     17  C   UNL A   1     -26.899  -2.667  30.438  0.00  0.00    +0.024 C 
ATOM     18  C   UNL A   1     -29.493  -3.670  29.731  0.00  0.00    +0.091 C 
ATOM     19  C   UNL A   1     -30.712  -4.400  29.766  0.00  0.00    +0.026 C 
ATOM     20  C   UNL A   1     -31.338  -4.388  30.996  0.00  0.00    +0.029 C 
ENDBRANCH   2   7
BRANCH   5  21
ATOM     21  C   UNL A   1     -30.504   2.395  30.093  0.00  0.00    +0.234 C 
ATOM     22  O   UNL A   1     -31.451   2.245  30.662  0.00  0.00    -0.283 OA
ENDBRANCH   5  21
BRANCH   3  23
ATOM     23  O   UNL A   1     -27.572   0.314  26.778  0.00  0.00    -0.451 OA
BRANCH  23  24
ATOM     24  C   UNL A   1     -26.604   1.273  26.500  0.00  0.00    +0.175 C 
ATOM     25  C   UNL A   1     -25.367   0.698  26.332  0.00  0.00    +0.019 C 
BRANCH  25  26
ATOM     26  C   UNL A   1     -24.817  -0.218  27.000  0.00  0.00    +0.056 C 
BRANCH  26  27
ATOM     27  C   UNL A   1     -24.570  -0.134  28.423  0.00  0.00    -0.018 A 
ATOM     28  C   UNL A   1     -24.053  -1.172  29.180  0.00  0.00    -0.004 A 
ATOM     29  C   UNL A   1     -23.703  -0.910  30.534  0.00  0.00    -0.000 A 
ATOM     30  C   UNL A   1     -23.906   0.286  30.985  0.00  0.00    -0.000 A 
ATOM     31  C   UNL A   1     -24.595   1.059  29.280  0.00  0.00    -0.004 A 
ATOM     32  C   UNL A   1     -24.309   1.246  30.584  0.00  0.00    -0.000 A 
ENDBRANCH  26  27
ENDBRANCH  25  26
ENDBRANCH  23  24
ENDBRANCH   3  23
TORSDOF 6
