MODEL 2426
MODEL 1
REMARK VINA RESULT:    -9.013      0.000      0.000
REMARK INTER + INTRA:         -13.500
REMARK INTER:                 -12.175
REMARK INTRA:                  -1.325
REMARK UNBOUND:                -1.325
REMARK  Name = No_2426-gen_results/8p0m/2024-11-27-11-27-31/
REMARK  6 active torsions:
REMARK  status: ('A' for Active; 'I' for Inactive)
REMARK    1  A    between atoms: C_2  and  C_5
REMARK    2  A    between atoms: C_3  and  O_18
REMARK    3  A    between atoms: C_6  and  C_31
REMARK    4  A    between atoms: O_18  and  C_19
REMARK    5  A    between atoms: C_20  and  C_21
REMARK    6  A    between atoms: C_21  and  C_22
REMARK                            x       y       z     vdW  Elec       q    Type
REMARK                         _______ _______ _______ _____ _____    ______ ____
ROOT
ATOM      1  C   UNL A   1     -25.443  -0.253  27.585  0.00  0.00    +0.035 A 
ATOM      2  C   UNL A   1     -24.654  -0.323  28.280  0.00  0.00    -0.003 A 
ATOM      3  C   UNL A   1     -25.175   0.505  26.396  0.00  0.00    +0.145 A 
ATOM      4  C   UNL A   1     -24.064   1.227  26.227  0.00  0.00    +0.041 A 
ATOM      5  C   UNL A   1     -23.116   1.112  27.191  0.00  0.00    +0.045 A 
ATOM      6  C   UNL A   1     -23.380   0.336  28.260  0.00  0.00    +0.001 A 
ENDROOT
BRANCH   2   7
ATOM      7  C   UNL A   1     -24.797  -1.162  29.616  0.00  0.00    +0.077 C 
ATOM      8  N   UNL A   1     -24.846  -2.456  29.542  0.00  0.00    -0.306 N 
ATOM      9  C   UNL A   1     -25.860  -3.042  29.822  0.00  0.00    +0.058 A 
ATOM     10  C   UNL A   1     -26.298  -3.976  29.713  0.00  0.00    -0.006 A 
ATOM     11  C   UNL A   1     -27.579  -4.538  30.176  0.00  0.00    +0.018 A 
ATOM     12  C   UNL A   1     -28.388  -3.637  30.833  0.00  0.00    +0.098 A 
ATOM     13  C   UNL A   1     -26.948  -2.060  30.631  0.00  0.00    +0.072 A 
ATOM     14  N   UNL A   1     -28.055  -2.495  31.061  0.00  0.00    -0.247 NA
ATOM     15  C   UNL A   1     -26.474  -0.692  30.830  0.00  0.00    +0.049 C 
ATOM     16  C   UNL A   1     -25.953  -0.369  30.418  0.00  0.00    +0.029 C 
ATOM     17  C   UNL A   1     -23.460  -0.769  30.460  0.00  0.00    +0.024 C 
ATOM     18  C   UNL A   1     -23.817  -3.190  28.961  0.00  0.00    +0.091 C 
ATOM     19  C   UNL A   1     -24.139  -4.532  28.625  0.00  0.00    +0.026 C 
ATOM     20  C   UNL A   1     -25.368  -4.949  29.095  0.00  0.00    +0.029 C 
ENDBRANCH   2   7
BRANCH   5  21
ATOM     21  C   UNL A   1     -21.797   1.846  27.073  0.00  0.00    +0.234 C 
ATOM     22  O   UNL A   1     -20.839   1.525  27.545  0.00  0.00    -0.283 OA
ENDBRANCH   5  21
BRANCH   3  23
ATOM     23  O   UNL A   1     -26.236   0.586  25.453  0.00  0.00    -0.451 OA
BRANCH  23  24
ATOM     24  C   UNL A   1     -26.772   1.841  25.182  0.00  0.00    +0.175 C 
ATOM     25  C   UNL A   1     -27.999   1.736  24.573  0.00  0.00    +0.019 C 
BRANCH  25  26
ATOM     26  C   UNL A   1     -28.369   0.956  23.655  0.00  0.00    +0.056 C 
BRANCH  26  27
ATOM     27  C   UNL A   1     -29.632   0.249  23.665  0.00  0.00    -0.018 A 
ATOM     28  C   UNL A   1     -30.801   0.748  23.116  0.00  0.00    -0.004 A 
ATOM     29  C   UNL A   1     -31.933  -0.112  23.044  0.00  0.00    -0.000 A 
ATOM     30  C   UNL A   1     -31.805  -1.311  23.514  0.00  0.00    -0.000 A 
ATOM     31  C   UNL A   1     -29.885  -1.152  24.029  0.00  0.00    -0.004 A 
ATOM     32  C   UNL A   1     -30.998  -1.911  23.998  0.00  0.00    -0.000 A 
ENDBRANCH  26  27
ENDBRANCH  25  26
ENDBRANCH  23  24
ENDBRANCH   3  23
TORSDOF 6
ENDMDL
ENDMDL
