REMARK  Name = No_2427-gen_results/8p0m/2024-11-27-11-27-31/
REMARK  1 active torsions:
REMARK  status: ('A' for Active; 'I' for Inactive)
REMARK    1  A    between atoms: C_3  and  C_4
REMARK                            x       y       z     vdW  Elec       q    Type
REMARK                         _______ _______ _______ _____ _____    ______ ____
ROOT
ATOM      1  C   UNL A   1     -28.016  -0.814  28.878  0.00  0.00    +0.007 A 
ATOM      2  C   UNL A   1     -28.469  -0.785  29.829  0.00  0.00    +0.000 A 
ATOM      3  C   UNL A   1     -27.136   0.236  28.535  0.00  0.00    +0.080 A 
ATOM      4  C   UNL A   1     -28.369   0.196  30.924  0.00  0.00    +0.000 A 
ATOM      5  C   UNL A   1     -27.516   1.266  30.654  0.00  0.00    +0.000 A 
ATOM      6  C   UNL A   1     -26.841   1.294  29.476  0.00  0.00    +0.007 A 
ENDROOT
BRANCH   3   7
ATOM      7  C   UNL A   1     -26.335   0.290  27.284  0.00  0.00    +0.388 C 
ATOM      8  O   UNL A   1     -25.971   1.376  26.893  0.00  0.00    -0.241 OA
ATOM      9  O   UNL A   1     -25.731  -0.763  26.853  0.00  0.00    -0.241 OA
ENDBRANCH   3   7
TORSDOF 1
