MODEL 2428
MODEL 1
REMARK VINA RESULT:    -4.863      0.000      0.000
REMARK INTER + INTRA:          -5.958
REMARK INTER:                  -5.716
REMARK INTRA:                  -0.242
REMARK UNBOUND:                -0.242
REMARK  Name = No_2428-gen_results/8p0m/2024-11-27-11-27-31/
REMARK  3 active torsions:
REMARK  status: ('A' for Active; 'I' for Inactive)
REMARK    1  A    between atoms: C_1  and  C_2
REMARK    2  A    between atoms: C_1  and  N_8
REMARK    3  A    between atoms: N_8  and  C_9
REMARK                            x       y       z     vdW  Elec       q    Type
REMARK                         _______ _______ _______ _____ _____    ______ ____
ROOT
ATOM      1  C   UNL A   1     -24.876  -2.602  29.580  0.00  0.00    -0.001 A 
ATOM      2  C   UNL A   1     -25.968  -3.339  29.907  0.00  0.00    -0.003 A 
ATOM      3  C   UNL A   1     -26.126  -4.782  29.617  0.00  0.00    -0.000 A 
ATOM      4  C   UNL A   1     -25.050  -5.426  28.922  0.00  0.00    -0.000 A 
ATOM      5  C   UNL A   1     -23.963  -4.609  28.536  0.00  0.00    -0.000 A 
ATOM      6  C   UNL A   1     -23.885  -3.274  28.840  0.00  0.00    -0.003 A 
ENDROOT
BRANCH   1   7
ATOM      7  C   UNL A   1     -24.760  -1.423  29.821  0.00  0.00    +0.139 C 
BRANCH   7   8
ATOM      8  N   UNL A   1     -23.545  -0.903  30.255  0.00  0.00    -0.232 NA
BRANCH   8   9
ATOM      9  C   UNL A   1     -23.064  -0.536  31.198  0.00  0.00    +0.081 C 
ATOM     10  C   UNL A   1     -22.963  -1.210  32.507  0.00  0.00    +0.019 C 
ENDBRANCH   8   9
ENDBRANCH   7   8
ENDBRANCH   1   7
TORSDOF 3
ENDMDL
ENDMDL
