REMARK  Name = outputs/IAG933/test6/raw/output_243_IAG933_linker_design_.xyz
REMARK  8 active torsions:
REMARK  status: ('A' for Active; 'I' for Inactive)
REMARK    1  A    between atoms: C_1  and  C_2
REMARK    2  A    between atoms: C_1  and  C_8
REMARK    3  A    between atoms: C_1  and  N_41
REMARK    4  A    between atoms: C_13  and  C_28
REMARK    5  A    between atoms: C_14  and  C_15
REMARK    6  A    between atoms: C_21  and  O_22
REMARK    7  A    between atoms: O_22  and  C_23
REMARK    8  A    between atoms: C_23  and  C_24
REMARK                            x       y       z     vdW  Elec       q    Type
REMARK                         _______ _______ _______ _____ _____    ______ ____
ROOT
ATOM      1  C   UNL A   1     -24.609   1.289  27.250  0.00  0.00    +0.075 C 
ATOM      2  C   UNL A   1     -23.217  -0.494  28.522  0.00  0.00    +0.179 C 
ATOM      3  C   UNL A   1     -25.229   0.583  28.431  0.00  0.00    +0.066 C 
ATOM      4  O   UNL A   1     -21.710  -0.383  30.101  0.00  0.00    -0.245 OA
ATOM      5  F   UNL A   1     -23.153   2.038  25.357  0.00  0.00    -0.234 F 
ATOM      6  C   UNL A   1     -26.691   0.512  28.938  0.00  0.00    +0.018 C 
ATOM      7  C   UNL A   1     -21.461   1.351  28.640  0.00  0.00    +0.238 C 
ATOM      8  F   UNL A   1     -20.887   2.330  26.793  0.00  0.00    -0.230 F 
ATOM      9  O   UNL A   1     -20.278   0.476  28.539  0.00  0.00    -0.307 OA
ATOM     10  C   UNL A   1     -23.247   1.763  26.740  0.00  0.00    +0.203 C 
ATOM     11  N   UNL A   1     -22.527   0.645  29.343  0.00  0.00    -0.118 NA
ATOM     12  C   UNL A   1     -20.979  -0.598  29.315  0.00  0.00    +0.314 C 
ATOM     13  C   UNL A   1     -21.997   1.810  27.299  0.00  0.00    +0.238 C 
ATOM     14  N   UNL A   1     -24.480  -0.165  29.111  0.00  0.00    -0.254 NA
ENDROOT
BRANCH   1  15
ATOM     15  C   UNL A   1     -25.688   1.614  26.461  0.00  0.00    +0.020 C 
ATOM     16  C   UNL A   1     -26.250   2.920  26.395  0.00  0.00    +0.073 C 
ATOM     17  C   UNL A   1     -27.438   3.091  25.645  0.00  0.00    +0.106 C 
ATOM     18  N   UNL A   1     -28.075   2.089  25.003  0.00  0.00    -0.208 NA
ATOM     19  C   UNL A   1     -27.543   0.849  25.079  0.00  0.00    +0.253 C 
ATOM     20  C   UNL A   1     -26.354   0.576  25.777  0.00  0.00    +0.189 C 
ATOM     21  F   UNL A   1     -25.860  -0.681  25.795  0.00  0.00    -0.200 F 
BRANCH  16  22
ATOM     22  C   UNL A   1     -25.642   4.093  27.123  0.00  0.00    +0.266 C 
ATOM     23  N   UNL A   1     -25.614   5.252  26.449  0.00  0.00    -0.200 NA
ATOM     24  C   UNL A   1     -25.026   6.479  26.963  0.00  0.00    +0.139 C 
ATOM     25  O   UNL A   1     -25.143   3.966  28.243  0.00  0.00    -0.268 OA
ENDBRANCH  16  22
BRANCH  19  26
ATOM     26  O   UNL A   1     -28.193  -0.208  24.477  0.00  0.00    -0.456 OA
BRANCH  26  27
ATOM     27  C   UNL A   1     -29.460   0.005  23.866  0.00  0.00    +0.243 C 
BRANCH  27  28
ATOM     28  C   UNL A   1     -30.065  -1.377  23.573  0.00  0.00    +0.229 C 
ATOM     29  O   UNL A   1     -30.729  -1.878  24.721  0.00  0.00    -0.216 OA
ENDBRANCH  27  28
ENDBRANCH  26  27
ENDBRANCH  19  26
ENDBRANCH   1  15
BRANCH  14  30
ATOM     30  C   UNL A   1     -24.855  -1.012  30.143  0.00  0.00    +0.097 C 
BRANCH  30  31
ATOM     31  C   UNL A   1     -24.973  -2.505  29.788  0.00  0.00    -0.006 C 
ATOM     32  C   UNL A   1     -23.906  -3.173  29.146  0.00  0.00    -0.003 C 
ATOM     33  C   UNL A   1     -23.989  -4.549  28.853  0.00  0.00    -0.000 C 
ATOM     34  C   UNL A   1     -25.137  -5.280  29.205  0.00  0.00    -0.000 C 
ATOM     35  C   UNL A   1     -26.232  -4.611  29.784  0.00  0.00    -0.000 C 
ATOM     36  C   UNL A   1     -26.155  -3.232  30.065  0.00  0.00    -0.003 C 
ENDBRANCH  30  31
BRANCH  30  37
ATOM     37  C   UNL A   1     -25.387  -0.679  31.571  0.00  0.00    +0.092 C 
ATOM     38  C   UNL A   1     -25.189   0.773  32.028  0.00  0.00    +0.021 C 
ATOM     39  C   UNL A   1     -25.336   0.684  33.544  0.00  0.00    +0.020 C 
ATOM     40  C   UNL A   1     -24.829  -0.715  33.905  0.00  0.00    +0.089 C 
ATOM     41  N   UNL A   1     -24.758  -1.481  32.646  0.00  0.00    -0.218 NA
ENDBRANCH  30  37
ENDBRANCH  14  30
TORSDOF 8
