REMARK  Name = outputs/IAG933/test6/raw/output_2430_IAG933_linker_design_.xyz
REMARK  10 active torsions:
REMARK  status: ('A' for Active; 'I' for Inactive)
REMARK    1  A    between atoms: C_1  and  C_2
REMARK    2  A    between atoms: C_1  and  C_8
REMARK    3  A    between atoms: C_1  and  C_35
REMARK    4  A    between atoms: C_13  and  N_30
REMARK    5  A    between atoms: C_14  and  C_15
REMARK    6  A    between atoms: C_21  and  O_22
REMARK    7  A    between atoms: O_22  and  C_23
REMARK    8  A    between atoms: C_23  and  C_24
REMARK    9  A    between atoms: C_28  and  N_41
REMARK   10  A    between atoms: C_35  and  N_41
REMARK                            x       y       z     vdW  Elec       q    Type
REMARK                         _______ _______ _______ _____ _____    ______ ____
ROOT
ATOM      1  N   UNL A   1     -24.559   1.457  27.118  0.00  0.00    -0.281 N 
ATOM      2  C   UNL A   1     -23.085   0.680  28.694  0.00  0.00    +0.189 C 
ATOM      3  C   UNL A   1     -22.389   1.702  27.804  0.00  0.00    +0.083 C 
ATOM      4  O   UNL A   1     -22.492  -0.141  29.388  0.00  0.00    -0.290 OA
ATOM      5  C   UNL A   1     -25.401  -0.124  29.057  0.00  0.00    +0.070 C 
ATOM      6  C   UNL A   1     -23.285   1.633  26.561  0.00  0.00    +0.103 C 
ATOM      7  C   UNL A   1     -24.512   0.650  28.342  0.00  0.00    +0.098 C 
ATOM      8  C   UNL A   1     -20.886   1.492  27.549  0.00  0.00    +0.010 C 
ENDROOT
BRANCH   1   9
ATOM      9  C   UNL A   1     -25.688   1.614  26.461  0.00  0.00    +0.090 C 
ATOM     10  C   UNL A   1     -26.250   2.920  26.395  0.00  0.00    +0.090 C 
ATOM     11  C   UNL A   1     -27.438   3.091  25.645  0.00  0.00    +0.108 C 
ATOM     12  N   UNL A   1     -28.075   2.089  25.003  0.00  0.00    -0.208 NA
ATOM     13  C   UNL A   1     -27.543   0.849  25.079  0.00  0.00    +0.255 C 
ATOM     14  C   UNL A   1     -26.354   0.576  25.777  0.00  0.00    +0.206 C 
ATOM     15  F   UNL A   1     -25.860  -0.681  25.795  0.00  0.00    -0.198 F 
BRANCH  10  16
ATOM     16  C   UNL A   1     -25.642   4.093  27.123  0.00  0.00    +0.268 C 
ATOM     17  N   UNL A   1     -25.614   5.252  26.449  0.00  0.00    -0.200 NA
ATOM     18  C   UNL A   1     -25.026   6.479  26.963  0.00  0.00    +0.139 C 
ATOM     19  O   UNL A   1     -25.143   3.966  28.243  0.00  0.00    -0.268 OA
ENDBRANCH  10  16
BRANCH  13  20
ATOM     20  O   UNL A   1     -28.193  -0.208  24.477  0.00  0.00    -0.456 OA
BRANCH  20  21
ATOM     21  C   UNL A   1     -29.460   0.005  23.866  0.00  0.00    +0.243 C 
BRANCH  21  22
ATOM     22  C   UNL A   1     -30.065  -1.377  23.573  0.00  0.00    +0.229 C 
ATOM     23  O   UNL A   1     -30.729  -1.878  24.721  0.00  0.00    -0.216 OA
ENDBRANCH  21  22
ENDBRANCH  20  21
ENDBRANCH  13  20
ENDBRANCH   1   9
BRANCH   5  24
ATOM     24  C   UNL A   1     -24.855  -1.012  30.143  0.00  0.00    +0.077 C 
BRANCH  24  25
ATOM     25  C   UNL A   1     -24.973  -2.505  29.788  0.00  0.00    -0.016 C 
ATOM     26  C   UNL A   1     -23.906  -3.173  29.146  0.00  0.00    -0.004 C 
ATOM     27  C   UNL A   1     -23.989  -4.549  28.853  0.00  0.00    -0.000 C 
ATOM     28  C   UNL A   1     -25.137  -5.280  29.205  0.00  0.00    -0.000 C 
ATOM     29  C   UNL A   1     -26.232  -4.611  29.784  0.00  0.00    -0.000 C 
ATOM     30  C   UNL A   1     -26.155  -3.232  30.065  0.00  0.00    -0.004 C 
ENDBRANCH  24  25
BRANCH  24  31
ATOM     31  C   UNL A   1     -25.387  -0.679  31.571  0.00  0.00    +0.082 C 
ATOM     32  C   UNL A   1     -25.189   0.773  32.028  0.00  0.00    +0.020 C 
ATOM     33  C   UNL A   1     -25.336   0.684  33.544  0.00  0.00    +0.020 C 
ATOM     34  C   UNL A   1     -24.829  -0.715  33.905  0.00  0.00    +0.089 C 
ATOM     35  N   UNL A   1     -24.758  -1.481  32.646  0.00  0.00    -0.219 NA
ENDBRANCH  24  31
ENDBRANCH   5  24
BRANCH   5  36
ATOM     36  N   UNL A   1     -26.780  -0.286  28.898  0.00  0.00    -0.214 NA
BRANCH  36  37
ATOM     37  C   UNL A   1     -28.045   0.321  29.142  0.00  0.00    +0.090 C 
ATOM     38  C   UNL A   1     -30.560   1.536  28.899  0.00  0.00    +0.018 C 
ATOM     39  C   UNL A   1     -29.289  -0.446  28.975  0.00  0.00    +0.143 C 
ATOM     40  C   UNL A   1     -29.466   2.316  29.402  0.00  0.00    +0.000 C 
ATOM     41  N   UNL A   1     -29.602  -1.699  29.477  0.00  0.00    -0.123 NA
ATOM     42  O   UNL A   1     -31.062  -0.298  27.328  0.00  0.00    -0.285 OA
ATOM     43  C   UNL A   1     -32.046   1.921  29.176  0.00  0.00    +0.034 C 
ATOM     44  C   UNL A   1     -30.322   0.248  28.379  0.00  0.00    +0.209 C 
ATOM     45  C   UNL A   1     -28.205   1.693  29.515  0.00  0.00    +0.018 C 
ENDBRANCH  36  37
ENDBRANCH   5  36
TORSDOF 10
