MODEL 2430
MODEL 1
REMARK VINA RESULT:    -6.294      0.000      0.000
REMARK INTER + INTRA:          -8.026
REMARK INTER:                  -7.398
REMARK INTRA:                  -0.628
REMARK UNBOUND:                -0.628
REMARK  Name = No_2430-gen_results/8p0m/2024-11-27-11-27-31/
REMARK  3 active torsions:
REMARK  status: ('A' for Active; 'I' for Inactive)
REMARK    1  A    between atoms: C_1  and  C_2
REMARK    2  A    between atoms: C_5  and  C_10
REMARK    3  A    between atoms: C_14  and  C_15
REMARK                            x       y       z     vdW  Elec       q    Type
REMARK                         _______ _______ _______ _____ _____    ______ ____
ROOT
ATOM      1  C   UNL A   1      -7.205  -0.358  34.719  0.00  0.00    -0.003 A 
ATOM      2  C   UNL A   1      -6.911  -1.699  34.499  0.00  0.00    -0.003 A 
ATOM      3  C   UNL A   1      -5.555  -2.319  34.525  0.00  0.00    +0.004 A 
ATOM      4  C   UNL A   1      -4.457  -1.415  34.635  0.00  0.00    +0.071 A 
ATOM      5  C   UNL A   1      -4.776  -0.052  34.797  0.00  0.00    +0.004 A 
ATOM      6  C   UNL A   1      -6.023   0.440  34.819  0.00  0.00    -0.003 A 
ENDROOT
BRANCH   1   7
ATOM      7  C   UNL A   1      -8.344   0.045  34.684  0.00  0.00    +0.117 C 
ATOM      8  N   UNL A   1      -8.502   1.263  34.058  0.00  0.00    -0.203 NA
ATOM      9  C   UNL A   1      -9.664   1.948  34.239  0.00  0.00    +0.244 C 
ATOM     10  C   UNL A   1     -10.411   1.635  35.299  0.00  0.00    +0.111 C 
ATOM     11  C   UNL A   1     -10.062   0.619  36.301  0.00  0.00    +0.014 C 
ATOM     12  C   UNL A   1      -9.000  -0.126  36.015  0.00  0.00    +0.027 C 
ATOM     13  O   UNL A   1      -9.931   2.880  33.481  0.00  0.00    -0.273 OA
BRANCH  10  14
ATOM     14  C   UNL A   1     -11.743   2.050  35.421  0.00  0.00    +0.191 C 
ATOM     15  O   UNL A   1     -12.567   1.579  34.831  0.00  0.00    -0.220 OA
ENDBRANCH  10  14
ENDBRANCH   1   7
BRANCH   4  16
ATOM     16  C   UNL A   1      -3.139  -2.007  34.622  0.00  0.00    +0.419 C 
ATOM     17  F   UNL A   1      -2.849  -2.624  35.652  0.00  0.00    -0.166 F 
ATOM     18  F   UNL A   1      -2.898  -2.856  33.593  0.00  0.00    -0.166 F 
ATOM     19  F   UNL A   1      -2.164  -1.048  34.461  0.00  0.00    -0.166 F 
ENDBRANCH   4  16
TORSDOF 3
ENDMDL
ENDMDL
