MODEL 2432
MODEL 1
REMARK VINA RESULT:    -4.565      0.000      0.000
REMARK INTER + INTRA:          -4.565
REMARK INTER:                  -4.565
REMARK INTRA:                   0.000
REMARK UNBOUND:                 0.000
REMARK  Name = No_2432-gen_results/8p0m/2024-11-27-11-27-31/
REMARK  0 active torsions:
REMARK  status: ('A' for Active; 'I' for Inactive)
REMARK                            x       y       z     vdW  Elec       q    Type
REMARK                         _______ _______ _______ _____ _____    ______ ____
ROOT
ATOM      1  C   UNL A   1      -9.412  -9.160  20.304  0.00  0.00    +0.030 A 
ATOM      2  C   UNL A   1     -10.279  -9.145  19.462  0.00  0.00    +0.002 A 
ATOM      3  C   UNL A   1     -10.142  -9.858  18.277  0.00  0.00    +0.000 A 
ATOM      4  C   UNL A   1      -8.941 -10.601  17.994  0.00  0.00    +0.002 A 
ATOM      5  C   UNL A   1      -7.980 -10.545  19.011  0.00  0.00    +0.030 A 
ATOM      6  C   UNL A   1      -8.151  -9.842  20.107  0.00  0.00    +0.140 A 
ATOM      7  F   UNL A   1      -7.199  -9.837  21.020  0.00  0.00    -0.204 F 
ENDROOT
TORSDOF 0
ENDMDL
ENDMDL
