MODEL 2433
MODEL 1
REMARK VINA RESULT:    -7.806      0.000      0.000
REMARK INTER + INTRA:         -11.813
REMARK INTER:                 -10.088
REMARK INTRA:                  -1.725
REMARK UNBOUND:                -1.725
REMARK  Name = No_2433-gen_results/8p0m/2024-11-27-11-27-31/
REMARK  5 active torsions:
REMARK  status: ('A' for Active; 'I' for Inactive)
REMARK    1  A    between atoms: C_4  and  C_6
REMARK    2  A    between atoms: C_6  and  C_8
REMARK    3  A    between atoms: C_6  and  C_14
REMARK    4  A    between atoms: C_7  and  C_20
REMARK    5  A    between atoms: CA_22  and  C_24
REMARK                            x       y       z     vdW  Elec       q    Type
REMARK                         _______ _______ _______ _____ _____    ______ ____
ROOT
ATOM      1  C   UNL A   1     -20.723  -0.219  28.728  0.00  0.00    -0.000 A 
ATOM      2  C   UNL A   1     -20.974   0.508  28.008  0.00  0.00    +0.000 A 
ATOM      3  C   UNL A   1     -21.769  -0.598  29.636  0.00  0.00    -0.004 A 
ATOM      4  C   UNL A   1     -22.945   0.034  29.698  0.00  0.00    -0.013 A 
ATOM      5  C   UNL A   1     -22.169   1.332  27.899  0.00  0.00    +0.001 A 
ATOM      6  C   UNL A   1     -23.108   0.999  28.739  0.00  0.00    +0.014 A 
ENDROOT
BRANCH   6   7
ATOM      7  C   UNL A   1     -24.417   1.782  28.762  0.00  0.00    +0.081 A 
ATOM      8  N   UNL A   1     -24.710   2.684  29.093  0.00  0.00    -0.242 NA
ATOM      9  CA  UNL A   1     -25.960   3.329  29.137  0.00  0.00    +0.123 A 
ATOM     10  C   UNL A   1     -25.283   1.131  27.811  0.00  0.00    +0.019 A 
ATOM     11  C   UNL A   1     -26.951   2.908  28.314  0.00  0.00    +0.022 A 
ATOM     12  C   UNL A   1     -26.318   1.572  27.627  0.00  0.00    +0.003 A 
BRANCH   9  13
ATOM     13  C   UNL A   1     -26.229   4.385  30.027  0.00  0.00    +0.253 C 
ATOM     14  O   UNL A   1     -25.513   5.355  30.149  0.00  0.00    -0.281 OA
ENDBRANCH   9  13
ENDBRANCH   6   7
BRANCH   4  15
ATOM     15  C   UNL A   1     -23.974  -0.321  30.625  0.00  0.00    +0.067 C 
BRANCH  15  16
ATOM     16  C   UNL A   1     -24.181  -0.320  31.744  0.00  0.00    -0.014 A 
ATOM     17  C   UNL A   1     -25.320   0.579  32.150  0.00  0.00    -0.004 A 
ATOM     18  C   UNL A   1     -25.560   0.695  33.568  0.00  0.00    -0.000 A 
ATOM     19  C   UNL A   1     -25.266   0.009  34.235  0.00  0.00    -0.000 A 
ATOM     20  C   UNL A   1     -24.188  -1.014  34.113  0.00  0.00    -0.000 A 
ATOM     21  C   UNL A   1     -23.701  -1.156  32.806  0.00  0.00    -0.004 A 
ENDBRANCH  15  16
BRANCH  15  22
ATOM     22  C   UNL A   1     -24.409  -1.711  29.993  0.00  0.00    -0.014 A 
ATOM     23  C   UNL A   1     -25.748  -2.088  30.371  0.00  0.00    -0.004 A 
ATOM     24  C   UNL A   1     -26.232  -3.282  29.868  0.00  0.00    -0.000 A 
ATOM     25  C   UNL A   1     -25.366  -4.152  29.116  0.00  0.00    -0.000 A 
ATOM     26  C   UNL A   1     -24.085  -3.779  28.817  0.00  0.00    -0.000 A 
ATOM     27  C   UNL A   1     -23.633  -2.559  29.269  0.00  0.00    -0.004 A 
ENDBRANCH  15  22
ENDBRANCH   4  15
TORSDOF 5
ENDMDL
ENDMDL
