MODEL 2435
MODEL 1
REMARK VINA RESULT:    -5.283      0.000      0.000
REMARK INTER + INTRA:          -5.283
REMARK INTER:                  -5.283
REMARK INTRA:                   0.000
REMARK UNBOUND:                 0.000
REMARK  Name = No_2435-gen_results/8p0m/2024-11-27-11-27-31/
REMARK  0 active torsions:
REMARK  status: ('A' for Active; 'I' for Inactive)
REMARK                            x       y       z     vdW  Elec       q    Type
REMARK                         _______ _______ _______ _____ _____    ______ ____
ROOT
ATOM      1  C   UNL A   1     -25.813  -1.284  30.226  0.00  0.00    +0.153 C 
ATOM      2  C   UNL A   1     -25.504  -2.399  29.874  0.00  0.00    -0.000 A 
ATOM      3  C   UNL A   1     -26.378  -3.469  30.027  0.00  0.00    -0.003 A 
ATOM      4  C   UNL A   1     -26.111  -4.885  29.646  0.00  0.00    -0.000 A 
ATOM      5  C   UNL A   1     -24.907  -5.119  28.918  0.00  0.00    -0.000 A 
ATOM      6  C   UNL A   1     -24.063  -4.008  28.720  0.00  0.00    -0.003 A 
ATOM      7  C   UNL A   1     -24.335  -2.763  29.136  0.00  0.00    -0.003 A 
ATOM      8  N   UNL A   1     -24.805  -0.537  30.765  0.00  0.00    -0.248 NA
ATOM      9  C   UNL A   1     -23.845  -0.229  30.367  0.00  0.00    +0.177 C 
ATOM     10  N   UNL A   1     -22.903  -0.907  29.564  0.00  0.00    -0.213 NA
ATOM     11  C   UNL A   1     -23.119  -1.918  29.095  0.00  0.00    +0.140 C 
ENDROOT
TORSDOF 0
ENDMDL
ENDMDL
