REMARK  Name = No_2435-gen_results/8p0m/2024-11-27-11-27-31/
REMARK  0 active torsions:
REMARK  status: ('A' for Active; 'I' for Inactive)
REMARK                            x       y       z     vdW  Elec       q    Type
REMARK                         _______ _______ _______ _____ _____    ______ ____
ROOT
ATOM      1  C   UNL A   1     -28.016  -0.814  28.878  0.00  0.00    +0.153 C 
ATOM      2  C   UNL A   1     -27.064  -0.119  28.608  0.00  0.00    -0.000 A 
ATOM      3  C   UNL A   1     -25.792  -0.430  29.076  0.00  0.00    -0.003 A 
ATOM      4  C   UNL A   1     -24.546   0.349  28.823  0.00  0.00    -0.000 A 
ATOM      5  C   UNL A   1     -24.659   1.420  27.888  0.00  0.00    -0.000 A 
ATOM      6  C   UNL A   1     -25.947   1.681  27.379  0.00  0.00    -0.003 A 
ATOM      7  C   UNL A   1     -27.044   0.974  27.687  0.00  0.00    -0.003 A 
ATOM      8  N   UNL A   1     -29.188  -0.147  29.092  0.00  0.00    -0.248 NA
ATOM      9  C   UNL A   1     -29.759   0.526  28.463  0.00  0.00    +0.177 C 
ATOM     10  N   UNL A   1     -29.355   1.538  27.566  0.00  0.00    -0.213 NA
ATOM     11  C   UNL A   1     -28.269   1.702  27.282  0.00  0.00    +0.140 C 
ENDROOT
TORSDOF 0
