MODEL 2436
MODEL 1
REMARK VINA RESULT:    -6.662      0.000      0.000
REMARK INTER + INTRA:          -8.212
REMARK INTER:                  -7.831
REMARK INTRA:                  -0.381
REMARK UNBOUND:                -0.381
REMARK  Name = No_2436-gen_results/8p0m/2024-11-27-11-27-31/
REMARK  3 active torsions:
REMARK  status: ('A' for Active; 'I' for Inactive)
REMARK    1  A    between atoms: C_2  and  N_7
REMARK    2  A    between atoms: N_7  and  C_8
REMARK    3  A    between atoms: C_8  and  C_9
REMARK                            x       y       z     vdW  Elec       q    Type
REMARK                         _______ _______ _______ _____ _____    ______ ____
ROOT
ATOM      1  N   UNL A   1     -24.273  -1.326  29.454  0.00  0.00    -0.233 NA
ENDROOT
BRANCH   1   3
ATOM      2  C   UNL A   1     -23.843  -3.427  28.891  0.00  0.00    +0.016 A 
ATOM      3  C   UNL A   1     -24.570  -2.796  29.319  0.00  0.00    +0.066 A 
ATOM      4  C   UNL A   1     -24.215  -4.841  28.721  0.00  0.00    +0.001 A 
ATOM      5  C   UNL A   1     -25.295  -5.258  29.127  0.00  0.00    +0.000 A 
ATOM      6  C   UNL A   1     -25.956  -3.038  29.763  0.00  0.00    +0.016 A 
ATOM      7  C   UNL A   1     -26.285  -4.356  29.669  0.00  0.00    +0.001 A 
ENDBRANCH   1   3
BRANCH   1   8
ATOM      8  C   UNL A   1     -23.141  -0.752  29.197  0.00  0.00    +0.139 C 
BRANCH   8   9
ATOM      9  C   UNL A   1     -23.060   0.068  28.319  0.00  0.00    -0.001 A 
ATOM     10  C   UNL A   1     -24.219   0.263  27.345  0.00  0.00    -0.003 A 
ATOM     11  C   UNL A   1     -24.210   1.208  26.309  0.00  0.00    -0.000 A 
ATOM     12  C   UNL A   1     -23.024   1.991  26.171  0.00  0.00    -0.000 A 
ATOM     13  C   UNL A   1     -21.931   1.872  27.039  0.00  0.00    -0.000 A 
ATOM     14  C   UNL A   1     -21.973   0.985  28.039  0.00  0.00    -0.003 A 
ENDBRANCH   8   9
ENDBRANCH   1   8
TORSDOF 3
ENDMDL
ENDMDL
