REMARK  Name = No_2437-gen_results/8p0m/2024-11-27-11-27-31/
REMARK  7 active torsions:
REMARK  status: ('A' for Active; 'I' for Inactive)
REMARK    1  A    between atoms: C_2  and  C_3
REMARK    2  A    between atoms: C_3  and  C_5
REMARK    3  A    between atoms: N_4  and  C_13
REMARK    4  A    between atoms: N_4  and  C_14
REMARK    5  A    between atoms: C_6  and  C_7
REMARK    6  A    between atoms: C_14  and  C_21
REMARK    7  A    between atoms: C_21  and  C_22
REMARK                            x       y       z     vdW  Elec       q    Type
REMARK                         _______ _______ _______ _____ _____    ______ ____
ROOT
ATOM      1  O   UNL A   1     -28.123  -1.335  28.487  0.00  0.00    -0.275 OA
ATOM      2  C   UNL A   1     -28.521  -0.436  29.078  0.00  0.00    +0.230 C 
ATOM      3  N   UNL A   1     -28.787  -0.887  30.487  0.00  0.00    -0.258 N 
ENDROOT
BRANCH   3   4
ATOM      4  C   UNL A   1     -29.322  -0.085  31.541  0.00  0.00    +0.054 A 
ATOM      5  C   UNL A   1     -30.483  -0.454  32.109  0.00  0.00    +0.015 A 
ATOM      6  C   UNL A   1     -31.091   0.360  32.805  0.00  0.00    +0.001 A 
ATOM      7  C   UNL A   1     -30.544   1.686  33.126  0.00  0.00    +0.000 A 
ATOM      8  C   UNL A   1     -29.599   1.927  32.728  0.00  0.00    +0.001 A 
ATOM      9  C   UNL A   1     -28.792   1.191  31.797  0.00  0.00    +0.015 A 
ENDBRANCH   3   4
BRANCH   2  10
ATOM     10  C   UNL A   1     -28.589   0.592  28.946  0.00  0.00    +0.091 C 
BRANCH  10  11
ATOM     11  C   UNL A   1     -27.784   1.282  27.987  0.00  0.00    +0.039 C 
ATOM     12  C   UNL A   1     -26.427   1.040  27.994  0.00  0.00    +0.048 C 
ATOM     13  C   UNL A   1     -25.958   0.568  26.610  0.00  0.00    -0.026 C 
ATOM     14  C   UNL A   1     -25.825   1.382  25.626  0.00  0.00    -0.026 C 
ATOM     15  C   UNL A   1     -28.373   2.163  27.007  0.00  0.00    -0.029 C 
ATOM     16  C   UNL A   1     -28.055   2.301  25.666  0.00  0.00    -0.026 C 
ATOM     17  C   UNL A   1     -26.859   2.116  25.072  0.00  0.00    +0.051 C 
BRANCH  12  18
ATOM     18  C   UNL A   1     -25.637   1.302  28.829  0.00  0.00    -0.018 A 
ATOM     19  C   UNL A   1     -24.153   1.005  28.769  0.00  0.00    -0.004 A 
ATOM     20  C   UNL A   1     -23.358   0.694  29.770  0.00  0.00    -0.000 A 
ATOM     21  C   UNL A   1     -23.862   0.972  31.112  0.00  0.00    -0.000 A 
ATOM     22  C   UNL A   1     -25.203   1.404  31.300  0.00  0.00    -0.000 A 
ATOM     23  C   UNL A   1     -26.016   1.440  30.178  0.00  0.00    -0.004 A 
ENDBRANCH  12  18
ENDBRANCH  10  11
ENDBRANCH   2  10
BRANCH   3  24
ATOM     24  C   UNL A   1     -28.538  -2.330  30.921  0.00  0.00    +0.110 C 
BRANCH  24  25
ATOM     25  C   UNL A   1     -28.349  -3.222  30.009  0.00  0.00    +0.136 C 
BRANCH  25  26
ATOM     26  C   UNL A   1     -28.270  -4.492  30.704  0.00  0.00    +0.367 C 
ATOM     27  O   UNL A   1     -27.799  -5.402  30.049  0.00  0.00    -0.246 OA
ATOM     28  O   UNL A   1     -28.922  -4.797  31.709  0.00  0.00    -0.246 OA
ENDBRANCH  25  26
ENDBRANCH  24  25
ENDBRANCH   3  24
TORSDOF 7
