MODEL 2437
MODEL 1
REMARK VINA RESULT:    -8.245      0.000      0.000
REMARK INTER + INTRA:         -12.993
REMARK INTER:                 -11.620
REMARK INTRA:                  -1.374
REMARK UNBOUND:                -1.374
REMARK  Name = No_2437-gen_results/8p0m/2024-11-27-11-27-31/
REMARK  7 active torsions:
REMARK  status: ('A' for Active; 'I' for Inactive)
REMARK    1  A    between atoms: C_2  and  C_3
REMARK    2  A    between atoms: C_3  and  C_5
REMARK    3  A    between atoms: N_4  and  C_13
REMARK    4  A    between atoms: N_4  and  C_14
REMARK    5  A    between atoms: C_6  and  C_7
REMARK    6  A    between atoms: C_14  and  C_21
REMARK    7  A    between atoms: C_21  and  C_22
REMARK                            x       y       z     vdW  Elec       q    Type
REMARK                         _______ _______ _______ _____ _____    ______ ____
ROOT
ATOM      1  O   UNL A   1     -26.549   0.722  30.017  0.00  0.00    -0.275 OA
ATOM      2  C   UNL A   1     -26.412  -0.262  29.444  0.00  0.00    +0.230 C 
ATOM      3  N   UNL A   1     -25.816  -1.270  30.386  0.00  0.00    -0.258 N 
ENDROOT
BRANCH   3   4
ATOM      4  C   UNL A   1     -25.454  -2.613  30.064  0.00  0.00    +0.054 A 
ATOM      5  C   UNL A   1     -24.263  -2.841  29.485  0.00  0.00    +0.015 A 
ATOM      6  C   UNL A   1     -24.059  -3.932  28.951  0.00  0.00    +0.001 A 
ATOM      7  C   UNL A   1     -25.030  -5.034  29.014  0.00  0.00    +0.000 A 
ATOM      8  C   UNL A   1     -25.928  -4.856  29.534  0.00  0.00    +0.001 A 
ATOM      9  C   UNL A   1     -26.419  -3.634  30.106  0.00  0.00    +0.015 A 
ENDBRANCH   3   4
BRANCH   2  10
ATOM     10  C   UNL A   1     -26.724  -0.666  28.539  0.00  0.00    +0.091 C 
BRANCH  10  11
ATOM     11  C   UNL A   1     -26.614   0.062  27.313  0.00  0.00    +0.039 C 
ATOM     12  C   UNL A   1     -25.368   0.158  26.732  0.00  0.00    +0.048 C 
ATOM     13  C   UNL A   1     -25.405  -0.370  25.291  0.00  0.00    -0.026 C 
ATOM     14  C   UNL A   1     -25.923   0.310  24.333  0.00  0.00    -0.026 C 
ATOM     15  C   UNL A   1     -27.775   0.633  26.673  0.00  0.00    -0.029 C 
ATOM     16  C   UNL A   1     -28.094   0.660  25.325  0.00  0.00    -0.026 C 
ATOM     17  C   UNL A   1     -27.252   0.690  24.272  0.00  0.00    +0.051 C 
BRANCH  12  18
ATOM     18  C   UNL A   1     -24.409   0.714  27.134  0.00  0.00    -0.018 A 
ATOM     19  C   UNL A   1     -23.744   1.912  26.489  0.00  0.00    -0.004 A 
ATOM     20  C   UNL A   1     -22.461   2.200  26.469  0.00  0.00    -0.000 A 
ATOM     21  C   UNL A   1     -21.618   1.486  27.425  0.00  0.00    -0.000 A 
ATOM     22  C   UNL A   1     -22.158   0.430  28.208  0.00  0.00    -0.000 A 
ATOM     23  C   UNL A   1     -23.464   0.052  27.942  0.00  0.00    -0.004 A 
ENDBRANCH  12  18
ENDBRANCH  10  11
ENDBRANCH   2  10
BRANCH   3  24
ATOM     24  C   UNL A   1     -25.486  -0.908  31.833  0.00  0.00    +0.110 C 
BRANCH  24  25
ATOM     25  C   UNL A   1     -24.434  -0.200  32.065  0.00  0.00    +0.136 C 
BRANCH  25  26
ATOM     26  C   UNL A   1     -23.490  -1.089  32.713  0.00  0.00    +0.367 C 
ATOM     27  O   UNL A   1     -23.819  -1.460  33.823  0.00  0.00    -0.246 OA
ATOM     28  O   UNL A   1     -22.298  -1.209  32.407  0.00  0.00    -0.246 OA
ENDBRANCH  25  26
ENDBRANCH  24  25
ENDBRANCH   3  24
TORSDOF 7
ENDMDL
ENDMDL
