REMARK  Name = outputs/IAG933/test6/raw/output_2438_IAG933_linker_design_.xyz
REMARK  12 active torsions:
REMARK  status: ('A' for Active; 'I' for Inactive)
REMARK    1  A    between atoms: C_1  and  C_2
REMARK    2  A    between atoms: C_1  and  C_8
REMARK    3  A    between atoms: C_1  and  C_37
REMARK    4  A    between atoms: C_14  and  C_15
REMARK    5  A    between atoms: C_21  and  O_22
REMARK    6  A    between atoms: O_22  and  C_23
REMARK    7  A    between atoms: C_23  and  C_24
REMARK    8  A    between atoms: C_28  and  N_34
REMARK    9  A    between atoms: C_28  and  C_36
REMARK   10  A    between atoms: C_28  and  C_37
REMARK   11  A    between atoms: C_31  and  C_33
REMARK   12  A    between atoms: C_37  and  C_40
REMARK                            x       y       z     vdW  Elec       q    Type
REMARK                         _______ _______ _______ _____ _____    ______ ____
ROOT
ATOM      1  C   UNL A   1     -24.268   0.200  27.811  0.00  0.00    +0.161 C 
ENDROOT
BRANCH   1   9
ATOM      2  C   UNL A   1     -25.688   1.614  26.461  0.00  0.00    +0.101 C 
ATOM      3  C   UNL A   1     -26.250   2.920  26.395  0.00  0.00    +0.090 C 
ATOM      4  C   UNL A   1     -27.438   3.091  25.645  0.00  0.00    +0.108 C 
ATOM      5  N   UNL A   1     -28.075   2.089  25.003  0.00  0.00    -0.211 NA
ATOM      6  C   UNL A   1     -27.543   0.849  25.079  0.00  0.00    +0.240 C 
ATOM      7  C   UNL A   1     -26.354   0.576  25.777  0.00  0.00    +0.275 C 
ATOM      8  F   UNL A   1     -25.860  -0.681  25.795  0.00  0.00    -0.221 F 
ATOM      9  N   UNL A   1     -24.860   1.303  27.286  0.00  0.00    -0.268 NA
BRANCH   3  10
ATOM     10  C   UNL A   1     -25.642   4.093  27.123  0.00  0.00    +0.268 C 
ATOM     11  N   UNL A   1     -25.614   5.252  26.449  0.00  0.00    -0.200 NA
ATOM     12  C   UNL A   1     -25.026   6.479  26.963  0.00  0.00    +0.139 C 
ATOM     13  O   UNL A   1     -25.143   3.966  28.243  0.00  0.00    -0.268 OA
ENDBRANCH   3  10
BRANCH   6  14
ATOM     14  O   UNL A   1     -28.193  -0.208  24.477  0.00  0.00    -0.458 OA
BRANCH  14  15
ATOM     15  C   UNL A   1     -29.460   0.005  23.866  0.00  0.00    +0.242 C 
BRANCH  15  16
ATOM     16  C   UNL A   1     -30.065  -1.377  23.573  0.00  0.00    +0.229 C 
ATOM     17  O   UNL A   1     -30.729  -1.878  24.721  0.00  0.00    -0.216 OA
ENDBRANCH  15  16
ENDBRANCH  14  15
ENDBRANCH   6  14
ENDBRANCH   1   9
BRANCH   1  19
ATOM     18  O   UNL A   1     -22.614   0.819  29.377  0.00  0.00    -0.190 OA
ATOM     19  C   UNL A   1     -22.745   0.741  27.883  0.00  0.00    +0.268 C 
ATOM     20  O   UNL A   1     -22.672   1.629  26.785  0.00  0.00    -0.323 OA
ATOM     21  C   UNL A   1     -21.371   1.362  27.287  0.00  0.00    +0.206 C 
ENDBRANCH   1  19
BRANCH   1  22
ATOM     22  C   UNL A   1     -25.184  -0.116  28.987  0.00  0.00    +0.049 C 
BRANCH  22  27
ATOM     23  C   UNL A   1     -27.816  -0.473  28.698  0.00  0.00    +0.030 C 
ATOM     24  C   UNL A   1     -28.493   1.831  29.253  0.00  0.00    +0.100 C 
ATOM     25  C   UNL A   1     -29.035   0.351  29.305  0.00  0.00    +0.122 C 
ATOM     26  N   UNL A   1     -26.953   1.675  29.078  0.00  0.00    -0.219 NA
ATOM     27  C   UNL A   1     -26.594   0.307  29.020  0.00  0.00    +0.076 C 
BRANCH  25  28
ATOM     28  C   UNL A   1     -30.134   0.066  28.266  0.00  0.00    +0.366 C 
ATOM     29  O   UNL A   1     -30.661   0.934  27.536  0.00  0.00    -0.246 OA
ATOM     30  O   UNL A   1     -30.500  -1.143  28.202  0.00  0.00    -0.246 OA
ENDBRANCH  25  28
ENDBRANCH  22  27
BRANCH  22  31
ATOM     31  C   UNL A   1     -24.855  -1.012  30.143  0.00  0.00    +0.042 C 
BRANCH  31  32
ATOM     32  C   UNL A   1     -24.973  -2.505  29.788  0.00  0.00    -0.021 C 
ATOM     33  C   UNL A   1     -23.906  -3.173  29.146  0.00  0.00    -0.004 C 
ATOM     34  C   UNL A   1     -23.989  -4.549  28.853  0.00  0.00    -0.000 C 
ATOM     35  C   UNL A   1     -25.137  -5.280  29.205  0.00  0.00    -0.000 C 
ATOM     36  C   UNL A   1     -26.232  -4.611  29.784  0.00  0.00    -0.000 C 
ATOM     37  C   UNL A   1     -26.155  -3.232  30.065  0.00  0.00    -0.004 C 
ENDBRANCH  31  32
BRANCH  31  38
ATOM     38  C   UNL A   1     -25.387  -0.679  31.571  0.00  0.00    +0.077 C 
ATOM     39  C   UNL A   1     -25.189   0.773  32.028  0.00  0.00    +0.019 C 
ATOM     40  C   UNL A   1     -25.336   0.684  33.544  0.00  0.00    +0.020 C 
ATOM     41  C   UNL A   1     -24.829  -0.715  33.905  0.00  0.00    +0.089 C 
ATOM     42  N   UNL A   1     -24.758  -1.481  32.646  0.00  0.00    -0.219 NA
ENDBRANCH  31  38
ENDBRANCH  22  31
ENDBRANCH   1  22
TORSDOF 12
