MODEL 2439
MODEL 1
REMARK VINA RESULT:    -6.165      0.000      0.000
REMARK INTER + INTRA:          -7.205
REMARK INTER:                  -6.885
REMARK INTRA:                  -0.320
REMARK UNBOUND:                -0.320
REMARK  Name = No_2439-gen_results/8p0m/2024-11-27-11-27-31/
REMARK  2 active torsions:
REMARK  status: ('A' for Active; 'I' for Inactive)
REMARK    1  A    between atoms: C_2  and  C_7
REMARK    2  A    between atoms: N_8  and  C_9
REMARK                            x       y       z     vdW  Elec       q    Type
REMARK                         _______ _______ _______ _____ _____    ______ ____
ROOT
ATOM      1  C   UNL A   1     -24.821  -1.070  28.740  0.00  0.00    +0.269 C 
ATOM      2  N   UNL A   1     -24.545  -0.663  27.519  0.00  0.00    -0.175 NA
ATOM      3  O   UNL A   1     -24.844  -0.351  29.672  0.00  0.00    -0.268 OA
ENDROOT
BRANCH   1   5
ATOM      4  C   UNL A   1     -25.930  -2.789  29.487  0.00  0.00    +0.005 A 
ATOM      5  C   UNL A   1     -25.039  -2.609  28.953  0.00  0.00    +0.055 A 
ATOM      6  C   UNL A   1     -26.291  -4.198  29.712  0.00  0.00    +0.000 A 
ATOM      7  C   UNL A   1     -25.395  -5.243  29.343  0.00  0.00    +0.000 A 
ATOM      8  C   UNL A   1     -23.924  -3.494  28.518  0.00  0.00    +0.005 A 
ATOM      9  C   UNL A   1     -24.226  -4.810  28.701  0.00  0.00    +0.000 A 
ENDBRANCH   1   5
BRANCH   2  10
ATOM     10  C   UNL A   1     -24.419   0.464  27.146  0.00  0.00    +0.074 A 
ATOM     11  C   UNL A   1     -23.132   1.137  27.158  0.00  0.00    +0.017 A 
ATOM     12  C   UNL A   1     -25.543   1.173  26.567  0.00  0.00    +0.017 A 
ATOM     13  C   UNL A   1     -25.449   2.485  26.095  0.00  0.00    +0.001 A 
ATOM     14  C   UNL A   1     -23.090   2.471  26.688  0.00  0.00    +0.001 A 
ATOM     15  C   UNL A   1     -24.170   3.105  26.186  0.00  0.00    +0.000 A 
ENDBRANCH   2  10
TORSDOF 2
ENDMDL
ENDMDL
