MODEL 243
MODEL 1
REMARK VINA RESULT:    -6.502      0.000      0.000
REMARK INTER + INTRA:          -7.769
REMARK INTER:                  -7.262
REMARK INTRA:                  -0.507
REMARK UNBOUND:                -0.507
REMARK  Name = No_243-gen_results/8p0m/2024-11-27-11-27-31/
REMARK  2 active torsions:
REMARK  status: ('A' for Active; 'I' for Inactive)
REMARK    1  A    between atoms: C_4  and  C_6
REMARK    2  A    between atoms: C_6  and  C_8
REMARK                            x       y       z     vdW  Elec       q    Type
REMARK                         _______ _______ _______ _____ _____    ______ ____
ROOT
ATOM      1  C   UNL A   1     -24.338  -1.251  29.446  0.00  0.00    +0.053 C 
ENDROOT
BRANCH   1   5
ATOM      2  C   UNL A   1     -24.186  -4.958  28.610  0.00  0.00    -0.000 A 
ATOM      3  C   UNL A   1     -25.119  -5.252  29.004  0.00  0.00    -0.000 A 
ATOM      4  C   UNL A   1     -23.826  -3.597  28.716  0.00  0.00    -0.004 A 
ATOM      5  C   UNL A   1     -24.659  -2.664  29.301  0.00  0.00    -0.018 A 
ATOM      6  C   UNL A   1     -26.178  -4.470  29.672  0.00  0.00    -0.000 A 
ATOM      7  C   UNL A   1     -25.864  -3.144  29.798  0.00  0.00    -0.004 A 
ENDBRANCH   1   5
BRANCH   1   8
ATOM      8  C   UNL A   1     -24.209  -0.436  28.483  0.00  0.00    -0.018 A 
ATOM      9  C   UNL A   1     -23.073   0.433  28.297  0.00  0.00    -0.004 A 
ATOM     10  C   UNL A   1     -25.160  -0.422  27.391  0.00  0.00    -0.004 A 
ATOM     11  C   UNL A   1     -24.899   0.488  26.322  0.00  0.00    -0.000 A 
ATOM     12  C   UNL A   1     -23.841   1.297  26.262  0.00  0.00    -0.000 A 
ATOM     13  C   UNL A   1     -22.904   1.326  27.343  0.00  0.00    -0.000 A 
ENDBRANCH   1   8
TORSDOF 2
ENDMDL
ENDMDL
