REMARK  Name = outputs/IAG933/test6/raw/output_244_IAG933_linker_design_.xyz
REMARK  13 active torsions:
REMARK  status: ('A' for Active; 'I' for Inactive)
REMARK    1  A    between atoms: C_1  and  C_2
REMARK    2  A    between atoms: C_1  and  C_8
REMARK    3  A    between atoms: C_1  and  C_41
REMARK    4  A    between atoms: C_13  and  C_35
REMARK    5  A    between atoms: C_14  and  C_15
REMARK    6  A    between atoms: C_21  and  O_22
REMARK    7  A    between atoms: O_22  and  C_23
REMARK    8  A    between atoms: C_23  and  C_24
REMARK    9  A    between atoms: C_28  and  C_41
REMARK   10  A    between atoms: C_28  and  C_45
REMARK   11  A    between atoms: C_31  and  C_41
REMARK   12  A    between atoms: C_38  and  C_45
REMARK   13  A    between atoms: O_43  and  C_44
REMARK                            x       y       z     vdW  Elec       q    Type
REMARK                         _______ _______ _______ _____ _____    ______ ____
ROOT
ATOM      1  C   UNL A   1     -25.555  -0.107  29.131  0.00  0.00    +0.040 C 
ENDROOT
BRANCH   1   3
ATOM      2  N   UNL A   1     -22.546   1.241  27.689  0.00  0.00    -0.226 N 
ATOM      3  C   UNL A   1     -24.594   0.733  28.397  0.00  0.00    +0.169 C 
ATOM      4  C   UNL A   1     -24.668   1.358  27.262  0.00  0.00    +0.038 C 
ATOM      5  C   UNL A   1     -23.441   1.589  26.914  0.00  0.00    +0.138 C 
ATOM      6 CL   UNL A   1     -23.046   2.598  25.492  0.00  0.00    -0.061 Cl
ATOM      7  C   UNL A   1     -21.103   1.635  27.510  0.00  0.00    +0.160 C 
ATOM      8  O   UNL A   1     -23.227   0.629  28.683  0.00  0.00    -0.254 OA
BRANCH   4   9
ATOM      9  C   UNL A   1     -25.688   1.614  26.461  0.00  0.00    +0.039 C 
ATOM     10  C   UNL A   1     -26.250   2.920  26.395  0.00  0.00    +0.076 C 
ATOM     11  C   UNL A   1     -27.438   3.091  25.645  0.00  0.00    +0.107 C 
ATOM     12  N   UNL A   1     -28.075   2.089  25.003  0.00  0.00    -0.208 NA
ATOM     13  C   UNL A   1     -27.543   0.849  25.079  0.00  0.00    +0.253 C 
ATOM     14  C   UNL A   1     -26.354   0.576  25.777  0.00  0.00    +0.193 C 
ATOM     15  F   UNL A   1     -25.860  -0.681  25.795  0.00  0.00    -0.199 F 
BRANCH  10  16
ATOM     16  C   UNL A   1     -25.642   4.093  27.123  0.00  0.00    +0.266 C 
ATOM     17  N   UNL A   1     -25.614   5.252  26.449  0.00  0.00    -0.200 NA
ATOM     18  C   UNL A   1     -25.026   6.479  26.963  0.00  0.00    +0.139 C 
ATOM     19  O   UNL A   1     -25.143   3.966  28.243  0.00  0.00    -0.268 OA
ENDBRANCH  10  16
BRANCH  13  20
ATOM     20  O   UNL A   1     -28.193  -0.208  24.477  0.00  0.00    -0.456 OA
BRANCH  20  21
ATOM     21  C   UNL A   1     -29.460   0.005  23.866  0.00  0.00    +0.243 C 
BRANCH  21  22
ATOM     22  C   UNL A   1     -30.065  -1.377  23.573  0.00  0.00    +0.229 C 
ATOM     23  O   UNL A   1     -30.729  -1.878  24.721  0.00  0.00    -0.216 OA
ENDBRANCH  21  22
ENDBRANCH  20  21
ENDBRANCH  13  20
ENDBRANCH   4   9
ENDBRANCH   1   3
BRANCH   1  24
ATOM     24  C   UNL A   1     -24.855  -1.012  30.143  0.00  0.00    +0.041 C 
BRANCH  24  25
ATOM     25  C   UNL A   1     -24.973  -2.505  29.788  0.00  0.00    -0.021 C 
ATOM     26  C   UNL A   1     -23.906  -3.173  29.146  0.00  0.00    -0.004 C 
ATOM     27  C   UNL A   1     -23.989  -4.549  28.853  0.00  0.00    -0.000 C 
ATOM     28  C   UNL A   1     -25.137  -5.280  29.205  0.00  0.00    -0.000 C 
ATOM     29  C   UNL A   1     -26.232  -4.611  29.784  0.00  0.00    -0.000 C 
ATOM     30  C   UNL A   1     -26.155  -3.232  30.065  0.00  0.00    -0.004 C 
ENDBRANCH  24  25
BRANCH  24  31
ATOM     31  C   UNL A   1     -25.387  -0.679  31.571  0.00  0.00    +0.077 C 
ATOM     32  C   UNL A   1     -25.189   0.773  32.028  0.00  0.00    +0.019 C 
ATOM     33  C   UNL A   1     -25.336   0.684  33.544  0.00  0.00    +0.020 C 
ATOM     34  C   UNL A   1     -24.829  -0.715  33.905  0.00  0.00    +0.089 C 
ATOM     35  N   UNL A   1     -24.758  -1.481  32.646  0.00  0.00    -0.219 NA
ENDBRANCH  24  31
ENDBRANCH   1  24
BRANCH   1  36
ATOM     36  C   UNL A   1     -26.995  -0.206  29.062  0.00  0.00    +0.003 C 
BRANCH  36  37
ATOM     37  C   UNL A   1     -28.399  -0.494  29.020  0.00  0.00    +0.000 C 
BRANCH  37  42
ATOM     38  C   UNL A   1     -29.741   2.456  30.995  0.00  0.00    +0.003 C 
ATOM     39  C   UNL A   1     -30.146   0.905  30.411  0.00  0.00    +0.003 C 
ATOM     40  C   UNL A   1     -30.370   0.885  28.082  0.00  0.00    +0.030 C 
ATOM     41  C   UNL A   1     -30.786   1.898  30.158  0.00  0.00    +0.027 C 
ATOM     42  C   UNL A   1     -29.176   0.782  29.064  0.00  0.00    +0.003 C 
ATOM     43  C   UNL A   1     -30.887   2.179  28.662  0.00  0.00    +0.115 C 
BRANCH  43  45
ATOM     44  C   UNL A   1     -32.272   3.642  29.586  0.00  0.00    +0.174 C 
ATOM     45  O   UNL A   1     -32.143   2.771  28.474  0.00  0.00    -0.354 OA
ENDBRANCH  43  45
ENDBRANCH  37  42
ENDBRANCH  36  37
ENDBRANCH   1  36
TORSDOF 13
