MODEL 2441
MODEL 1
REMARK VINA RESULT:    -7.238      0.000      0.000
REMARK INTER + INTRA:         -11.158
REMARK INTER:                  -9.777
REMARK INTRA:                  -1.381
REMARK UNBOUND:                -1.381
REMARK  Name = No_2441-gen_results/8p0m/2024-11-27-11-27-31/
REMARK  6 active torsions:
REMARK  status: ('A' for Active; 'I' for Inactive)
REMARK    1  A    between atoms: C_3  and  C_8
REMARK    2  A    between atoms: C_6  and  O_7
REMARK    3  A    between atoms: O_7  and  C_14
REMARK    4  A    between atoms: C_14  and  C_15
REMARK    5  A    between atoms: C_14  and  C_20
REMARK    6  A    between atoms: C_24  and  C_26
REMARK                            x       y       z     vdW  Elec       q    Type
REMARK                         _______ _______ _______ _____ _____    ______ ____
ROOT
ATOM      1  C   UNL A   1     -24.711  -1.532  29.456  0.00  0.00    +0.264 C 
ENDROOT
BRANCH   1   2
ATOM      2  C   UNL A   1     -24.526  -0.743  28.242  0.00  0.00    +0.026 A 
ATOM      3  C   UNL A   1     -25.399  -0.732  27.362  0.00  0.00    -0.000 A 
ATOM      4  C   UNL A   1     -25.317   0.123  26.172  0.00  0.00    -0.000 A 
ATOM      5  C   UNL A   1     -24.247   0.998  26.125  0.00  0.00    +0.003 A 
ATOM      6  C   UNL A   1     -23.302   1.047  27.151  0.00  0.00    +0.042 A 
ATOM      7  C   UNL A   1     -23.457   0.248  28.234  0.00  0.00    +0.003 A 
BRANCH   6   8
ATOM      8  C   UNL A   1     -22.210   2.010  27.069  0.00  0.00    +0.234 C 
ATOM      9  O   UNL A   1     -21.196   1.734  27.398  0.00  0.00    -0.283 OA
ENDBRANCH   6   8
ENDBRANCH   1   2
BRANCH   1  10
ATOM     10  C   UNL A   1     -24.527  -2.898  29.165  0.00  0.00    +0.270 C 
ATOM     11  O   UNL A   1     -23.438  -3.177  28.652  0.00  0.00    -0.271 OA
ATOM     12  N   UNL A   1     -25.465  -3.784  29.276  0.00  0.00    -0.273 N 
ATOM     13  C   UNL A   1     -26.699  -3.579  29.918  0.00  0.00    +0.115 C 
ATOM     14  C   UNL A   1     -25.062  -5.190  29.260  0.00  0.00    +0.115 C 
ENDBRANCH   1  10
BRANCH   1  15
ATOM     15  O   UNL A   1     -23.836  -1.105  30.433  0.00  0.00    -0.466 OA
BRANCH  15  21
ATOM     16  C   UNL A   1     -25.539  -0.376  32.054  0.00  0.00    +0.037 A 
ATOM     17  C   UNL A   1     -25.941  -0.301  33.192  0.00  0.00    +0.003 A 
ATOM     18  C   UNL A   1     -25.150  -0.711  34.260  0.00  0.00    +0.000 A 
ATOM     19  C   UNL A   1     -23.846  -1.281  34.041  0.00  0.00    +0.003 A 
ATOM     20  C   UNL A   1     -23.471  -1.352  32.693  0.00  0.00    +0.037 A 
ATOM     21  C   UNL A   1     -24.262  -0.966  31.719  0.00  0.00    +0.140 A 
BRANCH  18  22
ATOM     22  C   UNL A   1     -25.533  -0.658  35.719  0.00  0.00    +0.000 A 
ATOM     23  C   UNL A   1     -26.745  -0.276  36.079  0.00  0.00    +0.000 A 
ATOM     24  C   UNL A   1     -27.080  -0.155  37.478  0.00  0.00    +0.000 A 
ATOM     25  C   UNL A   1     -26.112  -0.323  38.483  0.00  0.00    +0.000 A 
ATOM     26  C   UNL A   1     -24.541  -0.802  36.739  0.00  0.00    +0.000 A 
ATOM     27  C   UNL A   1     -24.882  -0.661  38.124  0.00  0.00    +0.000 A 
ENDBRANCH  18  22
ENDBRANCH  15  21
ENDBRANCH   1  15
TORSDOF 6
ENDMDL
ENDMDL
