MODEL 2443
MODEL 1
REMARK VINA RESULT:    -4.234      0.000      0.000
REMARK INTER + INTRA:          -4.234
REMARK INTER:                  -4.234
REMARK INTRA:                   0.000
REMARK UNBOUND:                 0.000
REMARK  Name = No_2443-gen_results/8p0m/2024-11-27-11-27-31/
REMARK  0 active torsions:
REMARK  status: ('A' for Active; 'I' for Inactive)
REMARK                            x       y       z     vdW  Elec       q    Type
REMARK                         _______ _______ _______ _____ _____    ______ ____
ROOT
ATOM      1  C   UNL A   1     -24.113  -4.806  28.656  0.00  0.00    +0.000 A 
ATOM      2  C   UNL A   1     -25.008  -5.268  28.967  0.00  0.00    +0.000 A 
ATOM      3  C   UNL A   1     -24.059  -3.339  28.757  0.00  0.00    +0.000 A 
ATOM      4  C   UNL A   1     -25.119  -2.616  29.379  0.00  0.00    +0.000 A 
ATOM      5  C   UNL A   1     -26.209  -4.766  29.687  0.00  0.00    +0.000 A 
ATOM      6  C   UNL A   1     -26.201  -3.407  29.791  0.00  0.00    +0.000 A 
ENDROOT
TORSDOF 0
ENDMDL
ENDMDL
