REMARK  Name = No_2444-gen_results/8p0m/2024-11-27-11-27-31/
REMARK  5 active torsions:
REMARK  status: ('A' for Active; 'I' for Inactive)
REMARK    1  A    between atoms: C_3  and  C_11
REMARK    2  A    between atoms: C_5  and  C_7
REMARK    3  A    between atoms: C_11  and  C_16
REMARK    4  A    between atoms: C_12  and  C_13
REMARK    5  A    between atoms: C_14  and  C_15
REMARK                            x       y       z     vdW  Elec       q    Type
REMARK                         _______ _______ _______ _____ _____    ______ ____
ROOT
ATOM      1  C   UNL A   1     -28.016  -0.814  28.878  0.00  0.00    -0.000 A 
ATOM      2  C   UNL A   1     -27.064  -0.119  28.608  0.00  0.00    -0.000 A 
ATOM      3  C   UNL A   1     -26.972   0.714  27.506  0.00  0.00    -0.004 A 
ATOM      4  C   UNL A   1     -28.105   0.774  26.642  0.00  0.00    +0.004 A 
ATOM      5  C   UNL A   1     -29.201   0.104  27.053  0.00  0.00    +0.071 A 
ATOM      6  C   UNL A   1     -29.210  -0.603  28.185  0.00  0.00    +0.004 A 
ENDROOT
BRANCH   5   7
ATOM      7  C   UNL A   1     -30.370   0.226  26.160  0.00  0.00    +0.419 C 
ATOM      8  F   UNL A   1     -30.899   1.263  26.193  0.00  0.00    -0.166 F 
ATOM      9  F   UNL A   1     -31.290  -0.732  26.596  0.00  0.00    -0.166 F 
ATOM     10  F   UNL A   1     -30.057  -0.162  24.899  0.00  0.00    -0.166 F 
ENDBRANCH   5   7
BRANCH   3  11
ATOM     11  C   UNL A   1     -25.684   1.411  27.116  0.00  0.00    -0.022 C 
ATOM     12  C   UNL A   1     -25.400   2.235  26.402  0.00  0.00    -0.005 C 
BRANCH  12  13
ATOM     13  C   UNL A   1     -24.082   2.873  26.182  0.00  0.00    -0.004 C 
ATOM     14  C   UNL A   1     -22.987   2.336  26.901  0.00  0.00    -0.021 C 
BRANCH  14  15
ATOM     15  C   UNL A   1     -23.299   1.211  27.756  0.00  0.00    +0.047 C 
ATOM     16  C   UNL A   1     -22.139   0.672  28.488  0.00  0.00    +0.010 C 
ATOM     17  P   UNL A   1     -23.382   1.101  28.785  0.00  0.00    -0.031 P 
ENDBRANCH  14  15
ENDBRANCH  12  13
BRANCH  11  18
ATOM     18  C   UNL A   1     -24.571   0.736  27.950  0.00  0.00    +0.026 C 
ATOM     19  C   UNL A   1     -24.659  -0.821  27.596  0.00  0.00    +0.005 C 
ENDBRANCH  11  18
ENDBRANCH   3  11
TORSDOF 5
