MODEL 2445
MODEL 1
REMARK VINA RESULT:    -6.282      0.000      0.000
REMARK INTER + INTRA:          -8.386
REMARK INTER:                  -7.751
REMARK INTRA:                  -0.635
REMARK UNBOUND:                -0.635
REMARK  Name = No_2445-gen_results/8p0m/2024-11-27-11-27-31/
REMARK  4 active torsions:
REMARK  status: ('A' for Active; 'I' for Inactive)
REMARK    1  A    between atoms: C_1  and  C_3
REMARK    2  A    between atoms: C_7  and  C_14
REMARK    3  A    between atoms: C_11  and  O_13
REMARK    4  A    between atoms: O_13  and  C_16
REMARK                            x       y       z     vdW  Elec       q    Type
REMARK                         _______ _______ _______ _____ _____    ______ ____
ROOT
ATOM      1  C   UNL A   1     -23.160  -0.677  28.942  0.00  0.00    +0.003 A 
ATOM      2  C   UNL A   1     -22.210  -1.115  29.067  0.00  0.00    +0.000 A 
ATOM      3  C   UNL A   1     -20.948  -0.336  28.698  0.00  0.00    +0.003 A 
ATOM      4  C   UNL A   1     -21.274   0.807  28.111  0.00  0.00    +0.037 A 
ATOM      5  C   UNL A   1     -22.511   1.149  27.715  0.00  0.00    +0.145 A 
ATOM      6  C   UNL A   1     -23.533   0.348  28.050  0.00  0.00    +0.037 A 
ENDROOT
BRANCH   1   7
ATOM      7  C   UNL A   1     -24.334  -1.546  29.337  0.00  0.00    +0.000 A 
ATOM      8  C   UNL A   1     -25.462  -1.143  30.139  0.00  0.00    +0.001 A 
ATOM      9  C   UNL A   1     -26.474  -2.145  30.363  0.00  0.00    +0.010 A 
ATOM     10  C   UNL A   1     -26.330  -3.454  29.907  0.00  0.00    +0.068 A 
ATOM     11  C   UNL A   1     -25.272  -3.853  29.172  0.00  0.00    +0.010 A 
ATOM     12  C   UNL A   1     -24.281  -2.954  28.904  0.00  0.00    +0.001 A 
BRANCH  10  13
ATOM     13  C   UNL A   1     -27.506  -4.366  30.191  0.00  0.00    +0.100 C 
ATOM     14  N   UNL A   1     -28.587  -4.706  29.832  0.00  0.00    -0.191 NA
ENDBRANCH  10  13
ENDBRANCH   1   7
BRANCH   5  15
ATOM     15  O   UNL A   1     -22.785   2.256  26.993  0.00  0.00    -0.450 OA
BRANCH  15  16
ATOM     16  C   UNL A   1     -23.285   2.489  26.087  0.00  0.00    +0.180 C 
ATOM     17  C   UNL A   1     -22.642   2.374  24.903  0.00  0.00    +0.044 C 
ENDBRANCH  15  16
ENDBRANCH   5  15
TORSDOF 4
ENDMDL
ENDMDL
