REMARK  Name = No_2445-gen_results/8p0m/2024-11-27-11-27-31/
REMARK  4 active torsions:
REMARK  status: ('A' for Active; 'I' for Inactive)
REMARK    1  A    between atoms: C_1  and  C_3
REMARK    2  A    between atoms: C_7  and  C_14
REMARK    3  A    between atoms: C_11  and  O_13
REMARK    4  A    between atoms: O_13  and  C_16
REMARK                            x       y       z     vdW  Elec       q    Type
REMARK                         _______ _______ _______ _____ _____    ______ ____
ROOT
ATOM      1  C   UNL A   1     -28.016  -0.814  28.878  0.00  0.00    +0.003 A 
ATOM      2  C   UNL A   1     -28.469  -0.785  29.829  0.00  0.00    +0.000 A 
ATOM      3  C   UNL A   1     -29.992  -0.813  29.958  0.00  0.00    +0.003 A 
ATOM      4  C   UNL A   1     -30.552  -0.729  28.760  0.00  0.00    +0.037 A 
ATOM      5  C   UNL A   1     -29.899  -0.461  27.617  0.00  0.00    +0.145 A 
ATOM      6  C   UNL A   1     -28.560  -0.403  27.645  0.00  0.00    +0.037 A 
ENDROOT
BRANCH   1   7
ATOM      7  C   UNL A   1     -26.504  -0.778  28.877  0.00  0.00    +0.000 A 
ATOM      8  C   UNL A   1     -25.654  -0.660  27.719  0.00  0.00    +0.001 A 
ATOM      9  C   UNL A   1     -24.235  -0.622  27.972  0.00  0.00    +0.010 A 
ATOM     10  C   UNL A   1     -23.709  -0.779  29.253  0.00  0.00    +0.068 A 
ATOM     11  C   UNL A   1     -24.489  -0.910  30.345  0.00  0.00    +0.010 A 
ATOM     12  C   UNL A   1     -25.845  -0.937  30.186  0.00  0.00    +0.001 A 
BRANCH  10  13
ATOM     13  C   UNL A   1     -22.201  -0.670  29.346  0.00  0.00    +0.100 C 
ATOM     14  N   UNL A   1     -21.242  -0.067  28.986  0.00  0.00    -0.191 NA
ENDBRANCH  10  13
ENDBRANCH   1   7
BRANCH   5  15
ATOM     15  O   UNL A   1     -30.518  -0.242  26.437  0.00  0.00    -0.450 OA
BRANCH  15  16
ATOM     16  C   UNL A   1     -31.468  -0.443  26.009  0.00  0.00    +0.180 C 
ATOM     17  C   UNL A   1     -31.579  -0.705  24.687  0.00  0.00    +0.044 C 
ENDBRANCH  15  16
ENDBRANCH   5  15
TORSDOF 4
