MODEL 2446
MODEL 1
REMARK VINA RESULT:    -6.767      0.000      0.000
REMARK INTER + INTRA:          -9.955
REMARK INTER:                  -8.745
REMARK INTRA:                  -1.209
REMARK UNBOUND:                -1.209
REMARK  Name = No_2446-gen_results/8p0m/2024-11-27-11-27-31/
REMARK  5 active torsions:
REMARK  status: ('A' for Active; 'I' for Inactive)
REMARK    1  A    between atoms: C_4  and  N_20
REMARK    2  A    between atoms: C_5  and  C_14
REMARK    3  A    between atoms: C_8  and  C_11
REMARK    4  A    between atoms: C_19  and  C_30
REMARK    5  A    between atoms: N_20  and  C_21
REMARK                            x       y       z     vdW  Elec       q    Type
REMARK                         _______ _______ _______ _____ _____    ______ ____
ROOT
ATOM      1  O   UNL A   1     -24.074   2.160  29.778  0.00  0.00    -0.273 OA
ATOM      2  C   UNL A   1     -24.594   1.998  28.668  0.00  0.00    +0.244 C 
ATOM      3  N   UNL A   1     -25.297   2.323  27.999  0.00  0.00    -0.277 N 
ATOM      4  C   UNL A   1     -23.816   0.728  27.953  0.00  0.00    +0.161 C 
ATOM      5  C   UNL A   1     -26.078   3.556  28.353  0.00  0.00    +0.098 C 
ATOM      6  C   UNL A   1     -27.374   3.543  28.092  0.00  0.00    +0.025 C 
ATOM      7  C   UNL A   1     -27.952   2.657  27.056  0.00  0.00    +0.017 C 
ATOM      8  C   UNL A   1     -27.069   1.651  26.585  0.00  0.00    +0.140 C 
ATOM      9  C   UNL A   1     -25.892   1.473  27.096  0.00  0.00    +0.090 C 
ATOM     10  C   UNL A   1     -25.055   0.330  26.881  0.00  0.00    +0.050 C 
ENDROOT
BRANCH   5  11
ATOM     11  C   UNL A   1     -25.367   4.660  27.565  0.00  0.00    -0.004 A 
ATOM     12  C   UNL A   1     -24.817   4.695  26.627  0.00  0.00    -0.003 A 
ATOM     13  C   UNL A   1     -24.238   5.790  25.846  0.00  0.00    -0.000 A 
ATOM     14  C   UNL A   1     -24.280   6.996  26.470  0.00  0.00    +0.002 A 
ATOM     15  C   UNL A   1     -25.450   6.033  28.255  0.00  0.00    -0.001 A 
ATOM     16  C   UNL A   1     -24.876   7.123  27.691  0.00  0.00    +0.018 A 
BRANCH  16  17
ATOM     17  C   UNL A   1     -24.953   8.413  28.398  0.00  0.00    +0.093 C 
ATOM     18  N   UNL A   1     -24.743   9.366  28.132  0.00  0.00    -0.267 NA
ATOM     19  C   UNL A   1     -24.859  10.516  28.924  0.00  0.00    +0.152 C 
ENDBRANCH  16  17
ENDBRANCH   5  11
BRANCH   4  20
ATOM     20  N   UNL A   1     -23.408  -0.366  28.712  0.00  0.00    -0.215 N 
ATOM     21  C   UNL A   1     -22.009  -0.486  28.848  0.00  0.00    +0.451 C 
ATOM     22  O   UNL A   1     -21.346  -1.375  29.027  0.00  0.00    -0.222 OA
ATOM     23  O   UNL A   1     -21.232   0.610  28.409  0.00  0.00    -0.222 OA
BRANCH  20  24
ATOM     24  C   UNL A   1     -24.199  -1.281  29.156  0.00  0.00    +0.058 A 
ATOM     25  C   UNL A   1     -23.967  -2.614  28.592  0.00  0.00    +0.015 A 
ATOM     26  C   UNL A   1     -25.146  -1.227  30.205  0.00  0.00    +0.015 A 
ATOM     27  C   UNL A   1     -24.994  -3.610  29.022  0.00  0.00    +0.001 A 
ATOM     28  C   UNL A   1     -25.916  -3.347  30.014  0.00  0.00    +0.000 A 
ATOM     29  C   UNL A   1     -26.003  -2.066  30.532  0.00  0.00    +0.001 A 
ENDBRANCH  20  24
ENDBRANCH   4  20
BRANCH   8  30
ATOM     30  C   UNL A   1     -27.702   0.658  25.561  0.00  0.00    +0.455 C 
ATOM     31  N   UNL A   1     -28.829   0.037  25.883  0.00  0.00    +0.199 NA
ATOM     32  N   UNL A   1     -27.358   0.760  24.309  0.00  0.00    +0.199 NA
ENDBRANCH   8  30
TORSDOF 5
ENDMDL
ENDMDL
