REMARK  Name = No_2446-gen_results/8p0m/2024-11-27-11-27-31/
REMARK  5 active torsions:
REMARK  status: ('A' for Active; 'I' for Inactive)
REMARK    1  A    between atoms: C_4  and  N_20
REMARK    2  A    between atoms: C_5  and  C_14
REMARK    3  A    between atoms: C_8  and  C_11
REMARK    4  A    between atoms: C_19  and  C_30
REMARK    5  A    between atoms: N_20  and  C_21
REMARK                            x       y       z     vdW  Elec       q    Type
REMARK                         _______ _______ _______ _____ _____    ______ ____
ROOT
ATOM      1  O   UNL A   1     -28.123  -1.335  28.487  0.00  0.00    -0.273 OA
ATOM      2  C   UNL A   1     -27.064  -0.824  28.869  0.00  0.00    +0.244 C 
ATOM      3  N   UNL A   1     -26.445  -0.010  28.827  0.00  0.00    -0.277 N 
ATOM      4  C   UNL A   1     -26.351  -1.905  29.895  0.00  0.00    +0.161 C 
ATOM      5  C   UNL A   1     -26.915   1.184  28.047  0.00  0.00    +0.098 C 
ATOM      6  C   UNL A   1     -26.023   1.795  27.286  0.00  0.00    +0.025 C 
ATOM      7  C   UNL A   1     -24.571   1.701  27.558  0.00  0.00    +0.017 C 
ATOM      8  C   UNL A   1     -24.214   0.700  28.498  0.00  0.00    +0.140 C 
ATOM      9  C   UNL A   1     -25.084  -0.120  28.996  0.00  0.00    +0.090 C 
ATOM     10  C   UNL A   1     -24.780  -1.316  29.724  0.00  0.00    +0.050 C 
ENDROOT
BRANCH   5  11
ATOM     11  C   UNL A   1     -27.452   2.122  29.131  0.00  0.00    -0.004 A 
ATOM     12  C   UNL A   1     -27.079   2.471  30.092  0.00  0.00    -0.003 A 
ATOM     13  C   UNL A   1     -27.571   3.454  31.060  0.00  0.00    -0.000 A 
ATOM     14  C   UNL A   1     -28.803   3.945  30.771  0.00  0.00    +0.002 A 
ATOM     15  C   UNL A   1     -28.832   2.708  28.783  0.00  0.00    -0.001 A 
ATOM     16  C   UNL A   1     -29.452   3.562  29.633  0.00  0.00    +0.018 A 
BRANCH  16  17
ATOM     17  C   UNL A   1     -30.785   4.077  29.276  0.00  0.00    +0.093 C 
ATOM     18  N   UNL A   1     -31.452   3.839  28.554  0.00  0.00    -0.267 NA
ATOM     19  C   UNL A   1     -32.703   4.428  28.323  0.00  0.00    +0.152 C 
ENDBRANCH  16  17
ENDBRANCH   5  11
BRANCH   4  20
ATOM     20  N   UNL A   1     -26.428  -3.272  29.642  0.00  0.00    -0.215 N 
ATOM     21  C   UNL A   1     -27.608  -3.882  30.119  0.00  0.00    +0.451 C 
ATOM     22  O   UNL A   1     -27.832  -4.937  30.435  0.00  0.00    -0.222 OA
ATOM     23  O   UNL A   1     -28.632  -3.019  30.570  0.00  0.00    -0.222 OA
BRANCH  20  24
ATOM     24  C   UNL A   1     -25.474  -3.976  29.139  0.00  0.00    +0.058 A 
ATOM     25  C   UNL A   1     -25.710  -5.423  29.153  0.00  0.00    +0.015 A 
ATOM     26  C   UNL A   1     -24.313  -3.562  28.445  0.00  0.00    +0.015 A 
ATOM     27  C   UNL A   1     -24.523  -6.207  28.697  0.00  0.00    +0.001 A 
ATOM     28  C   UNL A   1     -23.419  -5.616  28.117  0.00  0.00    +0.000 A 
ATOM     29  C   UNL A   1     -23.329  -4.234  28.091  0.00  0.00    +0.001 A 
ENDBRANCH  20  24
ENDBRANCH   4  20
BRANCH   8  30
ATOM     30  C   UNL A   1     -22.677   0.535  28.719  0.00  0.00    +0.455 C 
ATOM     31  N   UNL A   1     -21.844   1.306  28.033  0.00  0.00    +0.199 NA
ATOM     32  N   UNL A   1     -22.270  -0.037  29.816  0.00  0.00    +0.199 NA
ENDBRANCH   8  30
TORSDOF 5
