REMARK  Name = No_2447-gen_results/8p0m/2024-11-27-11-27-31/
REMARK  1 active torsions:
REMARK  status: ('A' for Active; 'I' for Inactive)
REMARK    1  A    between atoms: C_3  and  C_4
REMARK                            x       y       z     vdW  Elec       q    Type
REMARK                         _______ _______ _______ _____ _____    ______ ____
ROOT
ATOM      1  C   UNL A   1     -28.016  -0.814  28.878  0.00  0.00    +0.007 A 
ATOM      2  C   UNL A   1     -28.469  -0.785  29.829  0.00  0.00    +0.035 A 
ATOM      3  C   UNL A   1     -27.087   0.290  28.638  0.00  0.00    +0.001 A 
ATOM      4  C   UNL A   1     -28.391   0.104  30.980  0.00  0.00    +0.007 A 
ATOM      5  C   UNL A   1     -27.533   1.167  30.787  0.00  0.00    +0.001 A 
ATOM      6  C   UNL A   1     -26.828   1.256  29.645  0.00  0.00    +0.000 A 
ATOM      7 BR   UNL A   1     -29.731  -2.274  30.261  0.00  0.00    -0.049 Br
ENDROOT
BRANCH   3   8
ATOM      8  C   UNL A   1     -26.252   0.411  27.422  0.00  0.00    +0.000 A 
ATOM      9  C   UNL A   1     -25.138   0.675  27.231  0.00  0.00    +0.000 A 
ATOM     10  C   UNL A   1     -24.512   1.006  25.953  0.00  0.00    +0.000 A 
ATOM     11  C   UNL A   1     -25.255   0.591  24.801  0.00  0.00    +0.000 A 
ATOM     12  C   UNL A   1     -26.869   0.129  26.085  0.00  0.00    +0.000 A 
ATOM     13  C   UNL A   1     -26.425   0.229  24.955  0.00  0.00    +0.000 A 
ENDBRANCH   3   8
TORSDOF 1
