MODEL 2448
MODEL 1
REMARK VINA RESULT:    -4.435      0.000      0.000
REMARK INTER + INTRA:          -4.435
REMARK INTER:                  -4.435
REMARK INTRA:                   0.000
REMARK UNBOUND:                 0.000
REMARK  Name = No_2448-gen_results/8p0m/2024-11-27-11-27-31/
REMARK  0 active torsions:
REMARK  status: ('A' for Active; 'I' for Inactive)
REMARK                            x       y       z     vdW  Elec       q    Type
REMARK                         _______ _______ _______ _____ _____    ______ ____
ROOT
ATOM      1  C   UNL A   1      -9.289  -9.231  19.970  0.00  0.00    +0.011 A 
ATOM      2  C   UNL A   1      -8.272  -9.859  19.787  0.00  0.00    +0.058 A 
ATOM      3  C   UNL A   1      -8.075 -10.697  18.738  0.00  0.00    +0.011 A 
ATOM      4  C   UNL A   1      -9.115 -10.850  17.801  0.00  0.00    +0.001 A 
ATOM      5  C   UNL A   1     -10.356  -9.265  19.002  0.00  0.00    +0.001 A 
ATOM      6  C   UNL A   1     -10.220 -10.114  17.945  0.00  0.00    +0.000 A 
ATOM      7 CL   UNL A   1      -6.921  -9.734  20.880  0.00  0.00    -0.082 Cl
ENDROOT
TORSDOF 0
ENDMDL
ENDMDL
