REMARK  Name = outputs/IAG933/test6/raw/output_2448_IAG933_linker_design_.xyz
REMARK  16 active torsions:
REMARK  status: ('A' for Active; 'I' for Inactive)
REMARK    1  A    between atoms: C_1  and  C_2
REMARK    2  A    between atoms: C_1  and  C_8
REMARK    3  A    between atoms: C_9  and  C_31
REMARK    4  A    between atoms: C_13  and  N_39
REMARK    5  A    between atoms: C_14  and  C_15
REMARK    6  A    between atoms: C_21  and  O_22
REMARK    7  A    between atoms: O_22  and  C_23
REMARK    8  A    between atoms: C_23  and  C_24
REMARK    9  A    between atoms: C_29  and  N_39
REMARK   10  A    between atoms: C_31  and  C_32
REMARK   11  A    between atoms: C_31  and  N_36
REMARK   12  A    between atoms: C_32  and  C_41
REMARK   13  A    between atoms: C_33  and  N_36
REMARK   14  A    between atoms: C_34  and  O_35
REMARK   15  A    between atoms: O_37  and  C_38
REMARK   16  A    between atoms: C_38  and  C_41
REMARK                            x       y       z     vdW  Elec       q    Type
REMARK                         _______ _______ _______ _____ _____    ______ ____
ROOT
ATOM      1  C   UNL A   1     -23.687   1.560  27.702  0.00  0.00    +0.129 C 
ATOM      2  C   UNL A   1     -23.407   1.396  28.976  0.00  0.00    +0.120 C 
ATOM      3  C   UNL A   1     -22.698   1.868  26.843  0.00  0.00    +0.181 C 
ATOM      4  S   UNL A   1     -21.221   1.356  27.499  0.00  0.00    -0.091 S 
ATOM      5  C   UNL A   1     -22.241   0.768  28.851  0.00  0.00    +0.158 C 
ATOM      6  N   UNL A   1     -21.850  -0.407  29.423  0.00  0.00    -0.119 NA
ENDROOT
BRANCH   3   8
ATOM      7  C   UNL A   1     -22.073   2.439  24.615  0.00  0.00    +0.175 C 
ATOM      8  O   UNL A   1     -23.031   2.317  25.632  0.00  0.00    -0.341 OA
ENDBRANCH   3   8
BRANCH   2   9
ATOM      9  N   UNL A   1     -24.079   1.783  30.090  0.00  0.00    -0.217 NA
BRANCH   9  10
ATOM     10  C   UNL A   1     -24.754   1.905  31.234  0.00  0.00    +0.075 C 
BRANCH  10  12
ATOM     11  C   UNL A   1     -25.387  -0.679  31.571  0.00  0.00    +0.079 C 
ATOM     12  C   UNL A   1     -25.189   0.773  32.028  0.00  0.00    +0.034 C 
ATOM     13  C   UNL A   1     -25.336   0.684  33.544  0.00  0.00    +0.022 C 
ATOM     14  C   UNL A   1     -24.829  -0.715  33.905  0.00  0.00    +0.089 C 
ATOM     15  N   UNL A   1     -24.758  -1.481  32.646  0.00  0.00    -0.219 NA
BRANCH  11  16
ATOM     16  C   UNL A   1     -24.855  -1.012  30.143  0.00  0.00    +0.044 C 
BRANCH  16  17
ATOM     17  C   UNL A   1     -24.973  -2.505  29.788  0.00  0.00    -0.021 C 
ATOM     18  C   UNL A   1     -23.906  -3.173  29.146  0.00  0.00    -0.004 C 
ATOM     19  C   UNL A   1     -23.989  -4.549  28.853  0.00  0.00    -0.000 C 
ATOM     20  C   UNL A   1     -25.137  -5.280  29.205  0.00  0.00    -0.000 C 
ATOM     21  C   UNL A   1     -26.232  -4.611  29.784  0.00  0.00    -0.000 C 
ATOM     22  C   UNL A   1     -26.155  -3.232  30.065  0.00  0.00    -0.004 C 
ENDBRANCH  16  17
ENDBRANCH  11  16
ENDBRANCH  10  12
BRANCH  10  23
ATOM     23  C   UNL A   1     -24.930   3.136  31.641  0.00  0.00    +0.029 C 
BRANCH  23  24
ATOM     24  C   UNL A   1     -26.029   3.594  32.564  0.00  0.00    +0.111 C 
BRANCH  24  26
ATOM     25  O   UNL A   1     -24.270   5.400  32.702  0.00  0.00    -0.250 OA
ATOM     26  C   UNL A   1     -25.491   4.997  32.922  0.00  0.00    +0.317 C 
BRANCH  26  27
ATOM     27  O   UNL A   1     -26.286   5.958  33.658  0.00  0.00    -0.444 OA
ATOM     28  C   UNL A   1     -27.258   6.658  32.829  0.00  0.00    +0.256 C 
ENDBRANCH  26  27
ENDBRANCH  24  26
ENDBRANCH  23  24
ENDBRANCH  10  23
ENDBRANCH   9  10
ENDBRANCH   2   9
BRANCH   1  29
ATOM     29  N   UNL A   1     -24.846   1.233  27.344  0.00  0.00    -0.208 NA
BRANCH  29  30
ATOM     30  C   UNL A   1     -25.688   1.614  26.461  0.00  0.00    +0.143 C 
ATOM     31  C   UNL A   1     -26.250   2.920  26.395  0.00  0.00    +0.071 C 
ATOM     32  C   UNL A   1     -27.438   3.091  25.645  0.00  0.00    +0.103 C 
ATOM     33  N   UNL A   1     -28.075   2.089  25.003  0.00  0.00    -0.212 NA
ATOM     34  C   UNL A   1     -27.543   0.849  25.079  0.00  0.00    +0.236 C 
ATOM     35  C   UNL A   1     -26.354   0.576  25.777  0.00  0.00    +0.256 C 
ATOM     36  F   UNL A   1     -25.860  -0.681  25.795  0.00  0.00    -0.225 F 
BRANCH  31  37
ATOM     37  C   UNL A   1     -25.642   4.093  27.123  0.00  0.00    +0.264 C 
ATOM     38  N   UNL A   1     -25.614   5.252  26.449  0.00  0.00    -0.200 NA
ATOM     39  C   UNL A   1     -25.026   6.479  26.963  0.00  0.00    +0.139 C 
ATOM     40  O   UNL A   1     -25.143   3.966  28.243  0.00  0.00    -0.269 OA
ENDBRANCH  31  37
BRANCH  34  41
ATOM     41  O   UNL A   1     -28.193  -0.208  24.477  0.00  0.00    -0.459 OA
BRANCH  41  42
ATOM     42  C   UNL A   1     -29.460   0.005  23.866  0.00  0.00    +0.242 C 
BRANCH  42  43
ATOM     43  C   UNL A   1     -30.065  -1.377  23.573  0.00  0.00    +0.229 C 
ATOM     44  O   UNL A   1     -30.729  -1.878  24.721  0.00  0.00    -0.216 OA
ENDBRANCH  42  43
ENDBRANCH  41  42
ENDBRANCH  34  41
ENDBRANCH  29  30
ENDBRANCH   1  29
TORSDOF 16
