MODEL 2449
MODEL 1
REMARK VINA RESULT:    -6.876      0.000      0.000
REMARK INTER + INTRA:          -9.931
REMARK INTER:                  -8.886
REMARK INTRA:                  -1.045
REMARK UNBOUND:                -1.045
REMARK  Name = No_2449-gen_results/8p0m/2024-11-27-11-27-31/
REMARK  5 active torsions:
REMARK  status: ('A' for Active; 'I' for Inactive)
REMARK    1  A    between atoms: C_2  and  C_11
REMARK    2  A    between atoms: C_6  and  C_8
REMARK    3  A    between atoms: C_16  and  C_17
REMARK    4  A    between atoms: C_18  and  C_19
REMARK    5  A    between atoms: C_19  and  C_20
REMARK                            x       y       z     vdW  Elec       q    Type
REMARK                         _______ _______ _______ _____ _____    ______ ____
ROOT
ATOM      1  C   UNL A   1     -23.679   0.651  27.176  0.00  0.00    +0.001 A 
ATOM      2  C   UNL A   1     -22.691   1.512  26.988  0.00  0.00    +0.000 A 
ATOM      3  C   UNL A   1     -21.501   1.391  27.708  0.00  0.00    +0.000 A 
ATOM      4  C   UNL A   1     -21.393   0.472  28.731  0.00  0.00    -0.000 A 
ATOM      5  C   UNL A   1     -22.420  -0.469  28.934  0.00  0.00    -0.000 A 
ATOM      6  C   UNL A   1     -23.613  -0.336  28.148  0.00  0.00    -0.000 A 
ENDROOT
BRANCH   1   8
ATOM      7  C   UNL A   1     -26.031   1.341  26.852  0.00  0.00    +0.058 A 
ATOM      8  C   UNL A   1     -25.058   0.839  26.338  0.00  0.00    +0.011 A 
ATOM      9  C   UNL A   1     -25.106   0.097  25.174  0.00  0.00    +0.001 A 
ATOM     10  C   UNL A   1     -26.273   0.114  24.513  0.00  0.00    +0.007 A 
ATOM     11  C   UNL A   1     -27.170   1.624  26.068  0.00  0.00    +0.018 A 
ATOM     12  C   UNL A   1     -27.286   0.904  24.951  0.00  0.00    +0.081 A 
ATOM     13 CL   UNL A   1     -25.814   2.251  28.339  0.00  0.00    -0.082 Cl
BRANCH  12  14
ATOM     14  C   UNL A   1     -28.584   1.113  24.299  0.00  0.00    +0.388 C 
ATOM     15  O   UNL A   1     -29.015   0.420  23.449  0.00  0.00    -0.241 OA
ATOM     16  O   UNL A   1     -29.486   1.848  25.075  0.00  0.00    -0.241 OA
ENDBRANCH  12  14
ENDBRANCH   1   8
BRANCH   6  17
ATOM     17  C   UNL A   1     -24.700  -1.315  28.437  0.00  0.00    -0.004 C 
ATOM     18  C   UNL A   1     -24.678  -2.336  29.133  0.00  0.00    -0.021 C 
BRANCH  18  19
ATOM     19  C   UNL A   1     -25.711  -3.257  29.376  0.00  0.00    +0.052 C 
BRANCH  19  20
ATOM     20  C   UNL A   1     -25.545  -4.620  29.447  0.00  0.00    -0.021 C 
ATOM     21  C   UNL A   1     -24.558  -5.227  28.794  0.00  0.00    -0.005 C 
ENDBRANCH  19  20
ENDBRANCH  18  19
ENDBRANCH   6  17
TORSDOF 5
ENDMDL
ENDMDL
