MODEL 244
MODEL 1
REMARK VINA RESULT:    -6.577      0.000      0.000
REMARK INTER + INTRA:          -7.816
REMARK INTER:                  -7.345
REMARK INTRA:                  -0.471
REMARK UNBOUND:                -0.471
REMARK  Name = No_244-gen_results/8p0m/2024-11-27-11-27-31/
REMARK  2 active torsions:
REMARK  status: ('A' for Active; 'I' for Inactive)
REMARK    1  A    between atoms: C_2  and  C_7
REMARK    2  A    between atoms: C_7  and  C_8
REMARK                            x       y       z     vdW  Elec       q    Type
REMARK                         _______ _______ _______ _____ _____    ______ ____
ROOT
ATOM      1  C   UNL A   1     -24.449  -1.119  29.210  0.00  0.00    +0.053 C 
ENDROOT
BRANCH   1   3
ATOM      2  C   UNL A   1     -23.819  -3.367  28.662  0.00  0.00    -0.004 A 
ATOM      3  C   UNL A   1     -24.625  -2.594  29.127  0.00  0.00    -0.018 A 
ATOM      4  C   UNL A   1     -25.827  -3.044  29.661  0.00  0.00    -0.004 A 
ATOM      5  C   UNL A   1     -26.171  -4.442  29.636  0.00  0.00    -0.000 A 
ATOM      6  C   UNL A   1     -25.193  -5.263  29.059  0.00  0.00    -0.000 A 
ATOM      7  C   UNL A   1     -24.079  -4.786  28.553  0.00  0.00    -0.000 A 
ENDBRANCH   1   3
BRANCH   1   8
ATOM      8  C   UNL A   1     -24.132  -0.389  28.200  0.00  0.00    -0.018 A 
ATOM      9  C   UNL A   1     -24.912  -0.178  27.039  0.00  0.00    -0.004 A 
ATOM     10  C   UNL A   1     -24.653   0.852  26.082  0.00  0.00    -0.000 A 
ATOM     11  C   UNL A   1     -23.486   1.652  26.283  0.00  0.00    -0.000 A 
ATOM     12  C   UNL A   1     -22.714   1.470  27.444  0.00  0.00    -0.000 A 
ATOM     13  C   UNL A   1     -22.996   0.537  28.369  0.00  0.00    -0.004 A 
ENDBRANCH   1   8
TORSDOF 2
ENDMDL
ENDMDL
