MODEL 2451
MODEL 1
REMARK VINA RESULT:    -8.627      0.000      0.000
REMARK INTER + INTRA:         -13.515
REMARK INTER:                 -11.653
REMARK INTRA:                  -1.863
REMARK UNBOUND:                -1.863
REMARK  Name = No_2451-gen_results/8p0m/2024-11-27-11-27-31/
REMARK  6 active torsions:
REMARK  status: ('A' for Active; 'I' for Inactive)
REMARK    1  A    between atoms: C_2  and  C_7
REMARK    2  A    between atoms: C_3  and  O_20
REMARK    3  A    between atoms: C_4  and  C_14
REMARK    4  A    between atoms: O_20  and  C_21
REMARK    5  A    between atoms: C_29  and  O_32
REMARK    6  A    between atoms: O_32  and  C_33
REMARK                            x       y       z     vdW  Elec       q    Type
REMARK                         _______ _______ _______ _____ _____    ______ ____
ROOT
ATOM      1  C   UNL A   1     -10.770   1.133  36.649  0.00  0.00    +0.035 A 
ATOM      2  C   UNL A   1     -10.980   1.549  35.704  0.00  0.00    +0.001 A 
ATOM      3  C   UNL A   1      -9.487   0.336  36.738  0.00  0.00    +0.145 A 
ATOM      4  C   UNL A   1      -8.607   0.319  35.636  0.00  0.00    +0.035 A 
ATOM      5  C   UNL A   1     -10.235   1.706  34.434  0.00  0.00    -0.002 A 
ATOM      6  C   UNL A   1      -9.046   0.992  34.480  0.00  0.00    +0.003 A 
ENDROOT
BRANCH   2   7
ATOM      7  C   UNL A   1     -12.375   2.294  35.765  0.00  0.00    +0.122 C 
ATOM      8  N   UNL A   1     -12.998   2.449  34.773  0.00  0.00    -0.199 NA
ATOM      9  C   UNL A   1     -12.880   2.763  37.102  0.00  0.00    +0.053 C 
ATOM     10  C   UNL A   1     -14.163   3.317  37.094  0.00  0.00    -0.013 A 
ATOM     11  C   UNL A   1     -14.261   2.986  34.752  0.00  0.00    +0.265 C 
ATOM     12  C   UNL A   1     -14.799   3.435  35.897  0.00  0.00    +0.051 A 
ATOM     13  O   UNL A   1     -14.869   3.088  33.613  0.00  0.00    -0.268 OA
ATOM     14  C   UNL A   1     -16.168   4.065  35.871  0.00  0.00    +0.007 A 
ATOM     15  C   UNL A   1     -16.903   3.995  36.875  0.00  0.00    +0.038 A 
ATOM     16  C   UNL A   1     -16.481   3.381  38.053  0.00  0.00    +0.145 A 
ATOM     17  C   UNL A   1     -15.078   3.091  38.241  0.00  0.00    +0.033 A 
BRANCH  16  18
ATOM     18  O   UNL A   1     -17.197   3.528  39.237  0.00  0.00    -0.451 OA
BRANCH  18  19
ATOM     19  C   UNL A   1     -16.739   2.793  40.236  0.00  0.00    +0.175 C 
ATOM     20  C   UNL A   1     -17.484   1.845  40.812  0.00  0.00    +0.015 C 
ATOM     21  C   UNL A   1     -18.068   1.932  41.825  0.00  0.00    +0.034 C 
ENDBRANCH  18  19
ENDBRANCH  16  18
ENDBRANCH   2   7
BRANCH   4  22
ATOM     22  C   UNL A   1      -7.383  -0.433  35.654  0.00  0.00    +0.003 A 
ATOM     23  C   UNL A   1      -6.207   0.380  35.850  0.00  0.00    +0.003 A 
ATOM     24  C   UNL A   1      -5.037   0.006  35.117  0.00  0.00    +0.042 A 
ATOM     25  C   UNL A   1      -4.994  -1.278  34.521  0.00  0.00    +0.196 A 
ATOM     26  C   UNL A   1      -6.172  -1.978  34.329  0.00  0.00    +0.042 A 
ATOM     27  C   UNL A   1      -7.341  -1.607  34.901  0.00  0.00    +0.003 A 
ATOM     28  O   UNL A   1      -3.739  -1.457  33.999  0.00  0.00    -0.287 OA
ENDBRANCH   4  22
BRANCH   3  29
ATOM     29  O   UNL A   1      -9.155  -0.360  37.821  0.00  0.00    -0.454 OA
BRANCH  29  30
ATOM     30  C   UNL A   1     -10.059  -1.081  38.498  0.00  0.00    +0.145 A 
ATOM     31  C   UNL A   1     -10.480  -0.866  39.496  0.00  0.00    +0.037 A 
ATOM     32  C   UNL A   1     -10.835  -1.889  37.511  0.00  0.00    +0.037 A 
ATOM     33  C   UNL A   1     -11.491  -1.597  40.181  0.00  0.00    +0.003 A 
ATOM     34  C   UNL A   1     -11.878  -2.637  38.007  0.00  0.00    +0.003 A 
ATOM     35  C   UNL A   1     -12.220  -2.465  39.328  0.00  0.00    +0.000 A 
ENDBRANCH  29  30
ENDBRANCH   3  29
TORSDOF 6
ENDMDL
ENDMDL
