MODEL 2452
MODEL 1
REMARK VINA RESULT:    -7.803      0.000      0.000
REMARK INTER + INTRA:         -11.188
REMARK INTER:                 -10.084
REMARK INTRA:                  -1.104
REMARK UNBOUND:                -1.104
REMARK  Name = No_2452-gen_results/8p0m/2024-11-27-11-27-31/
REMARK  5 active torsions:
REMARK  status: ('A' for Active; 'I' for Inactive)
REMARK    1  A    between atoms: C_1  and  C_5
REMARK    2  A    between atoms: C_5  and  C_9
REMARK    3  A    between atoms: C_6  and  C_14
REMARK    4  A    between atoms: C_7  and  C_10
REMARK    5  A    between atoms: C_14  and  C_15
REMARK                            x       y       z     vdW  Elec       q    Type
REMARK                         _______ _______ _______ _____ _____    ______ ____
ROOT
ATOM      1  C   UNL A   1     -23.600  -1.550  29.463  0.00  0.00    -0.022 C 
ATOM      2  C   UNL A   1     -24.290  -2.641  28.801  0.00  0.00    -0.018 C 
ENDROOT
BRANCH   1   3
ATOM      3  C   UNL A   1     -22.855  -0.499  28.692  0.00  0.00    -0.004 A 
ATOM      4  C   UNL A   1     -21.658  -0.453  28.856  0.00  0.00    -0.000 A 
ATOM      5  C   UNL A   1     -20.838   0.474  28.243  0.00  0.00    +0.000 A 
ATOM      6  C   UNL A   1     -21.459   1.468  27.591  0.00  0.00    +0.005 A 
ATOM      7  C   UNL A   1     -22.811   1.513  27.562  0.00  0.00    +0.055 A 
ATOM      8  C   UNL A   1     -23.431   0.597  28.287  0.00  0.00    +0.004 A 
BRANCH   7   9
ATOM      9  C   UNL A   1     -23.462   2.591  26.807  0.00  0.00    +0.265 C 
ATOM     10  N   UNL A   1     -24.180   3.372  27.365  0.00  0.00    -0.200 NA
ATOM     11  O   UNL A   1     -23.373   2.688  25.534  0.00  0.00    -0.268 OA
ATOM     12  C   UNL A   1     -24.993   4.435  26.723  0.00  0.00    +0.139 C 
ENDBRANCH   7   9
ENDBRANCH   1   3
BRANCH   1  13
ATOM     13  C   UNL A   1     -24.273  -1.144  30.649  0.00  0.00    +0.044 C 
ATOM     14  C   UNL A   1     -25.520  -0.905  30.914  0.00  0.00    -0.027 C 
ATOM     15  C   UNL A   1     -25.927  -0.510  32.133  0.00  0.00    -0.030 C 
ATOM     16  C   UNL A   1     -25.001  -0.133  33.129  0.00  0.00    +0.026 C 
ATOM     17  C   UNL A   1     -23.532  -0.506  31.848  0.00  0.00    +0.012 C 
ATOM     18  C   UNL A   1     -22.819  -1.463  32.700  0.00  0.00    +0.001 C 
ENDBRANCH   1  13
BRANCH   2  19
ATOM     19  C   UNL A   1     -24.804  -3.559  29.387  0.00  0.00    +0.140 C 
BRANCH  19  20
ATOM     20  C   UNL A   1     -24.579  -4.837  28.921  0.00  0.00    +0.369 C 
ATOM     21  O   UNL A   1     -25.069  -5.863  29.531  0.00  0.00    -0.245 OA
ATOM     22  O   UNL A   1     -23.544  -5.063  28.131  0.00  0.00    -0.245 OA
ENDBRANCH  19  20
ENDBRANCH   2  19
TORSDOF 5
ENDMDL
ENDMDL
