REMARK  Name = No_2453-gen_results/8p0m/2024-11-27-11-27-31/
REMARK  2 active torsions:
REMARK  status: ('A' for Active; 'I' for Inactive)
REMARK    1  A    between atoms: C_2  and  C_7
REMARK    2  A    between atoms: N_8  and  C_9
REMARK                            x       y       z     vdW  Elec       q    Type
REMARK                         _______ _______ _______ _____ _____    ______ ____
ROOT
ATOM      1  C   UNL A   1     -28.016  -0.814  28.878  0.00  0.00    +0.005 A 
ATOM      2  C   UNL A   1     -28.469  -0.785  29.829  0.00  0.00    +0.055 A 
ATOM      3  C   UNL A   1     -26.546  -0.876  28.850  0.00  0.00    +0.000 A 
ATOM      4  C   UNL A   1     -25.897  -0.827  29.889  0.00  0.00    +0.000 A 
ATOM      5  C   UNL A   1     -27.913  -0.839  31.194  0.00  0.00    +0.005 A 
ATOM      6  C   UNL A   1     -26.552  -0.832  31.177  0.00  0.00    +0.000 A 
ENDROOT
BRANCH   2   7
ATOM      7  C   UNL A   1     -30.064  -0.843  30.114  0.00  0.00    +0.269 C 
ATOM      8  N   UNL A   1     -30.671  -1.764  30.358  0.00  0.00    -0.174 NA
ATOM      9  O   UNL A   1     -30.540   0.312  30.189  0.00  0.00    -0.268 OA
BRANCH   8  10
ATOM     10  C   UNL A   1     -31.960  -1.936  30.216  0.00  0.00    +0.084 C 
ATOM     11  C   UNL A   1     -32.724  -1.788  29.458  0.00  0.00    -0.008 C 
ATOM     12  C   UNL A   1     -34.137  -2.046  29.423  0.00  0.00    +0.032 C 
ENDBRANCH   8  10
ENDBRANCH   2   7
TORSDOF 2
