REMARK  Name = No_2454-gen_results/8p0m/2024-11-27-11-27-31/
REMARK  1 active torsions:
REMARK  status: ('A' for Active; 'I' for Inactive)
REMARK    1  A    between atoms: C_4  and  C_5
REMARK                            x       y       z     vdW  Elec       q    Type
REMARK                         _______ _______ _______ _____ _____    ______ ____
ROOT
ATOM      1  O   UNL A   1     -28.123  -1.335  28.487  0.00  0.00    -0.273 OA
ATOM      2  C   UNL A   1     -27.481  -0.404  28.709  0.00  0.00    +0.242 C 
ATOM      3  N   UNL A   1     -26.460  -0.110  28.005  0.00  0.00    -0.203 NA
ATOM      4  C   UNL A   1     -25.810   0.660  28.079  0.00  0.00    +0.117 C 
ATOM      5  C   UNL A   1     -27.537   0.244  30.083  0.00  0.00    +0.087 C 
ATOM      6  C   UNL A   1     -26.712   1.327  30.293  0.00  0.00    +0.012 C 
ATOM      7  C   UNL A   1     -25.636   1.541  29.331  0.00  0.00    +0.027 C 
ENDROOT
BRANCH   4   8
ATOM      8  C   UNL A   1     -24.575   0.945  27.276  0.00  0.00    -0.009 C 
ATOM      9  C   UNL A   1     -23.549   1.899  27.635  0.00  0.00    -0.029 C 
ATOM     10  C   UNL A   1     -22.387   1.958  26.917  0.00  0.00    +0.030 C 
ENDBRANCH   4   8
TORSDOF 1
