MODEL 2454
MODEL 1
REMARK VINA RESULT:    -4.917      0.000      0.000
REMARK INTER + INTRA:          -5.319
REMARK INTER:                  -5.204
REMARK INTRA:                  -0.115
REMARK UNBOUND:                -0.115
REMARK  Name = No_2454-gen_results/8p0m/2024-11-27-11-27-31/
REMARK  1 active torsions:
REMARK  status: ('A' for Active; 'I' for Inactive)
REMARK    1  A    between atoms: C_4  and  C_5
REMARK                            x       y       z     vdW  Elec       q    Type
REMARK                         _______ _______ _______ _____ _____    ______ ____
ROOT
ATOM      1  O   UNL A   1     -27.666  -3.029  30.286  0.00  0.00    -0.273 OA
ATOM      2  C   UNL A   1     -26.589  -3.300  29.977  0.00  0.00    +0.242 C 
ATOM      3  N   UNL A   1     -25.754  -2.412  29.607  0.00  0.00    -0.203 NA
ATOM      4  C   UNL A   1     -24.792  -2.497  29.310  0.00  0.00    +0.117 C 
ATOM      5  C   UNL A   1     -26.258  -4.724  29.561  0.00  0.00    +0.087 C 
ATOM      6  C   UNL A   1     -24.962  -4.969  29.162  0.00  0.00    +0.012 C 
ATOM      7  C   UNL A   1     -24.132  -3.811  28.849  0.00  0.00    +0.027 C 
ENDROOT
BRANCH   4   8
ATOM      8  C   UNL A   1     -23.850  -1.439  28.814  0.00  0.00    -0.009 C 
ATOM      9  C   UNL A   1     -22.598  -1.078  29.440  0.00  0.00    -0.029 C 
ATOM     10  C   UNL A   1     -21.740  -0.218  28.813  0.00  0.00    +0.030 C 
ENDBRANCH   4   8
TORSDOF 1
ENDMDL
ENDMDL
