MODEL 2456
MODEL 1
REMARK VINA RESULT:    -7.234      0.000      0.000
REMARK INTER + INTRA:          -8.815
REMARK INTER:                  -8.080
REMARK INTRA:                  -0.735
REMARK UNBOUND:                -0.735
REMARK  Name = No_2456-gen_results/8p0m/2024-11-27-11-27-31/
REMARK  2 active torsions:
REMARK  status: ('A' for Active; 'I' for Inactive)
REMARK    1  A    between atoms: C_2  and  C_9
REMARK    2  A    between atoms: C_10  and  C_11
REMARK                            x       y       z     vdW  Elec       q    Type
REMARK                         _______ _______ _______ _____ _____    ______ ____
ROOT
ATOM      1  C   UNL A   1     -23.793  -1.262  28.579  0.00  0.00    +0.002 A 
ATOM      2  C   UNL A   1     -24.291  -0.342  27.728  0.00  0.00    -0.004 A 
ATOM      3  C   UNL A   1     -22.654  -1.083  29.465  0.00  0.00    +0.000 A 
ATOM      4  C   UNL A   1     -21.935   0.000  29.268  0.00  0.00    +0.000 A 
ATOM      5  C   UNL A   1     -23.459   0.738  27.538  0.00  0.00    -0.000 A 
ATOM      6  C   UNL A   1     -22.268   0.998  28.263  0.00  0.00    -0.000 A 
ENDROOT
BRANCH   1   8
ATOM      7  C   UNL A   1     -24.380  -3.619  28.619  0.00  0.00    +0.032 A 
ATOM      8  C   UNL A   1     -24.633  -2.488  28.964  0.00  0.00    +0.030 A 
ATOM      9  C   UNL A   1     -25.709  -2.156  29.786  0.00  0.00    +0.140 A 
ATOM     10  C   UNL A   1     -26.620  -3.200  30.214  0.00  0.00    +0.032 A 
ATOM     11  C   UNL A   1     -26.265  -4.492  29.765  0.00  0.00    +0.032 A 
ATOM     12  C   UNL A   1     -25.235  -4.707  28.987  0.00  0.00    +0.140 A 
ATOM     13  F   UNL A   1     -26.030  -0.924  30.170  0.00  0.00    -0.204 F 
ATOM     14  F   UNL A   1     -24.962  -5.965  28.591  0.00  0.00    -0.204 F 
ENDBRANCH   1   8
BRANCH   2  15
ATOM     15  C   UNL A   1     -25.318  -0.579  26.994  0.00  0.00    -0.022 C 
ATOM     16  C   UNL A   1     -25.388  -0.131  25.588  0.00  0.00    -0.005 C 
ATOM     17  C   UNL A   1     -26.591   0.153  27.069  0.00  0.00    +0.031 C 
ENDBRANCH   2  15
TORSDOF 2
ENDMDL
ENDMDL
