REMARK  Name = outputs/IAG933/test6/raw/output_2457_IAG933_linker_design_.xyz
REMARK  16 active torsions:
REMARK  status: ('A' for Active; 'I' for Inactive)
REMARK    1  A    between atoms: C_1  and  C_2
REMARK    2  A    between atoms: C_1  and  C_8
REMARK    3  A    between atoms: C_1  and  C_47
REMARK    4  A    between atoms: C_13  and  C_39
REMARK    5  A    between atoms: C_14  and  C_15
REMARK    6  A    between atoms: C_21  and  O_22
REMARK    7  A    between atoms: O_22  and  C_23
REMARK    8  A    between atoms: C_23  and  C_24
REMARK    9  A    between atoms: C_28  and  C_31
REMARK   10  A    between atoms: C_28  and  O_33
REMARK   11  A    between atoms: C_28  and  C_35
REMARK   12  A    between atoms: N_29  and  C_44
REMARK   13  A    between atoms: C_31  and  C_45
REMARK   14  A    between atoms: O_33  and  C_47
REMARK   15  A    between atoms: C_36  and  C_47
REMARK   16  A    between atoms: C_43  and  C_45
REMARK                            x       y       z     vdW  Elec       q    Type
REMARK                         _______ _______ _______ _____ _____    ______ ____
ROOT
ATOM      1  C   UNL A   1     -24.973   0.052  28.968  0.00  0.00    +0.143 C 
ENDROOT
BRANCH   1   4
ATOM      2  C   UNL A   1     -21.503   1.458  27.812  0.00  0.00    -0.000 C 
ATOM      3  C   UNL A   1     -21.855   2.010  26.515  0.00  0.00    -0.000 C 
ATOM      4  C   UNL A   1     -23.865   0.713  28.098  0.00  0.00    +0.001 C 
ATOM      5  C   UNL A   1     -22.523   0.817  28.625  0.00  0.00    -0.002 C 
ATOM      6  C   UNL A   1     -23.223   1.972  26.072  0.00  0.00    -0.004 C 
ATOM      7  C   UNL A   1     -24.248   1.338  26.893  0.00  0.00    -0.017 C 
BRANCH   7   8
ATOM      8  C   UNL A   1     -25.688   1.614  26.461  0.00  0.00    +0.092 C 
ATOM      9  C   UNL A   1     -26.250   2.920  26.395  0.00  0.00    +0.059 C 
ATOM     10  C   UNL A   1     -27.438   3.091  25.645  0.00  0.00    +0.102 C 
ATOM     11  N   UNL A   1     -28.075   2.089  25.003  0.00  0.00    -0.212 NA
ATOM     12  C   UNL A   1     -27.543   0.849  25.079  0.00  0.00    +0.234 C 
ATOM     13  C   UNL A   1     -26.354   0.576  25.777  0.00  0.00    +0.244 C 
ATOM     14  F   UNL A   1     -25.860  -0.681  25.795  0.00  0.00    -0.227 F 
BRANCH   9  15
ATOM     15  C   UNL A   1     -25.642   4.093  27.123  0.00  0.00    +0.263 C 
ATOM     16  N   UNL A   1     -25.614   5.252  26.449  0.00  0.00    -0.200 NA
ATOM     17  C   UNL A   1     -25.026   6.479  26.963  0.00  0.00    +0.139 C 
ATOM     18  O   UNL A   1     -25.143   3.966  28.243  0.00  0.00    -0.269 OA
ENDBRANCH   9  15
BRANCH  12  19
ATOM     19  O   UNL A   1     -28.193  -0.208  24.477  0.00  0.00    -0.459 OA
BRANCH  19  20
ATOM     20  C   UNL A   1     -29.460   0.005  23.866  0.00  0.00    +0.242 C 
BRANCH  20  21
ATOM     21  C   UNL A   1     -30.065  -1.377  23.573  0.00  0.00    +0.229 C 
ATOM     22  O   UNL A   1     -30.729  -1.878  24.721  0.00  0.00    -0.216 OA
ENDBRANCH  20  21
ENDBRANCH  19  20
ENDBRANCH  12  19
ENDBRANCH   7   8
ENDBRANCH   1   4
BRANCH   1  23
ATOM     23  C   UNL A   1     -24.855  -1.012  30.143  0.00  0.00    +0.070 C 
BRANCH  23  24
ATOM     24  C   UNL A   1     -24.973  -2.505  29.788  0.00  0.00    -0.018 C 
ATOM     25  C   UNL A   1     -23.906  -3.173  29.146  0.00  0.00    -0.004 C 
ATOM     26  C   UNL A   1     -23.989  -4.549  28.853  0.00  0.00    -0.000 C 
ATOM     27  C   UNL A   1     -25.137  -5.280  29.205  0.00  0.00    -0.000 C 
ATOM     28  C   UNL A   1     -26.232  -4.611  29.784  0.00  0.00    -0.000 C 
ATOM     29  C   UNL A   1     -26.155  -3.232  30.065  0.00  0.00    -0.004 C 
ENDBRANCH  23  24
BRANCH  23  30
ATOM     30  C   UNL A   1     -25.387  -0.679  31.571  0.00  0.00    +0.080 C 
ATOM     31  C   UNL A   1     -25.189   0.773  32.028  0.00  0.00    +0.019 C 
ATOM     32  C   UNL A   1     -25.336   0.684  33.544  0.00  0.00    +0.020 C 
ATOM     33  C   UNL A   1     -24.829  -0.715  33.905  0.00  0.00    +0.089 C 
ATOM     34  N   UNL A   1     -24.758  -1.481  32.646  0.00  0.00    -0.219 NA
ENDBRANCH  23  30
ENDBRANCH   1  23
BRANCH   1  35
ATOM     35  O   UNL A   1     -25.897   0.899  29.102  0.00  0.00    -0.346 OA
BRANCH  35  36
ATOM     36  C   UNL A   1     -27.143   0.604  29.315  0.00  0.00    +0.188 C 
BRANCH  36  37
ATOM     37  C   UNL A   1     -27.770   1.601  29.969  0.00  0.00    +0.237 C 
ATOM     38  O   UNL A   1     -28.218   1.624  31.162  0.00  0.00    -0.286 OA
ENDBRANCH  36  37
BRANCH  36  39
ATOM     39  C   UNL A   1     -27.717  -0.572  28.703  0.00  0.00    +0.112 C 
BRANCH  39  41
ATOM     40  O   UNL A   1     -30.059  -0.367  27.762  0.00  0.00    -0.286 OA
ATOM     41  C   UNL A   1     -29.317  -0.451  28.775  0.00  0.00    +0.230 C 
BRANCH  41  45
ATOM     42  N   UNL A   1     -30.711  -1.953  30.112  0.00  0.00    -0.186 N 
ATOM     43  O   UNL A   1     -28.869  -1.107  31.009  0.00  0.00    -0.265 OA
ATOM     44  N   UNL A   1     -32.070  -1.379  29.849  0.00  0.00    -0.014 NA
ATOM     45  C   UNL A   1     -29.650  -1.198  30.096  0.00  0.00    +0.299 C 
BRANCH  42  47
ATOM     46  C   UNL A   1     -31.757  -2.659  32.145  0.00  0.00    +0.023 C 
ATOM     47  C   UNL A   1     -30.914  -3.113  30.947  0.00  0.00    +0.095 C 
ATOM     48  C   UNL A   1     -29.731  -4.048  31.318  0.00  0.00    +0.023 C 
ENDBRANCH  42  47
ENDBRANCH  41  45
ENDBRANCH  39  41
ENDBRANCH  36  39
ENDBRANCH  35  36
ENDBRANCH   1  35
TORSDOF 16
