MODEL 2457
MODEL 1
REMARK VINA RESULT:    -7.290      0.000      0.000
REMARK INTER + INTRA:         -11.434
REMARK INTER:                  -9.421
REMARK INTRA:                  -2.013
REMARK UNBOUND:                -2.013
REMARK  Name = No_2457-gen_results/8p0m/2024-11-27-11-27-31/
REMARK  5 active torsions:
REMARK  status: ('A' for Active; 'I' for Inactive)
REMARK    1  A    between atoms: C_10  and  C_11
REMARK    2  A    between atoms: C_11  and  O_13
REMARK    3  A    between atoms: O_13  and  C_14
REMARK    4  A    between atoms: C_14  and  C_15
REMARK    5  A    between atoms: C_14  and  N_21
REMARK                            x       y       z     vdW  Elec       q    Type
REMARK                         _______ _______ _______ _____ _____    ______ ____
ROOT
ATOM      1  O   UNL A   1      -8.874   0.369  34.289  0.00  0.00    -0.429 OA
ENDROOT
BRANCH   1   2
ATOM      2  C   UNL A   1      -9.388   1.511  34.004  0.00  0.00    +0.343 C 
ATOM      3  O   UNL A   1      -8.741   2.426  33.556  0.00  0.00    -0.245 OA
BRANCH   2  13
ATOM      4  C   UNL A   1     -13.934   2.801  35.691  0.00  0.00    +0.000 A 
ATOM      5  C   UNL A   1     -13.456   3.212  36.535  0.00  0.00    +0.000 A 
ATOM      6  C   UNL A   1     -13.128   2.167  34.720  0.00  0.00    +0.000 A 
ATOM      7  C   UNL A   1     -11.755   2.091  34.848  0.00  0.00    +0.006 A 
ATOM      8  C   UNL A   1     -11.209   2.651  35.991  0.00  0.00    +0.000 A 
ATOM      9  C   UNL A   1     -12.040   3.226  36.930  0.00  0.00    +0.000 A 
ATOM     10  C   UNL A   1     -13.679   1.522  33.484  0.00  0.00    +0.000 A 
ATOM     11  C   UNL A   1     -12.770   1.095  32.501  0.00  0.00    +0.000 A 
ATOM     12  C   UNL A   1     -11.416   0.977  32.737  0.00  0.00    +0.006 A 
ATOM     13  C   UNL A   1     -10.873   1.568  33.877  0.00  0.00    +0.076 A 
ENDBRANCH   2  13
ENDBRANCH   1   2
BRANCH   1  14
ATOM     14  C   UNL A   1      -8.311   0.063  35.064  0.00  0.00    +0.255 C 
BRANCH  14  15
ATOM     15  C   UNL A   1      -8.758   0.030  36.369  0.00  0.00    +0.034 A 
ATOM     16  C   UNL A   1      -8.154   0.725  37.288  0.00  0.00    +0.001 A 
ATOM     17  C   UNL A   1      -8.730   0.896  38.617  0.00  0.00    -0.000 A 
ATOM     18  C   UNL A   1      -9.932  -0.727  36.814  0.00  0.00    +0.001 A 
ATOM     19  C   UNL A   1     -10.485  -0.639  38.080  0.00  0.00    -0.000 A 
ATOM     20  C   UNL A   1      -9.857   0.153  39.029  0.00  0.00    -0.000 A 
ENDBRANCH  14  15
BRANCH  14  21
ATOM     21  N   UNL A   1      -6.954  -0.419  34.913  0.00  0.00    -0.236 NA
ATOM     22  C   UNL A   1      -5.842   0.096  34.951  0.00  0.00    +0.076 C 
ATOM     23  C   UNL A   1      -4.758  -0.345  34.840  0.00  0.00    +0.018 C 
ATOM     24  C   UNL A   1      -6.741  -1.784  34.583  0.00  0.00    +0.076 C 
ATOM     25  C   UNL A   1      -5.572  -2.453  34.541  0.00  0.00    +0.018 C 
ATOM     26  C   UNL A   1      -4.454  -1.663  34.673  0.00  0.00    +0.003 C 
ENDBRANCH  14  21
ENDBRANCH   1  14
TORSDOF 5
ENDMDL
ENDMDL
