REMARK  Name = outputs/IAG933/test6/raw/output_2458_IAG933_linker_design_.xyz
REMARK  14 active torsions:
REMARK  status: ('A' for Active; 'I' for Inactive)
REMARK    1  A    between atoms: C_1  and  C_2
REMARK    2  A    between atoms: C_1  and  C_8
REMARK    3  A    between atoms: C_1  and  C_31
REMARK    4  A    between atoms: C_13  and  C_42
REMARK    5  A    between atoms: C_14  and  C_15
REMARK    6  A    between atoms: C_21  and  O_22
REMARK    7  A    between atoms: O_22  and  C_23
REMARK    8  A    between atoms: C_23  and  C_24
REMARK    9  A    between atoms: N_29  and  C_31
REMARK   10  A    between atoms: N_29  and  C_45
REMARK   11  A    between atoms: C_31  and  N_34
REMARK   12  A    between atoms: C_32  and  C_36
REMARK   13  A    between atoms: C_32  and  C_37
REMARK   14  A    between atoms: C_37  and  C_44
REMARK                            x       y       z     vdW  Elec       q    Type
REMARK                         _______ _______ _______ _____ _____    ______ ____
ROOT
ATOM      1  C   UNL A   1     -25.383  -0.288  28.891  0.00  0.00    +0.192 C 
ENDROOT
BRANCH   1   2
ATOM      2  N   UNL A   1     -26.709  -0.063  28.654  0.00  0.00    -0.185 NA
ATOM      3  C   UNL A   1     -28.085  -0.154  28.910  0.00  0.00    +0.243 C 
ATOM      4  O   UNL A   1     -28.934  -0.506  28.111  0.00  0.00    -0.273 OA
BRANCH   3   5
ATOM      5  C   UNL A   1     -28.538   0.149  30.314  0.00  0.00    +0.089 C 
BRANCH   5   6
ATOM      6  C   UNL A   1     -28.408   1.754  30.398  0.00  0.00    +0.037 C 
BRANCH   6  11
ATOM      7  C   UNL A   1     -31.111   3.483  30.139  0.00  0.00    +0.144 C 
ATOM      8  C   UNL A   1     -30.671   2.020  30.069  0.00  0.00    +0.059 C 
ATOM      9  C   UNL A   1     -29.267   2.427  28.141  0.00  0.00    +0.030 C 
ATOM     10  O   UNL A   1     -29.652   3.825  30.043  0.00  0.00    -0.358 OA
ATOM     11  C   UNL A   1     -29.465   2.491  29.643  0.00  0.00    +0.096 C 
ENDBRANCH   6  11
ENDBRANCH   5   6
ENDBRANCH   3   5
ENDBRANCH   1   2
BRANCH   1  12
ATOM     12  C   UNL A   1     -24.855  -1.012  30.143  0.00  0.00    +0.079 C 
BRANCH  12  13
ATOM     13  C   UNL A   1     -24.973  -2.505  29.788  0.00  0.00    -0.018 C 
ATOM     14  C   UNL A   1     -23.906  -3.173  29.146  0.00  0.00    -0.004 C 
ATOM     15  C   UNL A   1     -23.989  -4.549  28.853  0.00  0.00    -0.000 C 
ATOM     16  C   UNL A   1     -25.137  -5.280  29.205  0.00  0.00    -0.000 C 
ATOM     17  C   UNL A   1     -26.232  -4.611  29.784  0.00  0.00    -0.000 C 
ATOM     18  C   UNL A   1     -26.155  -3.232  30.065  0.00  0.00    -0.004 C 
ENDBRANCH  12  13
BRANCH  12  19
ATOM     19  C   UNL A   1     -25.387  -0.679  31.571  0.00  0.00    +0.080 C 
ATOM     20  C   UNL A   1     -25.189   0.773  32.028  0.00  0.00    +0.019 C 
ATOM     21  C   UNL A   1     -25.336   0.684  33.544  0.00  0.00    +0.020 C 
ATOM     22  C   UNL A   1     -24.829  -0.715  33.905  0.00  0.00    +0.089 C 
ATOM     23  N   UNL A   1     -24.758  -1.481  32.646  0.00  0.00    -0.219 NA
ENDBRANCH  12  19
ENDBRANCH   1  12
BRANCH   1  24
ATOM     24  N   UNL A   1     -24.354  -0.081  28.239  0.00  0.00    -0.217 NA
BRANCH  24  30
ATOM     25  C   UNL A   1     -23.336   2.113  25.677  0.00  0.00    -0.003 C 
ATOM     26  C   UNL A   1     -22.323   1.099  28.039  0.00  0.00    +0.016 C 
ATOM     27  C   UNL A   1     -21.989   2.255  25.977  0.00  0.00    -0.000 C 
ATOM     28  C   UNL A   1     -24.232   1.517  26.555  0.00  0.00    -0.000 C 
ATOM     29  C   UNL A   1     -21.494   1.824  27.216  0.00  0.00    +0.001 C 
ATOM     30  C   UNL A   1     -23.652   0.871  27.652  0.00  0.00    +0.064 C 
BRANCH  28  31
ATOM     31  C   UNL A   1     -25.688   1.614  26.461  0.00  0.00    +0.094 C 
ATOM     32  C   UNL A   1     -26.250   2.920  26.395  0.00  0.00    +0.059 C 
ATOM     33  C   UNL A   1     -27.438   3.091  25.645  0.00  0.00    +0.102 C 
ATOM     34  N   UNL A   1     -28.075   2.089  25.003  0.00  0.00    -0.212 NA
ATOM     35  C   UNL A   1     -27.543   0.849  25.079  0.00  0.00    +0.234 C 
ATOM     36  C   UNL A   1     -26.354   0.576  25.777  0.00  0.00    +0.244 C 
ATOM     37  F   UNL A   1     -25.860  -0.681  25.795  0.00  0.00    -0.227 F 
BRANCH  32  38
ATOM     38  C   UNL A   1     -25.642   4.093  27.123  0.00  0.00    +0.263 C 
ATOM     39  N   UNL A   1     -25.614   5.252  26.449  0.00  0.00    -0.200 NA
ATOM     40  C   UNL A   1     -25.026   6.479  26.963  0.00  0.00    +0.139 C 
ATOM     41  O   UNL A   1     -25.143   3.966  28.243  0.00  0.00    -0.269 OA
ENDBRANCH  32  38
BRANCH  35  42
ATOM     42  O   UNL A   1     -28.193  -0.208  24.477  0.00  0.00    -0.459 OA
BRANCH  42  43
ATOM     43  C   UNL A   1     -29.460   0.005  23.866  0.00  0.00    +0.242 C 
BRANCH  43  44
ATOM     44  C   UNL A   1     -30.065  -1.377  23.573  0.00  0.00    +0.229 C 
ATOM     45  O   UNL A   1     -30.729  -1.878  24.721  0.00  0.00    -0.216 OA
ENDBRANCH  43  44
ENDBRANCH  42  43
ENDBRANCH  35  42
ENDBRANCH  28  31
ENDBRANCH  24  30
ENDBRANCH   1  24
TORSDOF 14
