MODEL 2458
MODEL 1
REMARK VINA RESULT:    -4.420      0.000      0.000
REMARK INTER + INTRA:          -4.420
REMARK INTER:                  -4.420
REMARK INTRA:                   0.000
REMARK UNBOUND:                 0.000
REMARK  Name = No_2458-gen_results/8p0m/2024-11-27-11-27-31/
REMARK  0 active torsions:
REMARK  status: ('A' for Active; 'I' for Inactive)
REMARK                            x       y       z     vdW  Elec       q    Type
REMARK                         _______ _______ _______ _____ _____    ______ ____
ROOT
ATOM      1  C   UNL A   1      -9.181  -9.185  19.986  0.00  0.00    +0.011 A 
ATOM      2  C   UNL A   1      -8.353  -9.782  19.726  0.00  0.00    +0.058 A 
ATOM      3  C   UNL A   1     -10.339  -9.219  19.014  0.00  0.00    +0.001 A 
ATOM      4  C   UNL A   1     -10.308 -10.125  17.933  0.00  0.00    +0.000 A 
ATOM      5  C   UNL A   1      -8.084 -10.818  18.703  0.00  0.00    +0.011 A 
ATOM      6  C   UNL A   1      -9.130 -10.883  17.794  0.00  0.00    +0.001 A 
ATOM      7 CL   UNL A   1      -6.957  -9.751  20.901  0.00  0.00    -0.082 Cl
ENDROOT
TORSDOF 0
ENDMDL
ENDMDL
