MODEL 2459
MODEL 1
REMARK VINA RESULT:    -4.401      0.000      0.000
REMARK INTER + INTRA:          -5.007
REMARK INTER:                  -4.916
REMARK INTRA:                  -0.091
REMARK UNBOUND:                -0.091
REMARK  Name = No_2459-gen_results/8p0m/2024-11-27-11-27-31/
REMARK  2 active torsions:
REMARK  status: ('A' for Active; 'I' for Inactive)
REMARK    1  A    between atoms: C_2  and  C_4
REMARK    2  A    between atoms: C_4  and  C_6
REMARK                            x       y       z     vdW  Elec       q    Type
REMARK                         _______ _______ _______ _____ _____    ______ ____
ROOT
ATOM      1  C   UNL A   1      -8.868  -9.214  19.656  0.00  0.00    +0.127 C 
ATOM      2 BR   UNL A   1      -9.922  -9.227  20.148  0.00  0.00    -0.073 Br
ENDROOT
BRANCH   1   4
ATOM      3 CL   UNL A   1      -6.931  -7.883  19.437  0.00  0.00    -0.075 Cl
ATOM      4  C   UNL A   1      -7.512  -8.860  19.885  0.00  0.00    +0.254 C 
ATOM      5  F   UNL A   1      -6.845  -9.634  20.661  0.00  0.00    -0.218 F 
ENDBRANCH   1   4
BRANCH   1   6
ATOM      6  C   UNL A   1      -8.883  -9.756  18.126  0.00  0.00    -0.011 C 
ATOM      7  C   UNL A   1      -9.504 -10.506  17.670  0.00  0.00    -0.004 C 
ENDBRANCH   1   6
TORSDOF 2
ENDMDL
ENDMDL
