MODEL 245
MODEL 1
REMARK VINA RESULT:    -6.629      0.000      0.000
REMARK INTER + INTRA:          -7.239
REMARK INTER:                  -7.016
REMARK INTRA:                  -0.223
REMARK UNBOUND:                -0.223
REMARK  Name = No_245-gen_results/8p0m/2024-11-27-11-27-31/
REMARK  1 active torsions:
REMARK  status: ('A' for Active; 'I' for Inactive)
REMARK    1  A    between atoms: C_4  and  C_8
REMARK                            x       y       z     vdW  Elec       q    Type
REMARK                         _______ _______ _______ _____ _____    ______ ____
ROOT
ATOM      1  C   UNL A   1     -24.886  -2.389  29.201  0.00  0.00    +0.018 C 
ATOM      2  C   UNL A   1     -25.234  -1.875  28.156  0.00  0.00    +0.004 C 
ATOM      3  C   UNL A   1     -25.886  -3.073  29.844  0.00  0.00    +0.004 C 
ATOM      4  C   UNL A   1     -23.904  -3.641  28.618  0.00  0.00    +0.004 C 
ATOM      5  C   UNL A   1     -24.208  -4.872  28.837  0.00  0.00    +0.000 C 
ATOM      6  C   UNL A   1     -26.811  -2.176  30.538  0.00  0.00    +0.000 C 
ATOM      7  C   UNL A   1     -26.259  -4.437  29.674  0.00  0.00    +0.000 C 
ATOM      8  C   UNL A   1     -25.380  -5.397  29.272  0.00  0.00    +0.000 C 
ENDROOT
BRANCH   1  12
ATOM      9  C   UNL A   1     -23.657   0.768  30.193  0.00  0.00    +0.022 C 
ATOM     10  C   UNL A   1     -23.505   1.510  29.460  0.00  0.00    +0.004 C 
ATOM     11  C   UNL A   1     -23.223  -0.628  29.805  0.00  0.00    -0.049 C 
ATOM     12  C   UNL A   1     -23.988  -1.770  30.093  0.00  0.00    -0.035 C 
ATOM     13  C   UNL A   1     -22.308   1.632  28.535  0.00  0.00    +0.001 C 
ATOM     14  C   UNL A   1     -21.770   0.404  28.198  0.00  0.00    +0.004 C 
ATOM     15  C   UNL A   1     -22.193  -0.768  28.798  0.00  0.00    +0.022 C 
ENDBRANCH   1  12
TORSDOF 1
ENDMDL
ENDMDL
