MODEL 2460
MODEL 1
REMARK VINA RESULT:    -6.501      0.000      0.000
REMARK INTER + INTRA:          -7.279
REMARK INTER:                  -6.881
REMARK INTRA:                  -0.398
REMARK UNBOUND:                -0.398
REMARK  Name = No_2460-gen_results/8p0m/2024-11-27-11-27-31/
REMARK  1 active torsions:
REMARK  status: ('A' for Active; 'I' for Inactive)
REMARK    1  A    between atoms: C_3  and  C_4
REMARK                            x       y       z     vdW  Elec       q    Type
REMARK                         _______ _______ _______ _____ _____    ______ ____
ROOT
ATOM      1  C   UNL A   1     -24.086  -4.080  28.668  0.00  0.00    +0.000 A 
ATOM      2  C   UNL A   1     -24.767  -4.850  28.901  0.00  0.00    +0.000 A 
ATOM      3  C   UNL A   1     -24.451  -2.756  28.999  0.00  0.00    +0.000 A 
ATOM      4  C   UNL A   1     -26.101  -4.813  29.526  0.00  0.00    +0.000 A 
ATOM      5  C   UNL A   1     -26.530  -3.533  29.878  0.00  0.00    +0.000 A 
ATOM      6  C   UNL A   1     -25.702  -2.477  29.669  0.00  0.00    +0.000 A 
ENDROOT
BRANCH   3   7
ATOM      7  C   UNL A   1     -23.566  -1.573  28.839  0.00  0.00    +0.000 A 
ATOM      8  C   UNL A   1     -22.551  -1.262  29.236  0.00  0.00    +0.000 A 
ATOM      9  C   UNL A   1     -21.766  -0.093  28.999  0.00  0.00    +0.000 A 
ATOM     10  C   UNL A   1     -22.449   0.865  28.139  0.00  0.00    +0.000 A 
ATOM     11  C   UNL A   1     -23.651   0.576  27.729  0.00  0.00    +0.000 A 
ATOM     12  C   UNL A   1     -24.258  -0.555  27.999  0.00  0.00    +0.000 A 
ENDBRANCH   3   7
TORSDOF 1
ENDMDL
ENDMDL
