REMARK  Name = outputs/IAG933/test6/raw/output_2461_IAG933_linker_design_.xyz
REMARK  11 active torsions:
REMARK  status: ('A' for Active; 'I' for Inactive)
REMARK    1  A    between atoms: C_1  and  C_2
REMARK    2  A    between atoms: C_13  and  C_34
REMARK    3  A    between atoms: C_14  and  C_15
REMARK    4  A    between atoms: C_21  and  O_22
REMARK    5  A    between atoms: O_22  and  C_23
REMARK    6  A    between atoms: C_23  and  C_24
REMARK    7  A    between atoms: C_28  and  C_30
REMARK    8  A    between atoms: O_29  and  C_35
REMARK    9  A    between atoms: O_29  and  C_37
REMARK   10  A    between atoms: C_33  and  C_37
REMARK   11  A    between atoms: C_34  and  C_37
REMARK                            x       y       z     vdW  Elec       q    Type
REMARK                         _______ _______ _______ _____ _____    ______ ____
ROOT
ATOM      1  C   UNL A   1     -24.855  -1.012  30.143  0.00  0.00    +0.058 C 
ATOM      2  C   UNL A   1     -25.387  -0.679  31.571  0.00  0.00    +0.080 C 
ATOM      3  C   UNL A   1     -25.189   0.773  32.028  0.00  0.00    +0.038 C 
ATOM      4  C   UNL A   1     -25.336   0.684  33.544  0.00  0.00    +0.022 C 
ATOM      5  C   UNL A   1     -24.829  -0.715  33.905  0.00  0.00    +0.089 C 
ATOM      6  N   UNL A   1     -24.758  -1.481  32.646  0.00  0.00    -0.219 NA
ATOM      7  C   UNL A   1     -25.229   2.185  31.323  0.00  0.00    +0.096 C 
ATOM      8  C   UNL A   1     -25.243   0.268  29.335  0.00  0.00    +0.119 C 
ATOM      9  N   UNL A   1     -25.346   1.733  29.901  0.00  0.00    -0.212 NA
ENDROOT
BRANCH   1  10
ATOM     10  C   UNL A   1     -24.973  -2.505  29.788  0.00  0.00    -0.020 C 
ATOM     11  C   UNL A   1     -23.906  -3.173  29.146  0.00  0.00    -0.004 C 
ATOM     12  C   UNL A   1     -23.989  -4.549  28.853  0.00  0.00    -0.000 C 
ATOM     13  C   UNL A   1     -25.137  -5.280  29.205  0.00  0.00    -0.000 C 
ATOM     14  C   UNL A   1     -26.232  -4.611  29.784  0.00  0.00    -0.000 C 
ATOM     15  C   UNL A   1     -26.155  -3.232  30.065  0.00  0.00    -0.004 C 
ENDBRANCH   1  10
BRANCH   7  16
ATOM     16  C   UNL A   1     -26.215   3.383  31.495  0.00  0.00    -0.006 C 
ATOM     17  C   UNL A   1     -28.483   4.683  32.407  0.00  0.00    -0.000 C 
ATOM     18  C   UNL A   1     -28.456   4.296  31.050  0.00  0.00    -0.000 C 
ATOM     19  C   UNL A   1     -27.340   4.622  33.207  0.00  0.00    -0.000 C 
ATOM     20  C   UNL A   1     -27.276   3.699  30.582  0.00  0.00    -0.003 C 
ATOM     21  C   UNL A   1     -26.130   4.100  32.707  0.00  0.00    -0.003 C 
ENDBRANCH   7  16
BRANCH   8  22
ATOM     22  C   UNL A   1     -24.317   0.121  28.058  0.00  0.00    +0.190 C 
BRANCH  22  23
ATOM     23  O   UNL A   1     -22.983  -0.140  28.569  0.00  0.00    -0.443 OA
BRANCH  23  25
ATOM     24  O   UNL A   1     -21.631   1.558  27.626  0.00  0.00    -0.237 OA
ATOM     25  C   UNL A   1     -21.958   0.765  28.286  0.00  0.00    +0.418 C 
ENDBRANCH  23  25
ENDBRANCH  22  23
BRANCH  22  26
ATOM     26  C   UNL A   1     -24.376   1.339  27.210  0.00  0.00    +0.074 C 
BRANCH  26  27
ATOM     27  C   UNL A   1     -25.688   1.614  26.461  0.00  0.00    +0.019 C 
ATOM     28  C   UNL A   1     -26.250   2.920  26.395  0.00  0.00    +0.073 C 
ATOM     29  C   UNL A   1     -27.438   3.091  25.645  0.00  0.00    +0.106 C 
ATOM     30  N   UNL A   1     -28.075   2.089  25.003  0.00  0.00    -0.208 NA
ATOM     31  C   UNL A   1     -27.543   0.849  25.079  0.00  0.00    +0.253 C 
ATOM     32  C   UNL A   1     -26.354   0.576  25.777  0.00  0.00    +0.189 C 
ATOM     33  F   UNL A   1     -25.860  -0.681  25.795  0.00  0.00    -0.200 F 
BRANCH  28  34
ATOM     34  C   UNL A   1     -25.642   4.093  27.123  0.00  0.00    +0.266 C 
ATOM     35  N   UNL A   1     -25.614   5.252  26.449  0.00  0.00    -0.200 NA
ATOM     36  C   UNL A   1     -25.026   6.479  26.963  0.00  0.00    +0.139 C 
ATOM     37  O   UNL A   1     -25.143   3.966  28.243  0.00  0.00    -0.268 OA
ENDBRANCH  28  34
BRANCH  31  38
ATOM     38  O   UNL A   1     -28.193  -0.208  24.477  0.00  0.00    -0.456 OA
BRANCH  38  39
ATOM     39  C   UNL A   1     -29.460   0.005  23.866  0.00  0.00    +0.243 C 
BRANCH  39  40
ATOM     40  C   UNL A   1     -30.065  -1.377  23.573  0.00  0.00    +0.229 C 
ATOM     41  O   UNL A   1     -30.729  -1.878  24.721  0.00  0.00    -0.216 OA
ENDBRANCH  39  40
ENDBRANCH  38  39
ENDBRANCH  31  38
ENDBRANCH  26  27
ENDBRANCH  22  26
ENDBRANCH   8  22
TORSDOF 11
