MODEL 2461
MODEL 1
REMARK VINA RESULT:    -6.538      0.000      0.000
REMARK INTER + INTRA:          -7.667
REMARK INTER:                  -7.303
REMARK INTRA:                  -0.365
REMARK UNBOUND:                -0.365
REMARK  Name = No_2461-gen_results/8p0m/2024-11-27-11-27-31/
REMARK  2 active torsions:
REMARK  status: ('A' for Active; 'I' for Inactive)
REMARK    1  A    between atoms: C_2  and  C_14
REMARK    2  A    between atoms: C_4  and  C_5
REMARK                            x       y       z     vdW  Elec       q    Type
REMARK                         _______ _______ _______ _____ _____    ______ ____
ROOT
ATOM      1  C   UNL A   1     -23.304   0.855  28.138  0.00  0.00    +0.036 A 
ATOM      2  C   UNL A   1     -24.060   1.280  27.540  0.00  0.00    +0.082 A 
ATOM      3  C   UNL A   1     -23.453  -0.494  28.528  0.00  0.00    +0.140 A 
ATOM      4  C   UNL A   1     -24.553  -1.244  28.160  0.00  0.00    +0.028 A 
ATOM      5  C   UNL A   1     -25.301   0.777  26.966  0.00  0.00    +0.007 A 
ATOM      6  C   UNL A   1     -25.519  -0.611  27.335  0.00  0.00    +0.002 A 
ATOM      7  F   UNL A   1     -22.494  -1.088  29.280  0.00  0.00    -0.204 F 
ENDROOT
BRANCH   4   8
ATOM      8  C   UNL A   1     -24.742  -2.636  28.539  0.00  0.00    +0.002 A 
ATOM      9  C   UNL A   1     -24.024  -3.483  28.332  0.00  0.00    +0.000 A 
ATOM     10  C   UNL A   1     -26.010  -2.899  29.233  0.00  0.00    +0.000 A 
ATOM     11  C   UNL A   1     -26.229  -4.240  29.713  0.00  0.00    +0.000 A 
ATOM     12  C   UNL A   1     -24.200  -4.963  28.698  0.00  0.00    +0.000 A 
ATOM     13  C   UNL A   1     -25.360  -5.262  29.402  0.00  0.00    +0.000 A 
ENDBRANCH   4   8
BRANCH   2  14
ATOM     14  C   UNL A   1     -23.874   2.814  27.003  0.00  0.00    +0.388 C 
ATOM     15  O   UNL A   1     -24.329   3.769  27.767  0.00  0.00    -0.241 OA
ATOM     16  O   UNL A   1     -23.545   3.023  25.873  0.00  0.00    -0.241 OA
ENDBRANCH   2  14
TORSDOF 2
ENDMDL
ENDMDL
