MODEL 2462
MODEL 1
REMARK VINA RESULT:    -6.393      0.000      0.000
REMARK INTER + INTRA:          -9.929
REMARK INTER:                  -8.261
REMARK INTRA:                  -1.668
REMARK UNBOUND:                -1.668
REMARK  Name = No_2462-gen_results/8p0m/2024-11-27-11-27-31/
REMARK  5 active torsions:
REMARK  status: ('A' for Active; 'I' for Inactive)
REMARK    1  A    between atoms: C_1  and  C_2
REMARK    2  A    between atoms: C_1  and  C_8
REMARK    3  A    between atoms: C_3  and  C_17
REMARK    4  A    between atoms: C_8  and  C_9
REMARK    5  A    between atoms: C_17  and  C_18
REMARK                            x       y       z     vdW  Elec       q    Type
REMARK                         _______ _______ _______ _____ _____    ______ ____
ROOT
ATOM      1  C   UNL A   1     -22.831   1.360  27.965  0.00  0.00    +0.000 C 
ATOM      2  C   UNL A   1     -23.214   0.272  28.731  0.00  0.00    +0.000 C 
ATOM      3  C   UNL A   1     -22.348  -0.771  29.228  0.00  0.00    +0.000 C 
ATOM      4  C   UNL A   1     -20.969  -0.710  28.917  0.00  0.00    +0.000 C 
ATOM      5  C   UNL A   1     -20.511   0.380  28.132  0.00  0.00    +0.000 C 
ATOM      6  C   UNL A   1     -21.401   1.329  27.734  0.00  0.00    +0.000 C 
ATOM      7  C   UNL A   1     -23.575   1.089  30.019  0.00  0.00    +0.000 C 
ENDROOT
BRANCH   1   8
ATOM      8  C   UNL A   1     -23.562   2.258  27.617  0.00  0.00    +0.005 C 
BRANCH   8   9
ATOM      9  C   UNL A   1     -23.884   2.269  26.184  0.00  0.00    +0.029 C 
BRANCH   9  10
ATOM     10  C   UNL A   1     -24.807   1.700  25.738  0.00  0.00    +0.005 A 
ATOM     11  C   UNL A   1     -24.625   0.418  25.089  0.00  0.00    -0.002 A 
ATOM     12  C   UNL A   1     -25.742  -0.336  24.631  0.00  0.00    -0.000 A 
ATOM     13  C   UNL A   1     -27.016   0.277  24.792  0.00  0.00    +0.002 A 
ATOM     14  C   UNL A   1     -27.231   1.462  25.351  0.00  0.00    +0.029 A 
ATOM     15  C   UNL A   1     -26.201   2.159  25.849  0.00  0.00    +0.136 A 
ATOM     16  F   UNL A   1     -26.454   3.134  25.202  0.00  0.00    -0.204 F 
ENDBRANCH   9  10
ENDBRANCH   8   9
ENDBRANCH   1   8
BRANCH   2  17
ATOM     17  C   UNL A   1     -23.766  -0.816  28.997  0.00  0.00    +0.000 C 
BRANCH  17  18
ATOM     18  C   UNL A   1     -24.112  -2.204  29.378  0.00  0.00    +0.000 C 
ATOM     19  C   UNL A   1     -25.014  -1.575  28.230  0.00  0.00    +0.000 C 
ENDBRANCH  17  18
ENDBRANCH   2  17
TORSDOF 5
ENDMDL
ENDMDL
