REMARK  Name = outputs/IAG933/test6/raw/output_2463_IAG933_linker_design_.xyz
REMARK  16 active torsions:
REMARK  status: ('A' for Active; 'I' for Inactive)
REMARK    1  A    between atoms: C_1  and  C_2
REMARK    2  A    between atoms: C_1  and  C_8
REMARK    3  A    between atoms: C_1  and  C_42
REMARK    4  A    between atoms: C_13  and  C_47
REMARK    5  A    between atoms: C_14  and  C_15
REMARK    6  A    between atoms: C_21  and  O_22
REMARK    7  A    between atoms: O_22  and  C_23
REMARK    8  A    between atoms: C_23  and  C_24
REMARK    9  A    between atoms: C_28  and  C_29
REMARK   10  A    between atoms: C_28  and  C_32
REMARK   11  A    between atoms: O_30  and  C_34
REMARK   12  A    between atoms: O_30  and  C_41
REMARK   13  A    between atoms: O_31  and  C_38
REMARK   14  A    between atoms: C_32  and  C_34
REMARK   15  A    between atoms: C_35  and  C_42
REMARK   16  A    between atoms: C_42  and  N_44
REMARK                            x       y       z     vdW  Elec       q    Type
REMARK                         _______ _______ _______ _____ _____    ______ ____
ROOT
ATOM      1  O   UNL A   1     -22.124   1.699  26.886  0.00  0.00    -0.444 OA
ATOM      2  C   UNL A   1     -24.320   0.572  28.277  0.00  0.00    +0.030 C 
ATOM      3  C   UNL A   1     -22.949   0.476  28.724  0.00  0.00    +0.174 C 
ATOM      4  C   UNL A   1     -23.365   1.764  26.443  0.00  0.00    +0.313 C 
ATOM      5  F   UNL A   1     -22.510  -0.269  29.803  0.00  0.00    -0.201 F 
ATOM      6  C   UNL A   1     -21.928   1.059  28.032  0.00  0.00    +0.205 C 
ATOM      7  C   UNL A   1     -24.474   1.320  27.094  0.00  0.00    +0.050 C 
ENDROOT
BRANCH   7   8
ATOM      8  C   UNL A   1     -25.688   1.614  26.461  0.00  0.00    +0.040 C 
ATOM      9  C   UNL A   1     -26.250   2.920  26.395  0.00  0.00    +0.076 C 
ATOM     10  C   UNL A   1     -27.438   3.091  25.645  0.00  0.00    +0.107 C 
ATOM     11  N   UNL A   1     -28.075   2.089  25.003  0.00  0.00    -0.208 NA
ATOM     12  C   UNL A   1     -27.543   0.849  25.079  0.00  0.00    +0.253 C 
ATOM     13  C   UNL A   1     -26.354   0.576  25.777  0.00  0.00    +0.193 C 
ATOM     14  F   UNL A   1     -25.860  -0.681  25.795  0.00  0.00    -0.199 F 
BRANCH   9  15
ATOM     15  C   UNL A   1     -25.642   4.093  27.123  0.00  0.00    +0.266 C 
ATOM     16  N   UNL A   1     -25.614   5.252  26.449  0.00  0.00    -0.200 NA
ATOM     17  C   UNL A   1     -25.026   6.479  26.963  0.00  0.00    +0.139 C 
ATOM     18  O   UNL A   1     -25.143   3.966  28.243  0.00  0.00    -0.268 OA
ENDBRANCH   9  15
BRANCH  12  19
ATOM     19  O   UNL A   1     -28.193  -0.208  24.477  0.00  0.00    -0.456 OA
BRANCH  19  20
ATOM     20  C   UNL A   1     -29.460   0.005  23.866  0.00  0.00    +0.243 C 
BRANCH  20  21
ATOM     21  C   UNL A   1     -30.065  -1.377  23.573  0.00  0.00    +0.229 C 
ATOM     22  O   UNL A   1     -30.729  -1.878  24.721  0.00  0.00    -0.216 OA
ENDBRANCH  20  21
ENDBRANCH  19  20
ENDBRANCH  12  19
ENDBRANCH   7   8
BRANCH   4  23
ATOM     23  O   UNL A   1     -23.617   1.952  25.009  0.00  0.00    -0.314 OA
ATOM     24  C   UNL A   1     -22.370   2.425  24.534  0.00  0.00    +0.178 C 
ENDBRANCH   4  23
BRANCH   2  25
ATOM     25  C   UNL A   1     -25.333  -0.038  28.981  0.00  0.00    +0.128 C 
BRANCH  25  28
ATOM     26  O   UNL A   1     -28.849  -0.568  28.180  0.00  0.00    -0.225 OA
ATOM     27  C   UNL A   1     -28.005  -0.595  28.730  0.00  0.00    +0.421 C 
ATOM     28  N   UNL A   1     -26.731   0.099  28.745  0.00  0.00    -0.166 NA
BRANCH  27  29
ATOM     29  O   UNL A   1     -28.631  -1.718  29.305  0.00  0.00    -0.433 OA
BRANCH  29  30
ATOM     30  C   UNL A   1     -29.704  -1.910  30.284  0.00  0.00    +0.210 C 
BRANCH  30  31
ATOM     31  C   UNL A   1     -30.507  -0.635  30.461  0.00  0.00    +0.050 C 
BRANCH  31  32
ATOM     32  C   UNL A   1     -29.518   0.594  30.651  0.00  0.00    +0.037 C 
ATOM     33  C   UNL A   1     -29.543   0.669  32.199  0.00  0.00    +0.003 C 
BRANCH  32  34
ATOM     34  C   UNL A   1     -28.356   1.578  30.264  0.00  0.00    +0.182 C 
ATOM     35  O   UNL A   1     -28.726   2.838  30.953  0.00  0.00    -0.220 OA
ENDBRANCH  32  34
ENDBRANCH  31  32
ENDBRANCH  30  31
ENDBRANCH  29  30
ENDBRANCH  27  29
ENDBRANCH  25  28
BRANCH  25  36
ATOM     36  C   UNL A   1     -24.855  -1.012  30.143  0.00  0.00    +0.063 C 
BRANCH  36  37
ATOM     37  C   UNL A   1     -24.973  -2.505  29.788  0.00  0.00    -0.019 C 
ATOM     38  C   UNL A   1     -23.906  -3.173  29.146  0.00  0.00    -0.004 C 
ATOM     39  C   UNL A   1     -23.989  -4.549  28.853  0.00  0.00    -0.000 C 
ATOM     40  C   UNL A   1     -25.137  -5.280  29.205  0.00  0.00    -0.000 C 
ATOM     41  C   UNL A   1     -26.232  -4.611  29.784  0.00  0.00    -0.000 C 
ATOM     42  C   UNL A   1     -26.155  -3.232  30.065  0.00  0.00    -0.004 C 
ENDBRANCH  36  37
BRANCH  36  43
ATOM     43  C   UNL A   1     -25.387  -0.679  31.571  0.00  0.00    +0.079 C 
ATOM     44  C   UNL A   1     -25.189   0.773  32.028  0.00  0.00    +0.019 C 
ATOM     45  C   UNL A   1     -25.336   0.684  33.544  0.00  0.00    +0.020 C 
ATOM     46  C   UNL A   1     -24.829  -0.715  33.905  0.00  0.00    +0.089 C 
ATOM     47  N   UNL A   1     -24.758  -1.481  32.646  0.00  0.00    -0.219 NA
ENDBRANCH  36  43
ENDBRANCH  25  36
ENDBRANCH   2  25
TORSDOF 16
