MODEL 2463
MODEL 1
REMARK VINA RESULT:    -7.298      0.000      0.000
REMARK INTER + INTRA:         -12.667
REMARK INTER:                 -10.285
REMARK INTRA:                  -2.382
REMARK UNBOUND:                -2.382
REMARK  Name = No_2463-gen_results/8p0m/2024-11-27-11-27-31/
REMARK  7 active torsions:
REMARK  status: ('A' for Active; 'I' for Inactive)
REMARK    1  A    between atoms: C_9  and  O_11
REMARK    2  A    between atoms: O_11  and  C_12
REMARK    3  A    between atoms: C_12  and  C_14
REMARK    4  A    between atoms: C_21  and  C_24
REMARK    5  A    between atoms: C_28  and  C_30
REMARK    6  A    between atoms: C_30  and  N_31
REMARK    7  A    between atoms: N_31  and  C_32
REMARK                            x       y       z     vdW  Elec       q    Type
REMARK                         _______ _______ _______ _____ _____    ______ ____
ROOT
ATOM      1  C   UNL A   1     -33.932  -8.539   8.834  0.00  0.00    +0.333 C 
ATOM      2  O   UNL A   1     -34.915  -7.963   9.482  0.00  0.00    -0.313 OA
ATOM      3  C   UNL A   1     -34.893  -6.673   9.913  0.00  0.00    +0.175 C 
ATOM      4  C   UNL A   1     -33.842  -6.294  10.620  0.00  0.00    +0.042 A 
ATOM      5  C   UNL A   1     -33.926  -4.885  11.209  0.00  0.00    +0.001 A 
ATOM      6  C   UNL A   1     -33.027  -4.111  11.357  0.00  0.00    -0.000 A 
ATOM      7  C   UNL A   1     -31.811  -4.302  10.745  0.00  0.00    +0.003 A 
ATOM      8  C   UNL A   1     -31.546  -5.594  10.120  0.00  0.00    +0.034 A 
ATOM      9  C   UNL A   1     -32.605  -6.440   9.802  0.00  0.00    +0.140 A 
ATOM     10  O   UNL A   1     -32.664  -7.919   9.250  0.00  0.00    -0.450 OA
ENDROOT
BRANCH   8  11
ATOM     11  C   UNL A   1     -30.274  -5.811   9.327  0.00  0.00    +0.003 A 
ATOM     12  C   UNL A   1     -29.807  -4.942   8.312  0.00  0.00    +0.000 A 
ATOM     13  C   UNL A   1     -28.708  -5.314   7.582  0.00  0.00    -0.000 A 
ATOM     14  C   UNL A   1     -27.893  -6.416   7.926  0.00  0.00    -0.003 A 
ATOM     15  C   UNL A   1     -28.259  -7.101   9.097  0.00  0.00    -0.001 A 
ATOM     16  C   UNL A   1     -29.409  -6.821   9.776  0.00  0.00    -0.003 A 
BRANCH  15  17
ATOM     17  C   UNL A   1     -27.347  -8.220   9.500  0.00  0.00    +0.139 C 
BRANCH  17  18
ATOM     18  N   UNL A   1     -27.839  -9.390   9.515  0.00  0.00    -0.232 NA
BRANCH  18  19
ATOM     19  C   UNL A   1     -27.967 -10.244   8.769  0.00  0.00    +0.076 C 
ATOM     20  C   UNL A   1     -28.347 -11.491   9.248  0.00  0.00    -0.008 C 
ATOM     21  C   UNL A   1     -28.429 -12.681   8.601  0.00  0.00    +0.032 C 
ENDBRANCH  18  19
ENDBRANCH  17  18
ENDBRANCH  15  17
ENDBRANCH   8  11
BRANCH   1  22
ATOM     22  C   UNL A   1     -33.814  -9.973   8.999  0.00  0.00    +0.281 C 
BRANCH  22  23
ATOM     23  O   UNL A   1     -32.551 -10.511   8.908  0.00  0.00    -0.469 OA
BRANCH  23  32
ATOM     24  C   UNL A   1     -30.044 -13.857  12.832  0.00  0.00    +0.030 A 
ATOM     25  C   UNL A   1     -29.879 -14.838  12.484  0.00  0.00    +0.140 A 
ATOM     26  C   UNL A   1     -30.800 -12.951  11.885  0.00  0.00    +0.002 A 
ATOM     27  C   UNL A   1     -31.025 -11.537  12.055  0.00  0.00    +0.003 A 
ATOM     28  C   UNL A   1     -30.431 -15.579  11.342  0.00  0.00    +0.030 A 
ATOM     29  C   UNL A   1     -31.157 -14.824  10.446  0.00  0.00    +0.002 A 
ATOM     30  C   UNL A   1     -31.397 -13.497  10.693  0.00  0.00    +0.003 A 
ATOM     31  C   UNL A   1     -31.433 -10.745  10.978  0.00  0.00    +0.037 A 
ATOM     32  C   UNL A   1     -32.028 -11.352   9.852  0.00  0.00    +0.139 A 
ATOM     33  C   UNL A   1     -31.946 -12.661   9.666  0.00  0.00    +0.037 A 
ATOM     34  F   UNL A   1     -29.206 -15.740  13.388  0.00  0.00    -0.204 F 
ENDBRANCH  23  32
ENDBRANCH  22  23
ENDBRANCH   1  22
TORSDOF 7
ENDMDL
ENDMDL
