MODEL 2465
MODEL 1
REMARK VINA RESULT:    -8.074      0.000      0.000
REMARK INTER + INTRA:         -12.158
REMARK INTER:                 -10.434
REMARK INTRA:                  -1.724
REMARK UNBOUND:                -1.724
REMARK  Name = No_2465-gen_results/8p0m/2024-11-27-11-27-31/
REMARK  5 active torsions:
REMARK  status: ('A' for Active; 'I' for Inactive)
REMARK    1  A    between atoms: C_3  and  C_7
REMARK    2  A    between atoms: C_8  and  C_9
REMARK    3  A    between atoms: C_18  and  C_20
REMARK    4  A    between atoms: C_20  and  C_21
REMARK    5  A    between atoms: C_21  and  C_22
REMARK                            x       y       z     vdW  Elec       q    Type
REMARK                         _______ _______ _______ _____ _____    ______ ____
ROOT
ATOM      1  C   UNL A   1     -25.329   0.660  26.097  0.00  0.00    -0.000 A 
ATOM      2  C   UNL A   1     -25.377  -0.316  25.268  0.00  0.00    -0.000 A 
ATOM      3  C   UNL A   1     -26.311   1.653  26.188  0.00  0.00    -0.000 A 
ATOM      4  C   UNL A   1     -27.406   1.708  25.369  0.00  0.00    -0.004 A 
ATOM      5  C   UNL A   1     -26.638  -0.506  24.478  0.00  0.00    -0.004 A 
ATOM      6  C   UNL A   1     -27.583   0.495  24.571  0.00  0.00    -0.022 A 
ENDROOT
BRANCH   1   8
ATOM      7  C   UNL A   1     -23.870   0.126  27.944  0.00  0.00    +0.000 A 
ATOM      8  C   UNL A   1     -24.136   0.753  26.837  0.00  0.00    -0.000 A 
ATOM      9  C   UNL A   1     -23.069   1.650  26.253  0.00  0.00    -0.000 A 
ATOM     10  C   UNL A   1     -21.931   1.917  27.010  0.00  0.00    +0.000 A 
ATOM     11  C   UNL A   1     -22.594   0.317  28.585  0.00  0.00    +0.000 A 
ATOM     12  C   UNL A   1     -21.645   1.253  28.084  0.00  0.00    +0.000 A 
BRANCH   7  15
ATOM     13  C   UNL A   1     -26.741  -1.548  29.537  0.00  0.00    +0.011 A 
ATOM     14  C   UNL A   1     -26.035  -0.670  29.096  0.00  0.00    +0.001 A 
ATOM     15  C   UNL A   1     -24.790  -0.901  28.514  0.00  0.00    +0.000 A 
ATOM     16  C   UNL A   1     -24.267  -2.253  28.477  0.00  0.00    +0.001 A 
ATOM     17  C   UNL A   1     -25.104  -3.231  29.013  0.00  0.00    +0.011 A 
ATOM     18  C   UNL A   1     -26.266  -2.922  29.556  0.00  0.00    +0.058 A 
ATOM     19 CL   UNL A   1     -27.367  -3.993  30.319  0.00  0.00    -0.082 Cl
ENDBRANCH   7  15
ENDBRANCH   1   8
BRANCH   6  20
ATOM     20  C   UNL A   1     -28.795   0.458  23.721  0.00  0.00    +0.031 C 
BRANCH  20  21
ATOM     21  C   UNL A   1     -29.659   1.494  23.751  0.00  0.00    +0.031 C 
BRANCH  21  22
ATOM     22  C   UNL A   1     -30.732   1.585  22.943  0.00  0.00    -0.022 A 
ATOM     23  C   UNL A   1     -31.643   0.433  22.949  0.00  0.00    -0.004 A 
ATOM     24  C   UNL A   1     -32.771   0.546  22.082  0.00  0.00    -0.000 A 
ATOM     25  C   UNL A   1     -32.988   1.611  21.254  0.00  0.00    -0.000 A 
ATOM     26  C   UNL A   1     -32.112   2.669  21.213  0.00  0.00    -0.000 A 
ATOM     27  C   UNL A   1     -31.019   2.608  22.012  0.00  0.00    -0.004 A 
ENDBRANCH  21  22
ENDBRANCH  20  21
ENDBRANCH   6  20
TORSDOF 5
ENDMDL
ENDMDL
