REMARK  Name = No_2465-gen_results/8p0m/2024-11-27-11-27-31/
REMARK  5 active torsions:
REMARK  status: ('A' for Active; 'I' for Inactive)
REMARK    1  A    between atoms: C_3  and  C_7
REMARK    2  A    between atoms: C_8  and  C_9
REMARK    3  A    between atoms: C_18  and  C_20
REMARK    4  A    between atoms: C_20  and  C_21
REMARK    5  A    between atoms: C_21  and  C_22
REMARK                            x       y       z     vdW  Elec       q    Type
REMARK                         _______ _______ _______ _____ _____    ______ ____
ROOT
ATOM      1  C   UNL A   1     -25.523   1.515  26.827  0.00  0.00    -0.000 A 
ATOM      2  C   UNL A   1     -26.323   2.429  27.237  0.00  0.00    -0.000 A 
ATOM      3  C   UNL A   1     -25.726   0.769  25.661  0.00  0.00    -0.000 A 
ATOM      4  C   UNL A   1     -26.825   0.909  24.858  0.00  0.00    -0.004 A 
ATOM      5  C   UNL A   1     -27.440   2.845  26.326  0.00  0.00    -0.004 A 
ATOM      6  C   UNL A   1     -27.630   2.083  25.191  0.00  0.00    -0.022 A 
ENDROOT
BRANCH   1   8
ATOM      7  C   UNL A   1     -24.544   0.413  28.738  0.00  0.00    +0.000 A 
ATOM      8  C   UNL A   1     -24.473   1.206  27.711  0.00  0.00    -0.000 A 
ATOM      9  C   UNL A   1     -23.141   1.848  27.398  0.00  0.00    -0.000 A 
ATOM     10  C   UNL A   1     -22.103   1.719  28.318  0.00  0.00    +0.000 A 
ATOM     11  C   UNL A   1     -23.375   0.188  29.550  0.00  0.00    +0.000 A 
ATOM     12  C   UNL A   1     -22.159   0.889  29.310  0.00  0.00    +0.000 A 
BRANCH   7  15
ATOM     13  C   UNL A   1     -28.016  -0.814  28.878  0.00  0.00    +0.011 A 
ATOM     14  C   UNL A   1     -27.064  -0.119  28.608  0.00  0.00    +0.001 A 
ATOM     15  C   UNL A   1     -25.765  -0.390  29.036  0.00  0.00    +0.000 A 
ATOM     16  C   UNL A   1     -25.530  -1.530  29.901  0.00  0.00    +0.001 A 
ATOM     17  C   UNL A   1     -26.658  -2.292  30.203  0.00  0.00    +0.011 A 
ATOM     18  C   UNL A   1     -27.855  -1.956  29.763  0.00  0.00    +0.058 A 
ATOM     19 CL   UNL A   1     -29.340  -2.742  30.107  0.00  0.00    -0.082 Cl
ENDBRANCH   7  15
ENDBRANCH   1   8
BRANCH   6  20
ATOM     20  C   UNL A   1     -28.792   2.336  24.309  0.00  0.00    +0.031 C 
BRANCH  20  21
ATOM     21  C   UNL A   1     -30.035   2.047  24.749  0.00  0.00    +0.031 C 
BRANCH  21  22
ATOM     22  C   UNL A   1     -31.141   2.218  24.002  0.00  0.00    -0.022 A 
ATOM     23  C   UNL A   1     -30.933   2.773  22.658  0.00  0.00    -0.004 A 
ATOM     24  C   UNL A   1     -32.118   2.952  21.884  0.00  0.00    -0.000 A 
ATOM     25  C   UNL A   1     -33.375   2.686  22.349  0.00  0.00    -0.000 A 
ATOM     26  C   UNL A   1     -33.576   2.211  23.622  0.00  0.00    -0.000 A 
ATOM     27  C   UNL A   1     -32.483   2.031  24.403  0.00  0.00    -0.004 A 
ENDBRANCH  21  22
ENDBRANCH  20  21
ENDBRANCH   6  20
TORSDOF 5
