MODEL 2466
MODEL 1
REMARK VINA RESULT:    -5.753      0.000      0.000
REMARK INTER + INTRA:          -6.179
REMARK INTER:                  -6.090
REMARK INTRA:                  -0.089
REMARK UNBOUND:                -0.089
REMARK  Name = No_2466-gen_results/8p0m/2024-11-27-11-27-31/
REMARK  1 active torsions:
REMARK  status: ('A' for Active; 'I' for Inactive)
REMARK    1  A    between atoms: C_11  and  C_12
REMARK                            x       y       z     vdW  Elec       q    Type
REMARK                         _______ _______ _______ _____ _____    ______ ____
ROOT
ATOM      1  O   UNL A   1     -21.976  -0.206  30.217  0.00  0.00    -0.268 OA
ATOM      2  C   UNL A   1     -22.802  -0.431  29.326  0.00  0.00    +0.265 C 
ATOM      3  C   UNL A   1     -23.111  -0.067  28.403  0.00  0.00    +0.051 A 
ATOM      4  N   UNL A   1     -23.651  -1.651  29.738  0.00  0.00    -0.201 NA
ATOM      5  C   UNL A   1     -24.273  -0.299  27.477  0.00  0.00    -0.012 A 
ATOM      6  C   UNL A   1     -24.981  -1.491  27.885  0.00  0.00    +0.050 C 
ATOM      7  C   UNL A   1     -24.676  -2.077  29.045  0.00  0.00    +0.120 C 
ATOM      8  C   UNL A   1     -22.397   1.213  27.815  0.00  0.00    +0.004 A 
ATOM      9  C   UNL A   1     -22.880   1.977  26.872  0.00  0.00    +0.000 A 
ATOM     10  C   UNL A   1     -23.974   1.540  26.018  0.00  0.00    +0.004 A 
ATOM     11  C   UNL A   1     -24.733   0.436  26.382  0.00  0.00    +0.068 A 
ENDROOT
BRANCH  11  12
ATOM     12  C   UNL A   1     -25.906   0.114  25.604  0.00  0.00    +0.418 C 
ATOM     13  F   UNL A   1     -26.926   0.071  26.347  0.00  0.00    -0.166 F 
ATOM     14  F   UNL A   1     -26.159   1.213  24.796  0.00  0.00    -0.166 F 
ATOM     15  F   UNL A   1     -25.762  -0.940  24.862  0.00  0.00    -0.166 F 
ENDBRANCH  11  12
TORSDOF 1
ENDMDL
ENDMDL
