REMARK  Name = No_2468-gen_results/8p0m/2024-11-27-11-27-31/
REMARK  2 active torsions:
REMARK  status: ('A' for Active; 'I' for Inactive)
REMARK    1  A    between atoms: C_6  and  C_7
REMARK    2  A    between atoms: C_7  and  C_9
REMARK                            x       y       z     vdW  Elec       q    Type
REMARK                         _______ _______ _______ _____ _____    ______ ____
ROOT
ATOM      1  C   UNL A   1     -28.016  -0.814  28.878  0.00  0.00    +0.001 A 
ATOM      2  C   UNL A   1     -27.064  -0.119  28.608  0.00  0.00    +0.000 A 
ATOM      3  C   UNL A   1     -25.792  -0.430  29.076  0.00  0.00    +0.000 A 
ATOM      4  C   UNL A   1     -25.576  -1.565  29.936  0.00  0.00    +0.000 A 
ATOM      5  C   UNL A   1     -26.735  -2.300  30.217  0.00  0.00    +0.001 A 
ATOM      6  C   UNL A   1     -27.918  -1.954  29.763  0.00  0.00    +0.015 A 
ENDROOT
BRANCH   6   7
ATOM      7  C   UNL A   1     -28.952  -2.878  30.244  0.00  0.00    +0.081 C 
ATOM      8  N   UNL A   1     -28.790  -4.100  30.530  0.00  0.00    -0.153 NA
BRANCH   7   9
ATOM      9  C   UNL A   1     -30.309  -2.353  30.374  0.00  0.00    +0.048 C 
ATOM     10  C   UNL A   1     -31.307  -3.225  30.713  0.00  0.00    +0.007 C 
ENDBRANCH   7   9
ENDBRANCH   6   7
TORSDOF 2
