MODEL 2468
MODEL 1
REMARK VINA RESULT:    -5.208      0.000      0.000
REMARK INTER + INTRA:          -6.020
REMARK INTER:                  -5.817
REMARK INTRA:                  -0.203
REMARK UNBOUND:                -0.203
REMARK  Name = No_2468-gen_results/8p0m/2024-11-27-11-27-31/
REMARK  2 active torsions:
REMARK  status: ('A' for Active; 'I' for Inactive)
REMARK    1  A    between atoms: C_6  and  C_7
REMARK    2  A    between atoms: C_7  and  C_9
REMARK                            x       y       z     vdW  Elec       q    Type
REMARK                         _______ _______ _______ _____ _____    ______ ____
ROOT
ATOM      1  C   UNL A   1     -24.042  -4.200  28.695  0.00  0.00    +0.001 A 
ATOM      2  C   UNL A   1     -24.770  -5.129  28.959  0.00  0.00    +0.000 A 
ATOM      3  C   UNL A   1     -26.017  -4.922  29.538  0.00  0.00    +0.000 A 
ATOM      4  C   UNL A   1     -26.463  -3.597  29.884  0.00  0.00    +0.000 A 
ATOM      5  C   UNL A   1     -25.550  -2.584  29.566  0.00  0.00    +0.001 A 
ATOM      6  C   UNL A   1     -24.375  -2.833  29.034  0.00  0.00    +0.015 A 
ENDROOT
BRANCH   6   7
ATOM      7  C   UNL A   1     -23.614  -1.593  28.844  0.00  0.00    +0.081 C 
ATOM      8  N   UNL A   1     -22.381  -1.427  29.078  0.00  0.00    -0.153 NA
BRANCH   7   9
ATOM      9  C   UNL A   1     -24.351  -0.422  28.373  0.00  0.00    +0.048 C 
ATOM     10  C   UNL A   1     -23.719   0.432  27.512  0.00  0.00    +0.007 C 
ENDBRANCH   7   9
ENDBRANCH   6   7
TORSDOF 2
ENDMDL
ENDMDL
