MODEL 2469
MODEL 1
REMARK VINA RESULT:    -4.570      0.000      0.000
REMARK INTER + INTRA:          -4.570
REMARK INTER:                  -4.570
REMARK INTRA:                   0.000
REMARK UNBOUND:                 0.000
REMARK  Name = No_2469-gen_results/8p0m/2024-11-27-11-27-31/
REMARK  0 active torsions:
REMARK  status: ('A' for Active; 'I' for Inactive)
REMARK                            x       y       z     vdW  Elec       q    Type
REMARK                         _______ _______ _______ _____ _____    ______ ____
ROOT
ATOM      1  C   UNL A   1     -23.980  -4.295  28.594  0.00  0.00    +0.030 A 
ATOM      2  C   UNL A   1     -24.869  -5.066  28.875  0.00  0.00    +0.140 A 
ATOM      3  C   UNL A   1     -26.009  -4.633  29.543  0.00  0.00    +0.030 A 
ATOM      4  C   UNL A   1     -26.147  -3.262  29.962  0.00  0.00    +0.002 A 
ATOM      5  C   UNL A   1     -25.063  -2.445  29.617  0.00  0.00    +0.000 A 
ATOM      6  C   UNL A   1     -23.999  -2.907  28.999  0.00  0.00    +0.002 A 
ATOM      7  F   UNL A   1     -24.840  -6.371  28.602  0.00  0.00    -0.204 F 
ENDROOT
TORSDOF 0
ENDMDL
ENDMDL
