MODEL 246
MODEL 1
REMARK VINA RESULT:    -6.753      0.000      0.000
REMARK INTER + INTRA:          -7.498
REMARK INTER:                  -7.148
REMARK INTRA:                  -0.350
REMARK UNBOUND:                -0.350
REMARK  Name = No_246-gen_results/8p0m/2024-11-27-11-27-31/
REMARK  1 active torsions:
REMARK  status: ('A' for Active; 'I' for Inactive)
REMARK    1  A    between atoms: C_6  and  C_8
REMARK                            x       y       z     vdW  Elec       q    Type
REMARK                         _______ _______ _______ _____ _____    ______ ____
ROOT
ATOM      1  C   UNL A   1     -23.670   0.572  27.515  0.00  0.00    +0.011 A 
ATOM      2  C   UNL A   1     -22.554   0.691  27.966  0.00  0.00    +0.058 A 
ATOM      3  C   UNL A   1     -21.985  -0.193  28.824  0.00  0.00    +0.011 A 
ATOM      4  C   UNL A   1     -22.733  -1.319  29.218  0.00  0.00    +0.001 A 
ATOM      5  C   UNL A   1     -24.455  -0.602  27.799  0.00  0.00    +0.001 A 
ATOM      6  C   UNL A   1     -23.940  -1.506  28.679  0.00  0.00    +0.000 A 
ATOM      7 CL   UNL A   1     -21.531   2.033  27.529  0.00  0.00    -0.082 Cl
ENDROOT
BRANCH   6   8
ATOM      8  C   UNL A   1     -24.763  -2.704  29.026  0.00  0.00    +0.000 A 
ATOM      9  C   UNL A   1     -24.237  -3.826  28.760  0.00  0.00    +0.000 A 
ATOM     10  C   UNL A   1     -24.937  -5.087  29.141  0.00  0.00    +0.000 A 
ATOM     11  C   UNL A   1     -26.199  -4.945  29.682  0.00  0.00    +0.000 A 
ATOM     12  C   UNL A   1     -26.614  -3.903  29.899  0.00  0.00    +0.000 A 
ATOM     13  C   UNL A   1     -25.988  -2.570  29.600  0.00  0.00    +0.000 A 
ENDBRANCH   6   8
TORSDOF 1
ENDMDL
ENDMDL
