MODEL 2470
MODEL 1
REMARK VINA RESULT:    -5.477      0.000      0.000
REMARK INTER + INTRA:          -6.024
REMARK INTER:                  -5.798
REMARK INTRA:                  -0.226
REMARK UNBOUND:                -0.226
REMARK  Name = No_2470-gen_results/8p0m/2024-11-27-11-27-31/
REMARK  1 active torsions:
REMARK  status: ('A' for Active; 'I' for Inactive)
REMARK    1  A    between atoms: C_4  and  C_9
REMARK                            x       y       z     vdW  Elec       q    Type
REMARK                         _______ _______ _______ _____ _____    ______ ____
ROOT
ATOM      1  C   UNL A   1     -23.658  -0.236  31.200  0.00  0.00    +0.030 A 
ATOM      2  C   UNL A   1     -22.825  -0.017  30.593  0.00  0.00    +0.014 A 
ATOM      3  C   UNL A   1     -24.457  -1.361  30.716  0.00  0.00    +0.140 A 
ATOM      4  C   UNL A   1     -24.120  -2.062  29.585  0.00  0.00    +0.028 A 
ATOM      5  C   UNL A   1     -22.235  -0.574  29.376  0.00  0.00    +0.058 A 
ATOM      6  C   UNL A   1     -23.001  -1.664  28.899  0.00  0.00    +0.014 A 
ATOM      7  F   UNL A   1     -25.524  -1.773  31.413  0.00  0.00    -0.204 F 
ATOM      8 CL   UNL A   1     -20.844  -0.062  28.565  0.00  0.00    -0.082 Cl
ENDROOT
BRANCH   4   9
ATOM      9  C   UNL A   1     -24.929  -3.183  29.099  0.00  0.00    -0.002 C 
ATOM     10  C   UNL A   1     -24.804  -4.301  29.218  0.00  0.00    -0.026 C 
ATOM     11  C   UNL A   1     -24.768  -5.380  28.903  0.00  0.00    +0.031 C 
ENDBRANCH   4   9
TORSDOF 1
ENDMDL
ENDMDL
