MODEL 2471
MODEL 1
REMARK VINA RESULT:    -6.504      0.000      0.000
REMARK INTER + INTRA:          -8.180
REMARK INTER:                  -7.645
REMARK INTRA:                  -0.535
REMARK UNBOUND:                -0.535
REMARK  Name = No_2471-gen_results/8p0m/2024-11-27-11-27-31/
REMARK  3 active torsions:
REMARK  status: ('A' for Active; 'I' for Inactive)
REMARK    1  A    between atoms: C_2  and  C_7
REMARK    2  A    between atoms: C_7  and  C_8
REMARK    3  A    between atoms: C_12  and  C_13
REMARK                            x       y       z     vdW  Elec       q    Type
REMARK                         _______ _______ _______ _____ _____    ______ ____
ROOT
ATOM      1  C   UNL A   1     -24.731  -1.141  29.473  0.00  0.00    +0.049 C 
ENDROOT
BRANCH   1   3
ATOM      2  C   UNL A   1     -23.948  -3.263  28.683  0.00  0.00    -0.004 A 
ATOM      3  C   UNL A   1     -24.815  -2.642  29.251  0.00  0.00    -0.018 A 
ATOM      4  C   UNL A   1     -25.943  -3.202  29.756  0.00  0.00    -0.004 A 
ATOM      5  C   UNL A   1     -26.121  -4.592  29.613  0.00  0.00    -0.000 A 
ATOM      6  C   UNL A   1     -24.018  -4.699  28.586  0.00  0.00    -0.000 A 
ATOM      7  C   UNL A   1     -25.144  -5.308  29.052  0.00  0.00    -0.000 A 
ENDBRANCH   1   3
BRANCH   1   8
ATOM      8  C   UNL A   1     -24.532  -0.355  28.212  0.00  0.00    -0.033 C 
ATOM      9  C   UNL A   1     -23.615   0.536  28.121  0.00  0.00    -0.008 C 
ATOM     10  C   UNL A   1     -23.424   1.212  26.910  0.00  0.00    -0.005 C 
ATOM     11  C   UNL A   1     -24.355   0.951  25.924  0.00  0.00    -0.020 C 
ATOM     12  C   UNL A   1     -25.323  -0.402  27.008  0.00  0.00    +0.076 C 
BRANCH  12  13
ATOM     13  C   UNL A   1     -25.426   0.047  25.774  0.00  0.00    +0.202 C 
ATOM     14  F   UNL A   1     -25.151  -0.315  24.719  0.00  0.00    -0.234 F 
ENDBRANCH  12  13
ENDBRANCH   1   8
TORSDOF 3
ENDMDL
ENDMDL
