MODEL 2473
MODEL 1
REMARK VINA RESULT:    -5.519      0.000      0.000
REMARK INTER + INTRA:          -5.519
REMARK INTER:                  -5.519
REMARK INTRA:                   0.000
REMARK UNBOUND:                 0.000
REMARK  Name = No_2473-gen_results/8p0m/2024-11-27-11-27-31/
REMARK  0 active torsions:
REMARK  status: ('A' for Active; 'I' for Inactive)
REMARK                            x       y       z     vdW  Elec       q    Type
REMARK                         _______ _______ _______ _____ _____    ______ ____
ROOT
ATOM      1  C   UNL A   1     -24.030  -4.316  28.764  0.00  0.00    +0.000 A 
ATOM      2  C   UNL A   1     -24.744  -5.062  28.976  0.00  0.00    +0.000 A 
ATOM      3  C   UNL A   1     -24.355  -2.981  29.091  0.00  0.00    +0.000 A 
ATOM      4  C   UNL A   1     -23.424  -1.830  28.959  0.00  0.00    +0.000 A 
ATOM      5  C   UNL A   1     -26.092  -4.978  29.567  0.00  0.00    +0.000 A 
ATOM      6  C   UNL A   1     -26.482  -3.685  29.913  0.00  0.00    +0.000 A 
ATOM      7  C   UNL A   1     -25.609  -2.558  29.764  0.00  0.00    +0.000 A 
ATOM      8  C   UNL A   1     -23.171  -1.184  30.113  0.00  0.00    +0.000 A 
ATOM      9  C   UNL A   1     -24.199  -0.760  30.971  0.00  0.00    +0.000 A 
ATOM     10  C   UNL A   1     -25.422  -1.671  30.856  0.00  0.00    +0.000 A 
ENDROOT
TORSDOF 0
ENDMDL
ENDMDL
