MODEL 2474
MODEL 1
REMARK VINA RESULT:    -4.356      0.000      0.000
REMARK INTER + INTRA:          -4.356
REMARK INTER:                  -4.356
REMARK INTRA:                   0.000
REMARK UNBOUND:                 0.000
REMARK  Name = No_2474-gen_results/8p0m/2024-11-27-11-27-31/
REMARK  0 active torsions:
REMARK  status: ('A' for Active; 'I' for Inactive)
REMARK                            x       y       z     vdW  Elec       q    Type
REMARK                         _______ _______ _______ _____ _____    ______ ____
ROOT
ATOM      1  C   UNL A   1     -24.932  -5.419  29.019  0.00  0.00    +0.000 A 
ATOM      2  C   UNL A   1     -24.195  -4.755  28.663  0.00  0.00    +0.000 A 
ATOM      3  C   UNL A   1     -26.105  -4.742  29.584  0.00  0.00    +0.000 A 
ATOM      4  C   UNL A   1     -26.141  -3.425  29.791  0.00  0.00    +0.000 A 
ATOM      5  C   UNL A   1     -24.006  -3.331  28.788  0.00  0.00    +0.000 A 
ATOM      6  C   UNL A   1     -25.095  -2.723  29.338  0.00  0.00    +0.000 A 
ENDROOT
TORSDOF 0
ENDMDL
ENDMDL
