REMARK  Name = No_2476-gen_results/8p0m/2024-11-27-11-27-31/
REMARK  8 active torsions:
REMARK  status: ('A' for Active; 'I' for Inactive)
REMARK    1  A    between atoms: C_1  and  C_2
REMARK    2  A    between atoms: C_5  and  C_10
REMARK    3  A    between atoms: C_9  and  C_14
REMARK    4  A    between atoms: C_19  and  C_23
REMARK    5  A    between atoms: C_21  and  C_29
REMARK    6  A    between atoms: C_29  and  C_30
REMARK    7  A    between atoms: C_31  and  C_32
REMARK    8  A    between atoms: C_33  and  C_34
REMARK                            x       y       z     vdW  Elec       q    Type
REMARK                         _______ _______ _______ _____ _____    ______ ____
ROOT
ATOM      1  C   UNL A   1     -31.401  -0.882  28.998  0.00  0.00    +0.305 C 
ATOM      2  O   UNL A   1     -31.459  -0.437  27.964  0.00  0.00    -0.265 OA
ATOM      3  N   UNL A   1     -32.453  -1.641  29.526  0.00  0.00    -0.272 N 
ATOM      4  C   UNL A   1     -33.641  -1.905  28.773  0.00  0.00    +0.098 C 
ATOM      5  C   UNL A   1     -34.161  -3.019  28.955  0.00  0.00    +0.042 C 
ATOM      6  C   UNL A   1     -33.925  -3.684  30.059  0.00  0.00    +0.008 C 
ATOM      7  C   UNL A   1     -32.681  -3.577  30.802  0.00  0.00    +0.025 C 
ATOM      8  C   UNL A   1     -32.205  -2.374  30.726  0.00  0.00    +0.094 C 
ENDROOT
BRANCH   5   9
ATOM      9  C   UNL A   1     -35.390  -3.410  28.154  0.00  0.00    -0.021 A 
ATOM     10  C   UNL A   1     -35.405  -4.066  27.263  0.00  0.00    -0.004 A 
ATOM     11  C   UNL A   1     -36.527  -4.411  26.378  0.00  0.00    -0.000 A 
ATOM     12  C   UNL A   1     -36.624  -2.726  28.517  0.00  0.00    -0.004 A 
ATOM     13  C   UNL A   1     -37.773  -2.961  27.809  0.00  0.00    -0.000 A 
ATOM     14  C   UNL A   1     -37.710  -3.807  26.716  0.00  0.00    -0.000 A 
ENDBRANCH   5   9
BRANCH   1  17
ATOM     15  C   UNL A   1     -28.016  -0.814  28.878  0.00  0.00    +0.272 C 
ATOM     16  N   UNL A   1     -29.180  -0.120  29.129  0.00  0.00    -0.133 NA
ATOM     17  C   UNL A   1     -30.209  -0.765  29.743  0.00  0.00    +0.325 C 
ATOM     18  O   UNL A   1     -27.894  -1.826  29.635  0.00  0.00    -0.268 OA
ATOM     19  O   UNL A   1     -30.127  -1.061  30.968  0.00  0.00    -0.263 OA
BRANCH  15  20
ATOM     20  C   UNL A   1     -27.064  -0.119  28.608  0.00  0.00    +0.056 A 
ATOM     21  C   UNL A   1     -25.792  -0.430  29.076  0.00  0.00    +0.005 A 
ATOM     22  C   UNL A   1     -24.546   0.349  28.823  0.00  0.00    +0.008 A 
ATOM     23  C   UNL A   1     -24.659   1.420  27.888  0.00  0.00    +0.098 A 
ATOM     24  C   UNL A   1     -25.947   1.681  27.379  0.00  0.00    +0.008 A 
ATOM     25  C   UNL A   1     -27.044   0.974  27.687  0.00  0.00    +0.005 A 
BRANCH  23  26
ATOM     26  C   UNL A   1     -23.446   2.155  27.609  0.00  0.00    +0.477 C 
ATOM     27  N   UNL A   1     -22.249   1.733  28.088  0.00  0.00    +0.205 NA
ATOM     28  N   UNL A   1     -23.476   3.034  26.594  0.00  0.00    +0.205 NA
ENDBRANCH  23  26
ENDBRANCH  15  20
ENDBRANCH   1  17
BRANCH   7  29
ATOM     29  C   UNL A   1     -32.139  -4.657  31.551  0.00  0.00    +0.028 C 
BRANCH  29  30
ATOM     30  C   UNL A   1     -30.970  -4.546  32.060  0.00  0.00    -0.026 C 
ATOM     31  C   UNL A   1     -30.676  -4.556  33.359  0.00  0.00    -0.005 C 
BRANCH  31  32
ATOM     32  C   UNL A   1     -30.036  -4.115  34.051  0.00  0.00    -0.000 C 
ATOM     33  C   UNL A   1     -29.943  -4.232  35.528  0.00  0.00    -0.000 C 
BRANCH  33  34
ATOM     34  C   UNL A   1     -30.833  -5.087  36.065  0.00  0.00    -0.000 C 
ATOM     35  C   UNL A   1     -31.688  -5.750  35.278  0.00  0.00    -0.000 C 
ENDBRANCH  33  34
ENDBRANCH  31  32
ENDBRANCH  29  30
ENDBRANCH   7  29
TORSDOF 8
