MODEL 2476
MODEL 1
REMARK VINA RESULT:    -7.517      0.000      0.000
REMARK INTER + INTRA:         -13.593
REMARK INTER:                 -11.033
REMARK INTRA:                  -2.560
REMARK UNBOUND:                -2.560
REMARK  Name = No_2476-gen_results/8p0m/2024-11-27-11-27-31/
REMARK  8 active torsions:
REMARK  status: ('A' for Active; 'I' for Inactive)
REMARK    1  A    between atoms: C_1  and  C_2
REMARK    2  A    between atoms: C_5  and  C_10
REMARK    3  A    between atoms: C_9  and  C_14
REMARK    4  A    between atoms: C_19  and  C_23
REMARK    5  A    between atoms: C_21  and  C_29
REMARK    6  A    between atoms: C_29  and  C_30
REMARK    7  A    between atoms: C_31  and  C_32
REMARK    8  A    between atoms: C_33  and  C_34
REMARK                            x       y       z     vdW  Elec       q    Type
REMARK                         _______ _______ _______ _____ _____    ______ ____
ROOT
ATOM      1  C   UNL A   1     -27.282   1.360  30.860  0.00  0.00    +0.305 C 
ATOM      2  O   UNL A   1     -28.304   0.940  30.635  0.00  0.00    -0.265 OA
ATOM      3  N   UNL A   1     -26.143   0.545  30.871  0.00  0.00    -0.272 N 
ATOM      4  C   UNL A   1     -26.218  -0.854  30.579  0.00  0.00    +0.098 C 
ATOM      5  C   UNL A   1     -25.246  -1.331  29.968  0.00  0.00    +0.042 C 
ATOM      6  C   UNL A   1     -24.081  -0.733  30.012  0.00  0.00    +0.008 C 
ATOM      7  C   UNL A   1     -23.930   0.704  30.162  0.00  0.00    +0.025 C 
ATOM      8  C   UNL A   1     -24.869   1.187  30.913  0.00  0.00    +0.094 C 
ENDROOT
BRANCH   5   9
ATOM      9  C   UNL A   1     -25.264  -2.794  29.562  0.00  0.00    -0.021 A 
ATOM     10  C   UNL A   1     -26.049  -3.531  29.819  0.00  0.00    -0.004 A 
ATOM     11  C   UNL A   1     -26.092  -4.977  29.553  0.00  0.00    -0.000 A 
ATOM     12  C   UNL A   1     -24.058  -3.283  28.908  0.00  0.00    -0.004 A 
ATOM     13  C   UNL A   1     -23.951  -4.604  28.563  0.00  0.00    -0.000 A 
ATOM     14  C   UNL A   1     -24.983  -5.459  28.908  0.00  0.00    -0.000 A 
ENDBRANCH   5   9
BRANCH   1  17
ATOM     15  C   UNL A   1     -26.080   4.231  29.523  0.00  0.00    +0.272 C 
ATOM     16  N   UNL A   1     -27.189   3.507  29.903  0.00  0.00    -0.133 NA
ATOM     17  C   UNL A   1     -27.122   2.751  31.033  0.00  0.00    +0.325 C 
ATOM     18  O   UNL A   1     -25.295   4.445  30.497  0.00  0.00    -0.268 OA
ATOM     19  O   UNL A   1     -27.105   3.310  32.166  0.00  0.00    -0.263 OA
BRANCH  15  20
ATOM     20  C   UNL A   1     -26.298   5.089  28.698  0.00  0.00    +0.056 A 
ATOM     21  C   UNL A   1     -27.578   5.293  28.196  0.00  0.00    +0.005 A 
ATOM     22  C   UNL A   1     -27.972   6.305  27.174  0.00  0.00    +0.008 A 
ATOM     23  C   UNL A   1     -26.963   7.243  26.804  0.00  0.00    +0.098 A 
ATOM     24  C   UNL A   1     -25.686   7.054  27.371  0.00  0.00    +0.008 A 
ATOM     25  C   UNL A   1     -25.380   6.088  28.248  0.00  0.00    +0.005 A 
BRANCH  23  26
ATOM     26  C   UNL A   1     -27.349   8.251  25.842  0.00  0.00    +0.477 C 
ATOM     27  N   UNL A   1     -26.502   9.256  25.508  0.00  0.00    +0.205 NA
ATOM     28  N   UNL A   1     -28.391   7.973  25.041  0.00  0.00    +0.205 NA
ENDBRANCH  23  26
ENDBRANCH  15  20
ENDBRANCH   1  17
BRANCH   7  29
ATOM     29  C   UNL A   1     -22.843   1.425  29.596  0.00  0.00    +0.028 C 
BRANCH  29  30
ATOM     30  C   UNL A   1     -22.385   1.078  28.452  0.00  0.00    -0.026 C 
ATOM     31  C   UNL A   1     -22.264   1.866  27.385  0.00  0.00    -0.005 C 
BRANCH  31  32
ATOM     32  C   UNL A   1     -22.355   1.851  26.349  0.00  0.00    -0.000 C 
ATOM     33  C   UNL A   1     -23.305   2.525  25.429  0.00  0.00    -0.000 C 
BRANCH  33  34
ATOM     34  C   UNL A   1     -24.193   3.324  26.050  0.00  0.00    -0.000 C 
ATOM     35  C   UNL A   1     -25.506   3.113  25.903  0.00  0.00    -0.000 C 
ENDBRANCH  33  34
ENDBRANCH  31  32
ENDBRANCH  29  30
ENDBRANCH   7  29
TORSDOF 8
ENDMDL
ENDMDL
