MODEL 2477
MODEL 1
REMARK VINA RESULT:    -5.650      0.000      0.000
REMARK INTER + INTRA:          -6.819
REMARK INTER:                  -6.641
REMARK INTRA:                  -0.179
REMARK UNBOUND:                -0.179
REMARK  Name = No_2477-gen_results/8p0m/2024-11-27-11-27-31/
REMARK  3 active torsions:
REMARK  status: ('A' for Active; 'I' for Inactive)
REMARK    1  A    between atoms: C_1  and  N_9
REMARK    2  A    between atoms: C_6  and  C_7
REMARK    3  A    between atoms: N_9  and  C_10
REMARK                            x       y       z     vdW  Elec       q    Type
REMARK                         _______ _______ _______ _____ _____    ______ ____
ROOT
ATOM      1  C   UNL A   1     -23.637  -1.315  29.545  0.00  0.00    +0.087 C 
ATOM      2  C   UNL A   1     -22.970  -0.523  28.919  0.00  0.00    -0.026 C 
ATOM      3  C   UNL A   1     -21.588  -0.451  28.942  0.00  0.00    +0.023 C 
ATOM      4  C   UNL A   1     -20.772   0.532  28.271  0.00  0.00    +0.005 C 
ATOM      5  C   UNL A   1     -21.413   1.531  27.501  0.00  0.00    +0.012 C 
ATOM      6  C   UNL A   1     -22.830   1.512  27.432  0.00  0.00    +0.107 C 
ATOM      7  C   UNL A   1     -23.546   0.584  28.145  0.00  0.00    +0.035 C 
ENDROOT
BRANCH   6   8
ATOM      8  C   UNL A   1     -23.484   2.574  26.702  0.00  0.00    +0.365 C 
ATOM      9  O   UNL A   1     -23.374   2.782  25.571  0.00  0.00    -0.246 OA
ATOM     10  O   UNL A   1     -24.128   3.519  27.517  0.00  0.00    -0.246 OA
ENDBRANCH   6   8
BRANCH   1  11
ATOM     11  N   UNL A   1     -23.408  -2.655  29.192  0.00  0.00    -0.162 NA
BRANCH  11  12
ATOM     12  C   UNL A   1     -24.426  -3.455  28.849  0.00  0.00    +0.036 C 
ATOM     13  C   UNL A   1     -24.086  -4.800  28.472  0.00  0.00    +0.009 C 
ENDBRANCH  11  12
ENDBRANCH   1  11
TORSDOF 3
ENDMDL
ENDMDL
