REMARK  Name = No_2478-gen_results/8p0m/2024-11-27-11-27-31/
REMARK  1 active torsions:
REMARK  status: ('A' for Active; 'I' for Inactive)
REMARK    1  A    between atoms: C_2  and  C_8
REMARK                            x       y       z     vdW  Elec       q    Type
REMARK                         _______ _______ _______ _____ _____    ______ ____
ROOT
ATOM      1  C   UNL A   1     -30.099  -0.836  29.851  0.00  0.00    +0.249 C 
ATOM      2  N   UNL A   1     -30.700  -1.803  30.243  0.00  0.00    -0.276 N 
ATOM      3  C   UNL A   1     -30.192  -2.794  30.783  0.00  0.00    +0.094 C 
ATOM      4  C   UNL A   1     -31.100  -4.009  30.979  0.00  0.00    +0.022 C 
ATOM      5  C   UNL A   1     -32.098  -1.911  29.965  0.00  0.00    +0.094 C 
ATOM      6  O   UNL A   1     -30.525   0.243  29.390  0.00  0.00    -0.270 OA
ATOM      7  C   UNL A   1     -32.812  -3.058  30.115  0.00  0.00    +0.022 C 
ATOM      8  C   UNL A   1     -32.326  -4.074  30.756  0.00  0.00    +0.004 C 
ENDROOT
BRANCH   1  10
ATOM      9  C   UNL A   1     -28.016  -0.814  28.878  0.00  0.00    +0.005 A 
ATOM     10  C   UNL A   1     -28.469  -0.785  29.829  0.00  0.00    +0.054 A 
ATOM     11  C   UNL A   1     -26.504  -0.778  28.877  0.00  0.00    +0.011 A 
ATOM     12  C   UNL A   1     -25.810  -0.853  30.103  0.00  0.00    +0.058 A 
ATOM     13  C   UNL A   1     -27.991  -0.892  31.226  0.00  0.00    +0.005 A 
ATOM     14  C   UNL A   1     -26.604  -0.868  31.265  0.00  0.00    +0.011 A 
ATOM     15 CL   UNL A   1     -24.165  -0.791  30.172  0.00  0.00    -0.082 Cl
ENDBRANCH   1  10
TORSDOF 1
