REMARK  Name = No_2479-gen_results/8p0m/2024-11-27-11-27-31/
REMARK  6 active torsions:
REMARK  status: ('A' for Active; 'I' for Inactive)
REMARK    1  A    between atoms: C_2  and  C_7
REMARK    2  A    between atoms: C_3  and  O_19
REMARK    3  A    between atoms: C_4  and  C_11
REMARK    4  A    between atoms: O_19  and  C_20
REMARK    5  A    between atoms: C_20  and  C_22
REMARK    6  A    between atoms: C_22  and  C_23
REMARK                            x       y       z     vdW  Elec       q    Type
REMARK                         _______ _______ _______ _____ _____    ______ ____
ROOT
ATOM      1  C   UNL A   1     -28.016  -0.814  28.878  0.00  0.00    +0.041 A 
ATOM      2  C   UNL A   1     -28.469  -0.785  29.829  0.00  0.00    +0.074 A 
ATOM      3  C   UNL A   1     -26.546  -0.876  28.850  0.00  0.00    +0.138 A 
ATOM      4  C   UNL A   1     -25.897  -0.827  29.889  0.00  0.00    +0.036 A 
ATOM      5  C   UNL A   1     -27.913  -0.839  31.194  0.00  0.00    +0.004 A 
ATOM      6  C   UNL A   1     -26.552  -0.832  31.177  0.00  0.00    +0.003 A 
ENDROOT
BRANCH   4   7
ATOM      7  C   UNL A   1     -24.377  -0.830  29.952  0.00  0.00    +0.030 A 
ATOM      8  C   UNL A   1     -23.812   0.503  30.011  0.00  0.00    +0.003 A 
ATOM      9  C   UNL A   1     -22.561   0.689  29.346  0.00  0.00    +0.007 A 
ATOM     10  C   UNL A   1     -21.809  -0.458  29.002  0.00  0.00    +0.037 A 
ATOM     11  C   UNL A   1     -22.393  -1.691  28.975  0.00  0.00    +0.036 A 
ATOM     12  C   UNL A   1     -23.709  -1.859  29.364  0.00  0.00    +0.141 A 
ATOM     13  F   UNL A   1     -24.194  -3.030  29.255  0.00  0.00    -0.204 F 
ATOM     14 BR   UNL A   1     -20.049  -0.128  28.476  0.00  0.00    -0.049 Br
ENDBRANCH   4   7
BRANCH   2  15
ATOM     15  C   UNL A   1     -30.066  -0.797  29.941  0.00  0.00    +0.419 C 
ATOM     16  F   UNL A   1     -30.508   0.029  30.880  0.00  0.00    -0.166 F 
ATOM     17  F   UNL A   1     -30.476  -2.048  30.183  0.00  0.00    -0.166 F 
ATOM     18  F   UNL A   1     -30.712  -0.317  28.916  0.00  0.00    -0.166 F 
ENDBRANCH   2  15
BRANCH   3  19
ATOM     19  O   UNL A   1     -25.943  -0.804  27.599  0.00  0.00    -0.479 OA
BRANCH  19  20
ATOM     20  C   UNL A   1     -26.324   0.074  26.628  0.00  0.00    +0.170 C 
ATOM     21  C   UNL A   1     -25.618  -0.094  25.423  0.00  0.00    +0.048 C 
BRANCH  20  22
ATOM     22  C   UNL A   1     -27.203   1.071  26.726  0.00  0.00    +0.070 C 
BRANCH  22  23
ATOM     23  C   UNL A   1     -27.407   1.840  27.765  0.00  0.00    -0.019 A 
ATOM     24  C   UNL A   1     -26.443   2.352  28.703  0.00  0.00    -0.004 A 
ATOM     25  C   UNL A   1     -26.706   3.268  29.767  0.00  0.00    -0.000 A 
ATOM     26  C   UNL A   1     -28.069   3.466  30.073  0.00  0.00    -0.000 A 
ATOM     27  C   UNL A   1     -29.089   2.989  29.244  0.00  0.00    -0.000 A 
ATOM     28  C   UNL A   1     -28.775   2.191  28.168  0.00  0.00    -0.004 A 
ENDBRANCH  22  23
ENDBRANCH  20  22
ENDBRANCH  19  20
ENDBRANCH   3  19
TORSDOF 6
