MODEL 2479
MODEL 1
REMARK VINA RESULT:    -7.485      0.000      0.000
REMARK INTER + INTRA:         -12.809
REMARK INTER:                 -10.111
REMARK INTRA:                  -2.698
REMARK UNBOUND:                -2.698
REMARK  Name = No_2479-gen_results/8p0m/2024-11-27-11-27-31/
REMARK  6 active torsions:
REMARK  status: ('A' for Active; 'I' for Inactive)
REMARK    1  A    between atoms: C_2  and  C_7
REMARK    2  A    between atoms: C_3  and  O_19
REMARK    3  A    between atoms: C_4  and  C_11
REMARK    4  A    between atoms: O_19  and  C_20
REMARK    5  A    between atoms: C_20  and  C_22
REMARK    6  A    between atoms: C_22  and  C_23
REMARK                            x       y       z     vdW  Elec       q    Type
REMARK                         _______ _______ _______ _____ _____    ______ ____
ROOT
ATOM      1  C   UNL A   1     -23.799  -2.795  29.662  0.00  0.00    +0.041 A 
ATOM      2  C   UNL A   1     -24.711  -3.317  29.586  0.00  0.00    +0.074 A 
ATOM      3  C   UNL A   1     -23.828  -1.520  30.397  0.00  0.00    +0.138 A 
ATOM      4  C   UNL A   1     -24.882  -1.073  30.833  0.00  0.00    +0.036 A 
ATOM      5  C   UNL A   1     -26.057  -3.044  30.124  0.00  0.00    +0.004 A 
ATOM      6  C   UNL A   1     -26.106  -1.836  30.750  0.00  0.00    +0.003 A 
ENDROOT
BRANCH   4   7
ATOM      7  C   UNL A   1     -25.015   0.260  31.556  0.00  0.00    +0.030 A 
ATOM      8  C   UNL A   1     -24.928   0.131  32.997  0.00  0.00    +0.003 A 
ATOM      9  C   UNL A   1     -25.732   1.032  33.761  0.00  0.00    +0.007 A 
ATOM     10  C   UNL A   1     -26.256   2.175  33.114  0.00  0.00    +0.037 A 
ATOM     11  C   UNL A   1     -26.301   2.245  31.752  0.00  0.00    +0.036 A 
ATOM     12  C   UNL A   1     -25.760   1.238  30.974  0.00  0.00    +0.141 A 
ATOM     13  F   UNL A   1     -25.895   1.352  29.714  0.00  0.00    -0.204 F 
ATOM     14 BR   UNL A   1     -26.976   3.471  34.247  0.00  0.00    -0.049 Br
ENDBRANCH   4   7
BRANCH   2  15
ATOM     15  C   UNL A   1     -24.742  -4.748  28.871  0.00  0.00    +0.419 C 
ATOM     16  F   UNL A   1     -24.383  -5.726  29.692  0.00  0.00    -0.166 F 
ATOM     17  F   UNL A   1     -23.941  -4.716  27.798  0.00  0.00    -0.166 F 
ATOM     18  F   UNL A   1     -25.919  -5.185  28.523  0.00  0.00    -0.166 F 
ENDBRANCH   2  15
BRANCH   3  19
ATOM     19  O   UNL A   1     -22.652  -0.778  30.404  0.00  0.00    -0.479 OA
BRANCH  19  20
ATOM     20  C   UNL A   1     -22.188  -0.090  29.322  0.00  0.00    +0.170 C 
ATOM     21  C   UNL A   1     -20.908  -0.505  28.910  0.00  0.00    +0.048 C 
BRANCH  20  22
ATOM     22  C   UNL A   1     -22.768   0.932  28.692  0.00  0.00    +0.070 C 
BRANCH  22  23
ATOM     23  C   UNL A   1     -23.453   0.883  27.579  0.00  0.00    -0.019 A 
ATOM     24  C   UNL A   1     -24.504  -0.029  27.213  0.00  0.00    -0.004 A 
ATOM     25  C   UNL A   1     -25.287   0.021  26.020  0.00  0.00    -0.000 A 
ATOM     26  C   UNL A   1     -24.798   0.876  25.010  0.00  0.00    -0.000 A 
ATOM     27  C   UNL A   1     -23.762   1.784  25.248  0.00  0.00    -0.000 A 
ATOM     28  C   UNL A   1     -23.104   1.764  26.456  0.00  0.00    -0.004 A 
ENDBRANCH  22  23
ENDBRANCH  20  22
ENDBRANCH  19  20
ENDBRANCH   3  19
TORSDOF 6
ENDMDL
ENDMDL
