MODEL 2480
MODEL 1
REMARK VINA RESULT:    -8.699      0.000      0.000
REMARK INTER + INTRA:         -14.679
REMARK INTER:                 -13.276
REMARK INTRA:                  -1.404
REMARK UNBOUND:                -1.404
REMARK  Name = No_2480-gen_results/8p0m/2024-11-27-11-27-31/
REMARK  9 active torsions:
REMARK  status: ('A' for Active; 'I' for Inactive)
REMARK    1  A    between atoms: C_3  and  C_8
REMARK    2  A    between atoms: C_5  and  O_7
REMARK    3  A    between atoms: O_7  and  C_17
REMARK    4  A    between atoms: C_9  and  C_12
REMARK    5  A    between atoms: C_12  and  O_16
REMARK    6  A    between atoms: O_16  and  C_18
REMARK    7  A    between atoms: C_17  and  C_25
REMARK    8  A    between atoms: C_18  and  C_19
REMARK    9  A    between atoms: C_18  and  C_30
REMARK                            x       y       z     vdW  Elec       q    Type
REMARK                         _______ _______ _______ _____ _____    ______ ____
ROOT
ATOM      1  C   UNL A   1     -24.530   1.410  26.651  0.00  0.00    +0.008 A 
ATOM      2  C   UNL A   1     -24.395   1.291  27.722  0.00  0.00    +0.076 A 
ATOM      3  C   UNL A   1     -23.320   1.828  25.892  0.00  0.00    +0.000 A 
ATOM      4  C   UNL A   1     -22.106   1.907  26.588  0.00  0.00    +0.000 A 
ATOM      5  C   UNL A   1     -22.028   1.624  27.923  0.00  0.00    +0.000 A 
ATOM      6  C   UNL A   1     -23.173   1.233  28.549  0.00  0.00    +0.006 A 
ENDROOT
BRANCH   1   9
ATOM      7  C   UNL A   1     -26.958  -0.136  24.420  0.00  0.00    +0.067 A 
ATOM      8  C   UNL A   1     -26.049   0.091  25.185  0.00  0.00    +0.143 A 
ATOM      9  C   UNL A   1     -25.754   1.219  25.764  0.00  0.00    +0.028 A 
ATOM     10  C   UNL A   1     -26.571   2.355  25.477  0.00  0.00    +0.005 A 
ATOM     11  C   UNL A   1     -27.899   0.940  24.171  0.00  0.00    +0.146 A 
ATOM     12  C   UNL A   1     -27.660   2.135  24.710  0.00  0.00    +0.037 A 
ATOM     13  F   UNL A   1     -25.217  -0.976  25.434  0.00  0.00    -0.204 F 
BRANCH  11  14
ATOM     14  O   UNL A   1     -28.973   0.634  23.387  0.00  0.00    -0.424 OA
BRANCH  14  15
ATOM     15  C   UNL A   1     -30.017  -0.029  23.942  0.00  0.00    +0.500 C 
ATOM     16  F   UNL A   1     -29.794   0.086  25.368  0.00  0.00    -0.156 F 
ATOM     17  F   UNL A   1     -31.217   0.592  23.743  0.00  0.00    -0.156 F 
BRANCH  15  18
ATOM     18  C   UNL A   1     -30.128  -1.414  23.589  0.00  0.00    +0.497 C 
ATOM     19  F   UNL A   1     -29.210  -1.931  22.953  0.00  0.00    -0.162 F 
ATOM     20  F   UNL A   1     -30.323  -1.944  24.821  0.00  0.00    -0.162 F 
ATOM     21  F   UNL A   1     -31.308  -1.553  22.940  0.00  0.00    -0.162 F 
ENDBRANCH  15  18
ENDBRANCH  14  15
ENDBRANCH  11  14
ENDBRANCH   1   9
BRANCH   2  22
ATOM     22  C   UNL A   1     -25.645   0.780  28.550  0.00  0.00    +0.342 C 
ATOM     23  O   UNL A   1     -26.572   1.462  28.706  0.00  0.00    -0.245 OA
BRANCH  22  24
ATOM     24  O   UNL A   1     -25.717  -0.541  28.746  0.00  0.00    -0.436 OA
BRANCH  24  25
ATOM     25  C   UNL A   1     -24.703  -1.183  29.358  0.00  0.00    +0.285 C 
BRANCH  25  26
ATOM     26  C   UNL A   1     -24.593  -2.547  29.163  0.00  0.00    +0.026 A 
ATOM     27  C   UNL A   1     -23.906  -3.220  28.772  0.00  0.00    -0.001 A 
ATOM     28  C   UNL A   1     -23.981  -4.697  28.580  0.00  0.00    -0.000 A 
ATOM     29  C   UNL A   1     -25.187  -5.213  29.042  0.00  0.00    -0.000 A 
ATOM     30  C   UNL A   1     -26.204  -4.471  29.541  0.00  0.00    -0.000 A 
ATOM     31  C   UNL A   1     -26.018  -3.119  29.620  0.00  0.00    -0.001 A 
ENDBRANCH  25  26
BRANCH  25  32
ATOM     32  C   UNL A   1     -24.995  -0.825  30.881  0.00  0.00    +0.438 C 
ATOM     33  F   UNL A   1     -26.046  -0.934  31.277  0.00  0.00    -0.166 F 
ATOM     34  F   UNL A   1     -24.248  -1.858  31.672  0.00  0.00    -0.166 F 
ATOM     35  F   UNL A   1     -24.317   0.254  31.269  0.00  0.00    -0.166 F 
ENDBRANCH  25  32
ENDBRANCH  24  25
ENDBRANCH  22  24
ENDBRANCH   2  22
TORSDOF 9
ENDMDL
ENDMDL
