REMARK  Name = outputs/IAG933/test6/raw/output_2481_IAG933_linker_design_.xyz
REMARK  12 active torsions:
REMARK  status: ('A' for Active; 'I' for Inactive)
REMARK    1  A    between atoms: C_1  and  C_2
REMARK    2  A    between atoms: C_1  and  C_8
REMARK    3  A    between atoms: C_1  and  C_35
REMARK    4  A    between atoms: C_13  and  C_32
REMARK    5  A    between atoms: C_14  and  C_15
REMARK    6  A    between atoms: C_21  and  O_22
REMARK    7  A    between atoms: O_22  and  C_23
REMARK    8  A    between atoms: C_23  and  C_24
REMARK    9  A    between atoms: C_34  and  N_43
REMARK   10  A    between atoms: C_39  and  N_43
REMARK   11  A    between atoms: C_40  and  C_42
REMARK   12  A    between atoms: C_41  and  N_43
REMARK                            x       y       z     vdW  Elec       q    Type
REMARK                         _______ _______ _______ _____ _____    ______ ____
ROOT
ATOM      1  C   UNL A   1     -23.028   0.148  28.727  0.00  0.00    +0.129 A 
ATOM      2  N   UNL A   1     -22.970   1.078  27.703  0.00  0.00    -0.289 N 
ATOM      3  C   UNL A   1     -24.391   1.415  27.322  0.00  0.00    +0.073 A 
ATOM      4  N   UNL A   1     -21.857  -0.324  29.234  0.00  0.00    -0.191 NA
ATOM      5  C   UNL A   1     -24.298  -0.080  29.240  0.00  0.00    +0.024 A 
ATOM      6  C   UNL A   1     -20.528  -0.145  28.571  0.00  0.00    +0.261 C 
ATOM      7  O   UNL A   1     -20.425   1.242  28.244  0.00  0.00    -0.310 OA
ATOM      8  C   UNL A   1     -25.262   0.739  28.433  0.00  0.00    +0.058 A 
ATOM      9  C   UNL A   1     -21.601   1.747  27.497  0.00  0.00    +0.258 C 
ENDROOT
BRANCH   3  10
ATOM     10  C   UNL A   1     -25.688   1.614  26.461  0.00  0.00    +0.054 C 
ATOM     11  C   UNL A   1     -26.250   2.920  26.395  0.00  0.00    +0.078 C 
ATOM     12  C   UNL A   1     -27.438   3.091  25.645  0.00  0.00    +0.107 C 
ATOM     13  N   UNL A   1     -28.075   2.089  25.003  0.00  0.00    -0.208 NA
ATOM     14  C   UNL A   1     -27.543   0.849  25.079  0.00  0.00    +0.253 C 
ATOM     15  C   UNL A   1     -26.354   0.576  25.777  0.00  0.00    +0.195 C 
ATOM     16  F   UNL A   1     -25.860  -0.681  25.795  0.00  0.00    -0.199 F 
BRANCH  11  17
ATOM     17  C   UNL A   1     -25.642   4.093  27.123  0.00  0.00    +0.267 C 
ATOM     18  N   UNL A   1     -25.614   5.252  26.449  0.00  0.00    -0.200 NA
ATOM     19  C   UNL A   1     -25.026   6.479  26.963  0.00  0.00    +0.139 C 
ATOM     20  O   UNL A   1     -25.143   3.966  28.243  0.00  0.00    -0.268 OA
ENDBRANCH  11  17
BRANCH  14  21
ATOM     21  O   UNL A   1     -28.193  -0.208  24.477  0.00  0.00    -0.456 OA
BRANCH  21  22
ATOM     22  C   UNL A   1     -29.460   0.005  23.866  0.00  0.00    +0.243 C 
BRANCH  22  23
ATOM     23  C   UNL A   1     -30.065  -1.377  23.573  0.00  0.00    +0.229 C 
ATOM     24  O   UNL A   1     -30.729  -1.878  24.721  0.00  0.00    -0.216 OA
ENDBRANCH  22  23
ENDBRANCH  21  22
ENDBRANCH  14  21
ENDBRANCH   3  10
BRANCH   8  26
ATOM     25  C   UNL A   1     -27.690  -0.579  28.663  0.00  0.00    +0.008 C 
ATOM     26  C   UNL A   1     -26.627   0.023  28.434  0.00  0.00    -0.043 C 
BRANCH  25  27
ATOM     27  N   UNL A   1     -28.940  -0.820  29.062  0.00  0.00    -0.227 N 
BRANCH  27  30
ATOM     28 CL   UNL A   1     -29.385   1.394  30.613  0.00  0.00    -0.092 Cl
ATOM     29  C   UNL A   1     -30.410   0.462  27.803  0.00  0.00    +0.040 C 
ATOM     30  C   UNL A   1     -29.601   0.436  29.119  0.00  0.00    +0.163 C 
ENDBRANCH  27  30
BRANCH  27  31
ATOM     31  C   UNL A   1     -29.373  -1.301  30.292  0.00  0.00    +0.286 C 
ATOM     32  O   UNL A   1     -30.808  -1.347  30.377  0.00  0.00    -0.195 OA
ENDBRANCH  27  31
ENDBRANCH  25  27
ENDBRANCH   8  26
BRANCH   5  33
ATOM     33  C   UNL A   1     -24.855  -1.012  30.143  0.00  0.00    +0.064 C 
BRANCH  33  34
ATOM     34  C   UNL A   1     -24.973  -2.505  29.788  0.00  0.00    -0.017 C 
ATOM     35  C   UNL A   1     -23.906  -3.173  29.146  0.00  0.00    -0.004 C 
ATOM     36  C   UNL A   1     -23.989  -4.549  28.853  0.00  0.00    -0.000 C 
ATOM     37  C   UNL A   1     -25.137  -5.280  29.205  0.00  0.00    -0.000 C 
ATOM     38  C   UNL A   1     -26.232  -4.611  29.784  0.00  0.00    -0.000 C 
ATOM     39  C   UNL A   1     -26.155  -3.232  30.065  0.00  0.00    -0.004 C 
ENDBRANCH  33  34
BRANCH  33  40
ATOM     40  C   UNL A   1     -25.387  -0.679  31.571  0.00  0.00    +0.081 C 
ATOM     41  C   UNL A   1     -25.189   0.773  32.028  0.00  0.00    +0.019 C 
ATOM     42  C   UNL A   1     -25.336   0.684  33.544  0.00  0.00    +0.020 C 
ATOM     43  C   UNL A   1     -24.829  -0.715  33.905  0.00  0.00    +0.089 C 
ATOM     44  N   UNL A   1     -24.758  -1.481  32.646  0.00  0.00    -0.219 NA
ENDBRANCH  33  40
ENDBRANCH   5  33
TORSDOF 12
