MODEL 2481
MODEL 1
REMARK VINA RESULT:    -5.076      0.000      0.000
REMARK INTER + INTRA:          -5.412
REMARK INTER:                  -5.372
REMARK INTRA:                  -0.039
REMARK UNBOUND:                -0.039
REMARK  Name = No_2481-gen_results/8p0m/2024-11-27-11-27-31/
REMARK  1 active torsions:
REMARK  status: ('A' for Active; 'I' for Inactive)
REMARK    1  A    between atoms: C_2  and  C_7
REMARK                            x       y       z     vdW  Elec       q    Type
REMARK                         _______ _______ _______ _____ _____    ______ ____
ROOT
ATOM      1  C   UNL A   1     -27.911 -12.046  31.474  0.00  0.00    +0.007 A 
ATOM      2  C   UNL A   1     -28.070 -11.527  32.378  0.00  0.00    +0.080 A 
ATOM      3  C   UNL A   1     -28.725 -11.628  30.322  0.00  0.00    +0.000 A 
ATOM      4  C   UNL A   1     -29.587 -10.764  30.444  0.00  0.00    +0.000 A 
ATOM      5  C   UNL A   1     -28.946 -10.394  32.729  0.00  0.00    +0.007 A 
ATOM      6  C   UNL A   1     -29.747 -10.043  31.686  0.00  0.00    +0.000 A 
ENDROOT
BRANCH   2   7
ATOM      7  C   UNL A   1     -27.164 -11.878  33.657  0.00  0.00    +0.388 C 
ATOM      8  O   UNL A   1     -26.721 -12.819  33.806  0.00  0.00    -0.241 OA
ATOM      9  O   UNL A   1     -27.078 -10.895  34.550  0.00  0.00    -0.241 OA
ENDBRANCH   2   7
TORSDOF 1
ENDMDL
ENDMDL
