MODEL 2482
MODEL 1
REMARK VINA RESULT:    -6.622      0.000      0.000
REMARK INTER + INTRA:         -12.135
REMARK INTER:                  -8.945
REMARK INTRA:                  -3.190
REMARK UNBOUND:                -3.190
REMARK  Name = No_2482-gen_results/8p0m/2024-11-27-11-27-31/
REMARK  6 active torsions:
REMARK  status: ('A' for Active; 'I' for Inactive)
REMARK    1  A    between atoms: C_2  and  C_3
REMARK    2  A    between atoms: C_2  and  C_9
REMARK    3  A    between atoms: C_10  and  O_17
REMARK    4  A    between atoms: O_17  and  C_18
REMARK    5  A    between atoms: C_18  and  C_19
REMARK    6  A    between atoms: C_19  and  C_20
REMARK                            x       y       z     vdW  Elec       q    Type
REMARK                         _______ _______ _______ _____ _____    ______ ____
ROOT
ATOM      1  C   UNL A   1     -24.661  -2.375  29.517  0.00  0.00    +0.028 A 
ATOM      2  C   UNL A   1     -25.731  -2.551  29.943  0.00  0.00    +0.163 A 
ATOM      3  C   UNL A   1     -26.342  -3.920  29.864  0.00  0.00    +0.173 A 
ATOM      4  C   UNL A   1     -25.610  -4.926  29.244  0.00  0.00    +0.033 A 
ATOM      5  C   UNL A   1     -24.365  -4.649  28.758  0.00  0.00    +0.002 A 
ATOM      6  C   UNL A   1     -23.789  -3.379  28.900  0.00  0.00    +0.000 A 
ATOM      7  F   UNL A   1     -27.544  -4.225  30.320  0.00  0.00    -0.201 F 
ENDROOT
BRANCH   1   9
ATOM      8 BR   UNL A   1     -23.353  -0.757  31.193  0.00  0.00    -0.072 Br
ATOM      9  C   UNL A   1     -23.953  -1.054  29.680  0.00  0.00    +0.104 C 
BRANCH   9  10
ATOM     10  C   UNL A   1     -23.807  -0.339  28.624  0.00  0.00    -0.007 A 
ATOM     11  C   UNL A   1     -22.929   0.770  28.492  0.00  0.00    -0.003 A 
ATOM     12  C   UNL A   1     -22.773   1.654  27.361  0.00  0.00    +0.001 A 
ATOM     13  C   UNL A   1     -23.710   1.408  26.344  0.00  0.00    +0.011 A 
ATOM     14  C   UNL A   1     -24.613   0.372  26.334  0.00  0.00    +0.057 A 
ATOM     15  C   UNL A   1     -24.652  -0.407  27.491  0.00  0.00    +0.008 A 
ATOM     16 CL   UNL A   1     -25.674   0.153  25.031  0.00  0.00    -0.082 Cl
ENDBRANCH   9  10
ENDBRANCH   1   9
BRANCH   2  17
ATOM     17  O   UNL A   1     -26.732  -1.786  30.546  0.00  0.00    -0.473 OA
BRANCH  17  18
ATOM     18  C   UNL A   1     -27.555  -0.926  29.898  0.00  0.00    +0.210 C 
BRANCH  18  19
ATOM     19  C   UNL A   1     -27.336   0.419  30.439  0.00  0.00    +0.074 C 
BRANCH  19  20
ATOM     20  C   UNL A   1     -26.856   1.369  29.777  0.00  0.00    -0.018 A 
ATOM     21  C   UNL A   1     -26.117   2.095  29.938  0.00  0.00    -0.004 A 
ATOM     22  C   UNL A   1     -25.766   3.255  29.102  0.00  0.00    -0.000 A 
ATOM     23  C   UNL A   1     -26.383   3.382  27.867  0.00  0.00    -0.000 A 
ATOM     24  C   UNL A   1     -27.360   2.453  27.549  0.00  0.00    -0.000 A 
ATOM     25  C   UNL A   1     -27.597   1.512  28.448  0.00  0.00    -0.004 A 
ENDBRANCH  19  20
ENDBRANCH  18  19
ENDBRANCH  17  18
ENDBRANCH   2  17
TORSDOF 6
ENDMDL
ENDMDL
