MODEL 2484
MODEL 1
REMARK VINA RESULT:    -6.855      0.000      0.000
REMARK INTER + INTRA:         -11.222
REMARK INTER:                  -8.458
REMARK INTRA:                  -2.765
REMARK UNBOUND:                -2.765
REMARK  Name = No_2484-gen_results/8p0m/2024-11-27-11-27-31/
REMARK  4 active torsions:
REMARK  status: ('A' for Active; 'I' for Inactive)
REMARK    1  A    between atoms: C_4  and  O_16
REMARK    2  A    between atoms: O_16  and  C_17
REMARK    3  A    between atoms: C_17  and  C_18
REMARK    4  A    between atoms: C_18  and  C_19
REMARK                            x       y       z     vdW  Elec       q    Type
REMARK                         _______ _______ _______ _____ _____    ______ ____
ROOT
ATOM      1  C   UNL A   1     -24.829  -1.991  28.588  0.00  0.00    +0.003 A 
ATOM      2  C   UNL A   1     -23.825  -2.104  28.888  0.00  0.00    +0.000 A 
ATOM      3  C   UNL A   1     -25.121  -0.683  28.003  0.00  0.00    +0.034 A 
ATOM      4  C   UNL A   1     -26.428  -0.321  27.412  0.00  0.00    +0.141 C 
ATOM      5  C   UNL A   1     -22.640  -1.258  28.860  0.00  0.00    +0.000 A 
ATOM      6  C   UNL A   1     -22.879  -0.008  28.326  0.00  0.00    +0.000 A 
ATOM      7  C   UNL A   1     -24.098   0.288  27.842  0.00  0.00    +0.003 A 
ATOM      8  C   UNL A   1     -26.752   0.220  26.437  0.00  0.00    +0.067 C 
ATOM      9  C   UNL A   1     -25.654   0.577  25.517  0.00  0.00    +0.143 C 
ATOM     10  C   UNL A   1     -24.486   1.123  25.682  0.00  0.00    +0.030 C 
ATOM     11  C   UNL A   1     -23.877   1.152  26.678  0.00  0.00    +0.002 A 
ATOM     12  F   UNL A   1     -26.363   0.920  24.259  0.00  0.00    -0.204 F 
ATOM     13  C   UNL A   1     -22.488   1.795  26.672  0.00  0.00    +0.000 A 
ATOM     14  C   UNL A   1     -21.685   1.530  27.636  0.00  0.00    +0.000 A 
ATOM     15  C   UNL A   1     -21.790   0.755  28.190  0.00  0.00    +0.000 A 
ENDROOT
BRANCH   4  16
ATOM     16  O   UNL A   1     -27.345  -0.478  28.432  0.00  0.00    -0.475 OA
BRANCH  16  17
ATOM     17  C   UNL A   1     -27.831   0.497  29.086  0.00  0.00    +0.210 C 
BRANCH  17  18
ATOM     18  C   UNL A   1     -27.667   0.341  30.504  0.00  0.00    +0.073 C 
BRANCH  18  19
ATOM     19  C   UNL A   1     -26.442   0.220  31.019  0.00  0.00    -0.022 A 
ATOM     20  C   UNL A   1     -25.502   1.323  30.932  0.00  0.00    -0.004 A 
ATOM     21  C   UNL A   1     -24.201   1.258  31.413  0.00  0.00    -0.000 A 
ATOM     22  C   UNL A   1     -23.826   0.080  32.090  0.00  0.00    -0.000 A 
ATOM     23  C   UNL A   1     -24.703  -0.934  32.307  0.00  0.00    -0.005 A 
ATOM     24  C   UNL A   1     -25.966  -0.798  31.717  0.00  0.00    -0.026 A 
ATOM     25  C   UNL A   1     -26.694  -0.451  32.913  0.00  0.00    +0.031 C 
ENDBRANCH  18  19
ENDBRANCH  17  18
ENDBRANCH  16  17
ENDBRANCH   4  16
TORSDOF 4
ENDMDL
ENDMDL
