REMARK  Name = outputs/IAG933/test6/raw/output_2485_IAG933_linker_design_.xyz
REMARK  13 active torsions:
REMARK  status: ('A' for Active; 'I' for Inactive)
REMARK    1  A    between atoms: C_1  and  C_2
REMARK    2  A    between atoms: C_1  and  C_8
REMARK    3  A    between atoms: C_9  and  C_42
REMARK    4  A    between atoms: C_14  and  C_15
REMARK    5  A    between atoms: C_15  and  O_18
REMARK    6  A    between atoms: O_18  and  C_38
REMARK    7  A    between atoms: C_21  and  O_22
REMARK    8  A    between atoms: O_22  and  C_23
REMARK    9  A    between atoms: C_23  and  C_24
REMARK   10  A    between atoms: C_34  and  C_38
REMARK   11  A    between atoms: C_38  and  C_39
REMARK   12  A    between atoms: C_39  and  C_42
REMARK   13  A    between atoms: C_42  and  N_43
REMARK                            x       y       z     vdW  Elec       q    Type
REMARK                         _______ _______ _______ _____ _____    ______ ____
ROOT
ATOM      1  C   UNL A   1     -25.294   4.168  29.677  0.00  0.00    +0.201 C 
ENDROOT
BRANCH   1   5
ATOM      2  C   UNL A   1     -24.912   5.832  33.160  0.00  0.00    +0.072 C 
ATOM      3  C   UNL A   1     -27.072   4.944  33.756  0.00  0.00    +0.090 C 
ATOM      4  C   UNL A   1     -26.463   5.430  31.567  0.00  0.00    +0.076 C 
ATOM      5  C   UNL A   1     -25.394   4.807  31.159  0.00  0.00    +0.060 C 
ATOM      6  C   UNL A   1     -24.513   4.763  32.402  0.00  0.00    +0.022 C 
ATOM      7  N   UNL A   1     -26.275   5.816  32.831  0.00  0.00    -0.271 NA
ENDBRANCH   1   5
BRANCH   1   8
ATOM      8  C   UNL A   1     -25.813   2.725  29.960  0.00  0.00    +0.214 C 
ATOM      9  O   UNL A   1     -27.171   2.736  29.518  0.00  0.00    -0.217 OA
BRANCH   8  10
ATOM     10  C   UNL A   1     -24.865   2.047  30.997  0.00  0.00    +0.139 C 
BRANCH  10  16
ATOM     11  C   UNL A   1     -22.029   0.493  28.818  0.00  0.00    +0.020 C 
ATOM     12  C   UNL A   1     -22.091   1.883  27.107  0.00  0.00    +0.091 C 
ATOM     13  C   UNL A   1     -23.325   2.303  28.437  0.00  0.00    +0.037 C 
ATOM     14  C   UNL A   1     -21.512   0.889  27.660  0.00  0.00    +0.020 C 
ATOM     15  C   UNL A   1     -23.088   1.294  29.152  0.00  0.00    +0.077 C 
ATOM     16  N   UNL A   1     -23.824   1.348  30.082  0.00  0.00    -0.270 NA
ATOM     17  N   UNL A   1     -21.895   2.506  25.931  0.00  0.00    -0.128 NA
ENDBRANCH  10  16
BRANCH  10  19
ATOM     18  C   UNL A   1     -25.387  -0.679  31.571  0.00  0.00    +0.079 C 
ATOM     19  C   UNL A   1     -25.189   0.773  32.028  0.00  0.00    +0.043 C 
ATOM     20  C   UNL A   1     -25.336   0.684  33.544  0.00  0.00    +0.022 C 
ATOM     21  C   UNL A   1     -24.829  -0.715  33.905  0.00  0.00    +0.089 C 
ATOM     22  N   UNL A   1     -24.758  -1.481  32.646  0.00  0.00    -0.219 NA
BRANCH  18  23
ATOM     23  C   UNL A   1     -24.855  -1.012  30.143  0.00  0.00    +0.044 C 
BRANCH  23  24
ATOM     24  C   UNL A   1     -24.973  -2.505  29.788  0.00  0.00    -0.021 C 
ATOM     25  C   UNL A   1     -23.906  -3.173  29.146  0.00  0.00    -0.004 C 
ATOM     26  C   UNL A   1     -23.989  -4.549  28.853  0.00  0.00    -0.000 C 
ATOM     27  C   UNL A   1     -25.137  -5.280  29.205  0.00  0.00    -0.000 C 
ATOM     28  C   UNL A   1     -26.232  -4.611  29.784  0.00  0.00    -0.000 C 
ATOM     29  C   UNL A   1     -26.155  -3.232  30.065  0.00  0.00    -0.004 C 
ENDBRANCH  23  24
ENDBRANCH  18  23
ENDBRANCH  10  19
ENDBRANCH   8  10
ENDBRANCH   1   8
BRANCH   1  30
ATOM     30  O   UNL A   1     -25.143   3.966  28.243  0.00  0.00    -0.461 OA
BRANCH  30  31
ATOM     31  C   UNL A   1     -25.642   4.093  27.123  0.00  0.00    +0.222 C 
ATOM     32  N   UNL A   1     -25.614   5.252  26.449  0.00  0.00    -0.236 NA
ATOM     33  C   UNL A   1     -25.026   6.479  26.963  0.00  0.00    +0.155 C 
BRANCH  31  35
ATOM     34  C   UNL A   1     -25.688   1.614  26.461  0.00  0.00    +0.041 C 
ATOM     35  C   UNL A   1     -26.250   2.920  26.395  0.00  0.00    +0.074 C 
ATOM     36  C   UNL A   1     -27.438   3.091  25.645  0.00  0.00    +0.107 C 
ATOM     37  N   UNL A   1     -28.075   2.089  25.003  0.00  0.00    -0.208 NA
ATOM     38  C   UNL A   1     -27.543   0.849  25.079  0.00  0.00    +0.253 C 
ATOM     39  C   UNL A   1     -26.354   0.576  25.777  0.00  0.00    +0.193 C 
ATOM     40  F   UNL A   1     -25.860  -0.681  25.795  0.00  0.00    -0.199 F 
BRANCH  38  41
ATOM     41  O   UNL A   1     -28.193  -0.208  24.477  0.00  0.00    -0.456 OA
BRANCH  41  42
ATOM     42  C   UNL A   1     -29.460   0.005  23.866  0.00  0.00    +0.243 C 
BRANCH  42  43
ATOM     43  C   UNL A   1     -30.065  -1.377  23.573  0.00  0.00    +0.229 C 
ATOM     44  O   UNL A   1     -30.729  -1.878  24.721  0.00  0.00    -0.216 OA
ENDBRANCH  42  43
ENDBRANCH  41  42
ENDBRANCH  38  41
ENDBRANCH  31  35
ENDBRANCH  30  31
ENDBRANCH   1  30
TORSDOF 13
