REMARK  Name = outputs/IAG933/test6/raw/output_2486_IAG933_linker_design_.xyz
REMARK  12 active torsions:
REMARK  status: ('A' for Active; 'I' for Inactive)
REMARK    1  A    between atoms: C_1  and  C_2
REMARK    2  A    between atoms: C_1  and  C_8
REMARK    3  A    between atoms: C_1  and  N_32
REMARK    4  A    between atoms: C_13  and  C_40
REMARK    5  A    between atoms: C_14  and  C_15
REMARK    6  A    between atoms: C_15  and  O_18
REMARK    7  A    between atoms: O_18  and  C_42
REMARK    8  A    between atoms: C_21  and  O_22
REMARK    9  A    between atoms: O_22  and  C_23
REMARK   10  A    between atoms: C_23  and  C_24
REMARK   11  A    between atoms: C_36  and  C_45
REMARK   12  A    between atoms: C_45  and  C_46
REMARK                            x       y       z     vdW  Elec       q    Type
REMARK                         _______ _______ _______ _____ _____    ______ ____
ROOT
ATOM      1  C   UNL A   1     -25.688   1.614  26.461  0.00  0.00    +0.071 C 
ATOM      2  C   UNL A   1     -26.250   2.920  26.395  0.00  0.00    +0.075 C 
ATOM      3  C   UNL A   1     -27.438   3.091  25.645  0.00  0.00    +0.107 C 
ATOM      4  N   UNL A   1     -28.075   2.089  25.003  0.00  0.00    -0.208 NA
ATOM      5  C   UNL A   1     -27.543   0.849  25.079  0.00  0.00    +0.253 C 
ATOM      6  C   UNL A   1     -26.354   0.576  25.777  0.00  0.00    +0.194 C 
ATOM      7  F   UNL A   1     -25.860  -0.681  25.795  0.00  0.00    -0.199 F 
ENDROOT
BRANCH   1  12
ATOM      8  N   UNL A   1     -23.492  -0.494  29.927  0.00  0.00    -0.030 NA
ATOM      9  C   UNL A   1     -21.950   0.709  28.751  0.00  0.00    +0.093 C 
ATOM     10  C   UNL A   1     -21.390   1.527  27.805  0.00  0.00    +0.010 C 
ATOM     11  F   UNL A   1     -23.495   3.044  25.402  0.00  0.00    -0.204 F 
ATOM     12  C   UNL A   1     -24.319   1.404  26.965  0.00  0.00    +0.289 C 
ATOM     13  C   UNL A   1     -23.288   2.190  26.389  0.00  0.00    +0.171 C 
ATOM     14  C   UNL A   1     -23.267   0.277  28.819  0.00  0.00    +0.357 C 
ATOM     15  N   UNL A   1     -24.244   0.492  27.984  0.00  0.00    -0.055 NA
ATOM     16  C   UNL A   1     -22.001   2.198  26.831  0.00  0.00    +0.030 C 
BRANCH   8  17
ATOM     17  C   UNL A   1     -24.855  -1.012  30.143  0.00  0.00    +0.243 C 
BRANCH  17  18
ATOM     18  C   UNL A   1     -24.973  -2.505  29.788  0.00  0.00    +0.025 C 
ATOM     19  C   UNL A   1     -23.906  -3.173  29.146  0.00  0.00    -0.000 C 
ATOM     20  C   UNL A   1     -23.989  -4.549  28.853  0.00  0.00    -0.000 C 
ATOM     21  C   UNL A   1     -25.137  -5.280  29.205  0.00  0.00    -0.000 C 
ATOM     22  C   UNL A   1     -26.232  -4.611  29.784  0.00  0.00    -0.000 C 
ATOM     23  C   UNL A   1     -26.155  -3.232  30.065  0.00  0.00    -0.000 C 
ENDBRANCH  17  18
BRANCH  17  24
ATOM     24  C   UNL A   1     -25.387  -0.679  31.571  0.00  0.00    +0.124 C 
ATOM     25  C   UNL A   1     -25.189   0.773  32.028  0.00  0.00    +0.024 C 
ATOM     26  C   UNL A   1     -25.336   0.684  33.544  0.00  0.00    +0.020 C 
ATOM     27  C   UNL A   1     -24.829  -0.715  33.905  0.00  0.00    +0.089 C 
ATOM     28  N   UNL A   1     -24.758  -1.481  32.646  0.00  0.00    -0.215 NA
ENDBRANCH  17  24
ENDBRANCH   8  17
ENDBRANCH   1  12
BRANCH   2  29
ATOM     29  C   UNL A   1     -25.642   4.093  27.123  0.00  0.00    +0.228 C 
ATOM     30  N   UNL A   1     -25.614   5.252  26.449  0.00  0.00    -0.235 NA
ATOM     31  C   UNL A   1     -25.026   6.479  26.963  0.00  0.00    +0.155 C 
BRANCH  29  32
ATOM     32  O   UNL A   1     -25.143   3.966  28.243  0.00  0.00    -0.423 OA
BRANCH  32  39
ATOM     33  C   UNL A   1     -26.926   6.909  31.106  0.00  0.00    +0.114 C 
ATOM     34  C   UNL A   1     -28.637   5.345  29.461  0.00  0.00    -0.016 C 
ATOM     35  C   UNL A   1     -28.203   2.650  29.497  0.00  0.00    +0.015 C 
ATOM     36  N   UNL A   1     -26.631   5.543  30.788  0.00  0.00    -0.289 N 
ATOM     37  C   UNL A   1     -27.526   4.811  30.122  0.00  0.00    +0.030 C 
ATOM     38  C   UNL A   1     -29.274   3.159  28.783  0.00  0.00    +0.005 C 
ATOM     39  C   UNL A   1     -25.777   3.718  29.488  0.00  0.00    +0.210 C 
ATOM     40  C   UNL A   1     -25.391   5.085  30.958  0.00  0.00    +0.223 C 
ATOM     41  C   UNL A   1     -29.257   4.544  28.523  0.00  0.00    +0.023 C 
ATOM     42  C   UNL A   1     -27.191   3.606  29.719  0.00  0.00    +0.112 C 
ATOM     43  N   UNL A   1     -24.966   3.976  30.427  0.00  0.00    -0.218 NA
BRANCH  41  44
ATOM     44  C   UNL A   1     -29.719   5.197  27.305  0.00  0.00    +0.004 C 
BRANCH  44  46
ATOM     45  C   UNL A   1     -31.514   3.565  26.570  0.00  0.00    +0.000 C 
ATOM     46  C   UNL A   1     -30.930   4.975  26.562  0.00  0.00    +0.000 C 
ENDBRANCH  44  46
ENDBRANCH  41  44
ENDBRANCH  32  39
ENDBRANCH  29  32
ENDBRANCH   2  29
BRANCH   5  47
ATOM     47  O   UNL A   1     -28.193  -0.208  24.477  0.00  0.00    -0.456 OA
BRANCH  47  48
ATOM     48  C   UNL A   1     -29.460   0.005  23.866  0.00  0.00    +0.243 C 
BRANCH  48  49
ATOM     49  C   UNL A   1     -30.065  -1.377  23.573  0.00  0.00    +0.229 C 
ATOM     50  O   UNL A   1     -30.729  -1.878  24.721  0.00  0.00    -0.216 OA
ENDBRANCH  48  49
ENDBRANCH  47  48
ENDBRANCH   5  47
TORSDOF 12
