MODEL 2486
MODEL 1
REMARK VINA RESULT:    -5.731      0.000      0.000
REMARK INTER + INTRA:          -8.024
REMARK INTER:                  -7.406
REMARK INTRA:                  -0.618
REMARK UNBOUND:                -0.618
REMARK  Name = No_2486-gen_results/8p0m/2024-11-27-11-27-31/
REMARK  5 active torsions:
REMARK  status: ('A' for Active; 'I' for Inactive)
REMARK    1  A    between atoms: C_1  and  C_2
REMARK    2  A    between atoms: C_1  and  C_8
REMARK    3  A    between atoms: C_5  and  C_10
REMARK    4  A    between atoms: C_9  and  C_15
REMARK    5  A    between atoms: C_10  and  C_12
REMARK                            x       y       z     vdW  Elec       q    Type
REMARK                         _______ _______ _______ _____ _____    ______ ____
ROOT
ATOM      1  C   UNL A   1      -7.250  -0.304  34.813  0.00  0.00    -0.018 A 
ATOM      2  C   UNL A   1      -6.179   0.424  34.950  0.00  0.00    -0.004 A 
ATOM      3  C   UNL A   1      -4.778  -0.033  34.778  0.00  0.00    -0.003 A 
ATOM      4  C   UNL A   1      -4.596  -1.413  34.479  0.00  0.00    -0.001 A 
ATOM      5  C   UNL A   1      -5.718  -2.197  34.391  0.00  0.00    -0.003 A 
ATOM      6  C   UNL A   1      -6.980  -1.743  34.571  0.00  0.00    -0.004 A 
ENDROOT
BRANCH   4   7
ATOM      7  C   UNL A   1      -3.277  -1.958  34.263  0.00  0.00    +0.163 C 
ATOM      8  N   UNL A   1      -2.742  -2.512  33.456  0.00  0.00    -0.124 NA
BRANCH   7   9
ATOM      9  C   UNL A   1      -2.400  -1.861  35.561  0.00  0.00    +0.263 C 
ATOM     10  O   UNL A   1      -2.490  -2.650  36.523  0.00  0.00    -0.200 OA
ATOM     11  N   UNL A   1      -1.463  -0.855  35.577  0.00  0.00    -0.095 NA
ENDBRANCH   7   9
ENDBRANCH   4   7
BRANCH   1  12
ATOM     12  C   UNL A   1      -8.402   0.036  34.950  0.00  0.00    +0.052 C 
BRANCH  12  13
ATOM     13  C   UNL A   1      -8.879   0.043  36.401  0.00  0.00    -0.021 C 
ATOM     14  C   UNL A   1      -9.866  -0.624  36.761  0.00  0.00    -0.005 C 
BRANCH  14  15
ATOM     15  C   UNL A   1     -10.349  -0.610  38.104  0.00  0.00    -0.005 C 
ATOM     16  C   UNL A   1     -11.210  -1.634  38.508  0.00  0.00    -0.026 C 
ATOM     17  C   UNL A   1     -11.599  -2.568  37.585  0.00  0.00    +0.031 C 
ENDBRANCH  14  15
ENDBRANCH  12  13
ENDBRANCH   1  12
TORSDOF 5
ENDMDL
ENDMDL
