MODEL 2487
MODEL 1
REMARK VINA RESULT:    -6.293      0.000      0.000
REMARK INTER + INTRA:          -7.564
REMARK INTER:                  -7.029
REMARK INTRA:                  -0.535
REMARK UNBOUND:                -0.535
REMARK  Name = No_2487-gen_results/8p0m/2024-11-27-11-27-31/
REMARK  2 active torsions:
REMARK  status: ('A' for Active; 'I' for Inactive)
REMARK    1  A    between atoms: C_5  and  C_6
REMARK    2  A    between atoms: C_9  and  C_10
REMARK                            x       y       z     vdW  Elec       q    Type
REMARK                         _______ _______ _______ _____ _____    ______ ____
ROOT
ATOM      1  C   UNL A   1     -23.647  -1.196  29.034  0.00  0.00    -0.022 A 
ATOM      2  C   UNL A   1     -22.409  -1.147  29.445  0.00  0.00    -0.004 A 
ATOM      3  C   UNL A   1     -21.583  -0.009  29.105  0.00  0.00    -0.000 A 
ATOM      4  C   UNL A   1     -23.968  -0.279  27.902  0.00  0.00    +0.022 A 
ATOM      5  C   UNL A   1     -21.961   0.846  28.079  0.00  0.00    -0.000 A 
ATOM      6  C   UNL A   1     -23.132   0.738  27.494  0.00  0.00    -0.001 A 
ENDROOT
BRANCH   1  11
ATOM      7  O   UNL A   1     -24.732  -5.706  28.930  0.00  0.00    -0.273 OA
ATOM      8  C   UNL A   1     -25.053  -4.614  29.111  0.00  0.00    +0.242 C 
ATOM      9  C   UNL A   1     -24.335  -3.555  28.592  0.00  0.00    +0.091 C 
ATOM     10  N   UNL A   1     -26.352  -4.251  29.668  0.00  0.00    -0.205 NA
ATOM     11  C   UNL A   1     -24.486  -2.282  29.268  0.00  0.00    +0.033 C 
ATOM     12  C   UNL A   1     -26.641  -3.023  30.175  0.00  0.00    +0.116 C 
ATOM     13  C   UNL A   1     -25.506  -2.016  30.347  0.00  0.00    +0.028 C 
ENDBRANCH   1  11
BRANCH   4  14
ATOM     14  C   UNL A   1     -25.371  -0.391  27.353  0.00  0.00    +0.262 C 
ATOM     15 CL   UNL A   1     -25.832  -0.324  25.946  0.00  0.00    -0.072 Cl
ATOM     16  F   UNL A   1     -26.253   0.443  28.199  0.00  0.00    -0.214 F 
ENDBRANCH   4  14
TORSDOF 2
ENDMDL
ENDMDL
