REMARK  Name = No_2488-gen_results/8p0m/2024-11-27-11-27-31/
REMARK  2 active torsions:
REMARK  status: ('A' for Active; 'I' for Inactive)
REMARK    1  A    between atoms: C_1  and  C_10
REMARK    2  A    between atoms: C_5  and  C_6
REMARK                            x       y       z     vdW  Elec       q    Type
REMARK                         _______ _______ _______ _____ _____    ______ ____
ROOT
ATOM      1  C   UNL A   1     -28.016  -0.814  28.878  0.00  0.00    -0.016 C 
ATOM      2  C   UNL A   1     -27.064  -0.119  28.608  0.00  0.00    -0.047 C 
ATOM      3  C   UNL A   1     -26.876   1.133  28.913  0.00  0.00    +0.023 C 
ATOM      4  C   UNL A   1     -25.688   1.952  28.567  0.00  0.00    +0.019 C 
ATOM      5  C   UNL A   1     -24.639   1.283  27.875  0.00  0.00    +0.092 C 
ATOM      6  C   UNL A   1     -25.843  -0.737  27.921  0.00  0.00    +0.023 C 
ATOM      7  C   UNL A   1     -24.690  -0.052  27.583  0.00  0.00    +0.019 C 
ENDROOT
BRANCH   1   8
ATOM      8  C   UNL A   1     -27.892  -1.383  30.342  0.00  0.00    +0.113 C 
ATOM      9  C   UNL A   1     -28.890  -1.195  31.183  0.00  0.00    +0.025 C 
ATOM     10  N   UNL A   1     -27.580  -2.843  30.243  0.00  0.00    -0.128 NA
ENDBRANCH   1   8
BRANCH   5  11
ATOM     11  C   UNL A   1     -23.456   2.000  27.565  0.00  0.00    +0.072 C 
ATOM     12  N   UNL A   1     -22.228   2.139  27.875  0.00  0.00    -0.196 NA
ENDBRANCH   5  11
TORSDOF 2
