MODEL 2489
MODEL 1
REMARK VINA RESULT:    -5.100      0.000      0.000
REMARK INTER + INTRA:          -6.385
REMARK INTER:                  -5.995
REMARK INTRA:                  -0.391
REMARK UNBOUND:                -0.391
REMARK  Name = No_2489-gen_results/8p0m/2024-11-27-11-27-31/
REMARK  3 active torsions:
REMARK  status: ('A' for Active; 'I' for Inactive)
REMARK    1  A    between atoms: C_7  and  C_9
REMARK    2  A    between atoms: C_9  and  N_10
REMARK    3  A    between atoms: C_9  and  C_11
REMARK                            x       y       z     vdW  Elec       q    Type
REMARK                         _______ _______ _______ _____ _____    ______ ____
ROOT
ATOM      1 CL   UNL A   1     -21.663   1.925  27.302  0.00  0.00    -0.083 Cl
ATOM      2  C   UNL A   1     -22.249   0.806  27.811  0.00  0.00    +0.055 A 
ATOM      3  C   UNL A   1     -21.642   0.098  28.802  0.00  0.00    +0.012 A 
ATOM      4  C   UNL A   1     -22.251  -1.063  29.463  0.00  0.00    +0.012 A 
ATOM      5  C   UNL A   1     -23.588  -1.382  29.069  0.00  0.00    +0.058 A 
ATOM      6  C   UNL A   1     -24.217  -0.605  28.148  0.00  0.00    +0.009 A 
ATOM      7  C   UNL A   1     -23.610   0.461  27.558  0.00  0.00    +0.004 A 
ATOM      8 CL   UNL A   1     -24.338  -2.711  29.841  0.00  0.00    -0.082 Cl
ENDROOT
BRANCH   7   9
ATOM      9  C   UNL A   1     -24.405   1.227  26.596  0.00  0.00    +0.081 C 
BRANCH   9  10
ATOM     10  N   UNL A   1     -24.944   2.331  26.766  0.00  0.00    -0.268 NA
ATOM     11  C   UNL A   1     -24.689   3.416  25.987  0.00  0.00    +0.090 C 
ATOM     12  C   UNL A   1     -25.813   2.631  27.880  0.00  0.00    +0.090 C 
ENDBRANCH   9  10
BRANCH   9  13
ATOM     13  C   UNL A   1     -24.575   0.630  25.241  0.00  0.00    +0.021 C 
ATOM     14  C   UNL A   1     -25.741  -0.066  24.858  0.00  0.00    +0.002 C 
ENDBRANCH   9  13
ENDBRANCH   7   9
TORSDOF 3
ENDMDL
ENDMDL
