MODEL 248
MODEL 1
REMARK VINA RESULT:    -5.943      0.000      0.000
REMARK INTER + INTRA:          -7.371
REMARK INTER:                  -6.985
REMARK INTRA:                  -0.386
REMARK UNBOUND:                -0.386
REMARK  Name = No_248-gen_results/8p0m/2024-11-27-11-27-31/
REMARK  3 active torsions:
REMARK  status: ('A' for Active; 'I' for Inactive)
REMARK    1  A    between atoms: C_2  and  C_3
REMARK    2  A    between atoms: N_4  and  C_10
REMARK    3  A    between atoms: C_8  and  C_11
REMARK                            x       y       z     vdW  Elec       q    Type
REMARK                         _______ _______ _______ _____ _____    ______ ____
ROOT
ATOM      1  O   UNL A   1     -24.083  -2.397  28.224  0.00  0.00    -0.268 OA
ATOM      2  C   UNL A   1     -24.858  -1.823  28.856  0.00  0.00    +0.269 C 
ATOM      3  N   UNL A   1     -25.077  -0.369  28.749  0.00  0.00    -0.175 NA
ENDROOT
BRANCH   2   4
ATOM      4  C   UNL A   1     -25.753  -2.483  29.674  0.00  0.00    +0.055 A 
ATOM      5  C   UNL A   1     -25.735  -3.817  29.671  0.00  0.00    +0.005 A 
ATOM      6  C   UNL A   1     -26.676  -1.755  30.501  0.00  0.00    +0.005 A 
ATOM      7  C   UNL A   1     -26.541  -4.607  29.639  0.00  0.00    +0.008 A 
ATOM      8  C   UNL A   1     -27.848  -4.123  30.388  0.00  0.00    +0.098 A 
ATOM      9  C   UNL A   1     -27.894  -2.764  30.701  0.00  0.00    +0.008 A 
BRANCH   8  10
ATOM     10  C   UNL A   1     -29.012  -4.976  30.589  0.00  0.00    +0.477 C 
ATOM     11  N   UNL A   1     -30.014  -4.871  29.673  0.00  0.00    +0.205 NA
ATOM     12  N   UNL A   1     -29.028  -5.832  31.543  0.00  0.00    +0.205 NA
ENDBRANCH   8  10
ENDBRANCH   2   4
BRANCH   3  13
ATOM     13  C   UNL A   1     -24.192   0.361  27.857  0.00  0.00    +0.074 A 
ATOM     14  C   UNL A   1     -23.271   0.824  28.304  0.00  0.00    +0.017 A 
ATOM     15  C   UNL A   1     -22.427   1.823  27.590  0.00  0.00    +0.001 A 
ATOM     16  C   UNL A   1     -22.778   2.062  26.236  0.00  0.00    +0.000 A 
ATOM     17  C   UNL A   1     -23.922   1.443  25.715  0.00  0.00    +0.001 A 
ATOM     18  C   UNL A   1     -24.743   0.658  26.520  0.00  0.00    +0.017 A 
ENDBRANCH   3  13
TORSDOF 3
ENDMDL
ENDMDL
