MODEL 2490
MODEL 1
REMARK VINA RESULT:    -6.430      0.000      0.000
REMARK INTER + INTRA:          -9.650
REMARK INTER:                  -8.685
REMARK INTRA:                  -0.966
REMARK UNBOUND:                -0.966
REMARK  Name = No_2490-gen_results/8p0m/2024-11-27-11-27-31/
REMARK  6 active torsions:
REMARK  status: ('A' for Active; 'I' for Inactive)
REMARK    1  A    between atoms: C_1  and  C_2
REMARK    2  A    between atoms: C_5  and  C_9
REMARK    3  A    between atoms: N_8  and  C_14
REMARK    4  A    between atoms: C_14  and  C_15
REMARK    5  A    between atoms: C_15  and  O_16
REMARK    6  A    between atoms: O_16  and  C_21
REMARK                            x       y       z     vdW  Elec       q    Type
REMARK                         _______ _______ _______ _____ _____    ______ ____
ROOT
ATOM      1  C   UNL A   1      -6.763  -0.289   9.966  0.00  0.00    +0.249 C 
ATOM      2  N   UNL A   1      -5.618   0.162  10.756  0.00  0.00    -0.264 N 
ATOM      3  O   UNL A   1      -6.970  -1.536  10.113  0.00  0.00    -0.270 OA
ATOM      4  C   UNL A   1      -5.200   1.562  10.829  0.00  0.00    +0.116 C 
ENDROOT
BRANCH   1   5
ATOM      5  C   UNL A   1      -7.596   0.521   9.631  0.00  0.00    +0.054 A 
ATOM      6  C   UNL A   1      -7.708   1.017   8.372  0.00  0.00    +0.005 A 
ATOM      7  C   UNL A   1      -8.722   2.007   7.946  0.00  0.00    +0.005 A 
ATOM      8  C   UNL A   1      -9.658   2.446   8.939  0.00  0.00    +0.056 A 
ATOM      9  C   UNL A   1      -9.554   1.852  10.217  0.00  0.00    +0.005 A 
ATOM     10  C   UNL A   1      -8.585   0.938  10.541  0.00  0.00    +0.005 A 
BRANCH   8  11
ATOM     11  C   UNL A   1     -10.694   3.391   8.649  0.00  0.00    +0.271 C 
ATOM     12  N   UNL A   1     -10.822   4.568   8.531  0.00  0.00    -0.141 NA
ATOM     13  O   UNL A   1     -11.842   2.695   8.236  0.00  0.00    -0.268 OA
ATOM     14  C   UNL A   1      -9.637   5.417   8.685  0.00  0.00    +0.249 C 
ATOM     15  C   UNL A   1      -9.349   6.286   7.527  0.00  0.00    +0.097 C 
ATOM     16  O   UNL A   1      -8.855   5.186   9.585  0.00  0.00    -0.273 OA
ENDBRANCH   8  11
ENDBRANCH   1   5
BRANCH   2  17
ATOM     17  C   UNL A   1      -4.607  -0.754  11.252  0.00  0.00    +0.205 C 
BRANCH  17  18
ATOM     18  C   UNL A   1      -3.527  -0.950  10.435  0.00  0.00    +0.342 C 
ATOM     19  O   UNL A   1      -2.285  -0.710  10.825  0.00  0.00    -0.248 OA
BRANCH  18  20
ATOM     20  O   UNL A   1      -3.648  -1.718   9.510  0.00  0.00    -0.423 OA
BRANCH  20  21
ATOM     21  C   UNL A   1      -2.943  -1.485   8.359  0.00  0.00    +0.148 A 
ATOM     22  C   UNL A   1      -2.163  -2.619   7.893  0.00  0.00    +0.038 A 
ATOM     23  C   UNL A   1      -1.322  -2.313   6.828  0.00  0.00    +0.003 A 
ATOM     24  C   UNL A   1      -1.809  -1.314   5.886  0.00  0.00    +0.000 A 
ATOM     25  C   UNL A   1      -2.754  -0.351   6.310  0.00  0.00    +0.003 A 
ATOM     26  C   UNL A   1      -3.372  -0.500   7.531  0.00  0.00    +0.038 A 
ENDBRANCH  20  21
ENDBRANCH  18  20
ENDBRANCH  17  18
ENDBRANCH   2  17
TORSDOF 6
ENDMDL
ENDMDL
