REMARK  Name = outputs/IAG933/test6/raw/output_2490_IAG933_linker_design_.xyz
REMARK  10 active torsions:
REMARK  status: ('A' for Active; 'I' for Inactive)
REMARK    1  A    between atoms: C_1  and  C_2
REMARK    2  A    between atoms: C_1  and  C_8
REMARK    3  A    between atoms: C_1  and  N_29
REMARK    4  A    between atoms: C_13  and  N_39
REMARK    5  A    between atoms: C_14  and  C_15
REMARK    6  A    between atoms: C_21  and  O_22
REMARK    7  A    between atoms: O_22  and  C_23
REMARK    8  A    between atoms: C_23  and  C_24
REMARK    9  A    between atoms: C_28  and  C_34
REMARK   10  A    between atoms: C_30  and  C_41
REMARK                            x       y       z     vdW  Elec       q    Type
REMARK                         _______ _______ _______ _____ _____    ______ ____
ROOT
ATOM      1  C   UNL A   1     -25.659   0.663  28.567  0.00  0.00    +0.158 C 
ATOM      2  N   UNL A   1     -24.752   0.063  29.159  0.00  0.00    -0.181 NA
ATOM      3  C   UNL A   1     -23.512   1.241  27.661  0.00  0.00    +0.206 C 
ATOM      4  N   UNL A   1     -23.360   0.422  28.677  0.00  0.00    -0.123 NA
ATOM      5  N   UNL A   1     -24.887   1.226  27.468  0.00  0.00    -0.231 NA
ENDROOT
BRANCH   5   6
ATOM      6  C   UNL A   1     -25.688   1.614  26.461  0.00  0.00    +0.131 C 
ATOM      7  C   UNL A   1     -26.250   2.920  26.395  0.00  0.00    +0.070 C 
ATOM      8  C   UNL A   1     -27.438   3.091  25.645  0.00  0.00    +0.103 C 
ATOM      9  N   UNL A   1     -28.075   2.089  25.003  0.00  0.00    -0.212 NA
ATOM     10  C   UNL A   1     -27.543   0.849  25.079  0.00  0.00    +0.235 C 
ATOM     11  C   UNL A   1     -26.354   0.576  25.777  0.00  0.00    +0.255 C 
ATOM     12  F   UNL A   1     -25.860  -0.681  25.795  0.00  0.00    -0.225 F 
BRANCH   7  13
ATOM     13  C   UNL A   1     -25.642   4.093  27.123  0.00  0.00    +0.264 C 
ATOM     14  N   UNL A   1     -25.614   5.252  26.449  0.00  0.00    -0.200 NA
ATOM     15  C   UNL A   1     -25.026   6.479  26.963  0.00  0.00    +0.139 C 
ATOM     16  O   UNL A   1     -25.143   3.966  28.243  0.00  0.00    -0.269 OA
ENDBRANCH   7  13
BRANCH  10  17
ATOM     17  O   UNL A   1     -28.193  -0.208  24.477  0.00  0.00    -0.459 OA
BRANCH  17  18
ATOM     18  C   UNL A   1     -29.460   0.005  23.866  0.00  0.00    +0.242 C 
BRANCH  18  19
ATOM     19  C   UNL A   1     -30.065  -1.377  23.573  0.00  0.00    +0.229 C 
ATOM     20  O   UNL A   1     -30.729  -1.878  24.721  0.00  0.00    -0.216 OA
ENDBRANCH  18  19
ENDBRANCH  17  18
ENDBRANCH  10  17
ENDBRANCH   5   6
BRANCH   1  22
ATOM     21  C   UNL A   1     -28.510   2.140  30.527  0.00  0.00    -0.000 C 
ATOM     22  C   UNL A   1     -26.984   0.882  29.049  0.00  0.00    +0.009 C 
ATOM     23  C   UNL A   1     -29.344   0.213  29.324  0.00  0.00    -0.000 C 
ATOM     24  C   UNL A   1     -28.064   0.016  28.767  0.00  0.00    -0.002 C 
ATOM     25  C   UNL A   1     -29.558   1.261  30.247  0.00  0.00    -0.000 C 
ATOM     26  C   UNL A   1     -27.289   2.029  29.848  0.00  0.00    -0.002 C 
ENDBRANCH   1  22
BRANCH   3  30
ATOM     27  C   UNL A   1     -22.698   1.857  25.447  0.00  0.00    +0.304 C 
ATOM     28  F   UNL A   1     -21.814   2.280  24.623  0.00  0.00    -0.170 F 
ATOM     29  F   UNL A   1     -21.301   2.140  27.370  0.00  0.00    -0.201 F 
ATOM     30  C   UNL A   1     -22.508   1.763  26.850  0.00  0.00    +0.206 C 
ATOM     31  F   UNL A   1     -23.735   1.551  24.815  0.00  0.00    -0.170 F 
ENDBRANCH   3  30
BRANCH   2  32
ATOM     32  C   UNL A   1     -24.855  -1.012  30.143  0.00  0.00    +0.114 C 
BRANCH  32  33
ATOM     33  C   UNL A   1     -24.973  -2.505  29.788  0.00  0.00    -0.005 C 
ATOM     34  C   UNL A   1     -23.906  -3.173  29.146  0.00  0.00    -0.003 C 
ATOM     35  C   UNL A   1     -23.989  -4.549  28.853  0.00  0.00    -0.000 C 
ATOM     36  C   UNL A   1     -25.137  -5.280  29.205  0.00  0.00    -0.000 C 
ATOM     37  C   UNL A   1     -26.232  -4.611  29.784  0.00  0.00    -0.000 C 
ATOM     38  C   UNL A   1     -26.155  -3.232  30.065  0.00  0.00    -0.003 C 
ENDBRANCH  32  33
BRANCH  32  39
ATOM     39  C   UNL A   1     -25.387  -0.679  31.571  0.00  0.00    +0.093 C 
ATOM     40  C   UNL A   1     -25.189   0.773  32.028  0.00  0.00    +0.021 C 
ATOM     41  C   UNL A   1     -25.336   0.684  33.544  0.00  0.00    +0.020 C 
ATOM     42  C   UNL A   1     -24.829  -0.715  33.905  0.00  0.00    +0.089 C 
ATOM     43  N   UNL A   1     -24.758  -1.481  32.646  0.00  0.00    -0.218 NA
ENDBRANCH  32  39
ENDBRANCH   2  32
TORSDOF 10
