MODEL 2491
MODEL 1
REMARK VINA RESULT:    -5.285      0.000      0.000
REMARK INTER + INTRA:          -9.262
REMARK INTER:                  -6.521
REMARK INTRA:                  -2.741
REMARK UNBOUND:                -2.741
REMARK  Name = No_2491-gen_results/8p0m/2024-11-27-11-27-31/
REMARK  4 active torsions:
REMARK  status: ('A' for Active; 'I' for Inactive)
REMARK    1  A    between atoms: C_4  and  C_7
REMARK    2  A    between atoms: C_7  and  C_8
REMARK    3  A    between atoms: C_8  and  C_9
REMARK    4  A    between atoms: C_10  and  C_11
REMARK                            x       y       z     vdW  Elec       q    Type
REMARK                         _______ _______ _______ _____ _____    ______ ____
ROOT
ATOM      1  C   UNL A   1     -21.162   1.095  28.083  0.00  0.00    +0.031 C 
ENDROOT
BRANCH   1   2
ATOM      2  C   UNL A   1     -22.027   1.464  27.148  0.00  0.00    -0.026 C 
ATOM      3  C   UNL A   1     -23.189   2.222  27.279  0.00  0.00    -0.005 C 
BRANCH   3   4
ATOM      4  C   UNL A   1     -24.225   1.491  27.465  0.00  0.00    -0.000 A 
ATOM      5  C   UNL A   1     -25.158   1.824  28.492  0.00  0.00    -0.000 A 
ATOM      6  C   UNL A   1     -24.634   0.574  26.492  0.00  0.00    -0.000 A 
ATOM      7  C   UNL A   1     -25.543  -0.262  26.784  0.00  0.00    -0.000 A 
ATOM      8  C   UNL A   1     -26.262   0.960  28.709  0.00  0.00    -0.000 A 
ATOM      9  C   UNL A   1     -26.487  -0.086  27.806  0.00  0.00    -0.000 A 
ENDBRANCH   3   4
ENDBRANCH   1   2
BRANCH   1  10
ATOM     10  C   UNL A   1     -21.067  -0.206  28.619  0.00  0.00    +0.031 C 
BRANCH  10  14
ATOM     11  C   UNL A   1     -24.143  -2.177  29.817  0.00  0.00    -0.000 A 
ATOM     12  C   UNL A   1     -24.387  -1.572  30.644  0.00  0.00    -0.000 A 
ATOM     13  C   UNL A   1     -23.002  -1.742  28.996  0.00  0.00    -0.004 A 
ATOM     14  C   UNL A   1     -22.199  -0.636  29.400  0.00  0.00    -0.022 A 
ATOM     15  C   UNL A   1     -22.605   0.020  30.534  0.00  0.00    -0.004 A 
ATOM     16  C   UNL A   1     -23.676  -0.408  31.236  0.00  0.00    -0.000 A 
ENDBRANCH  10  14
ENDBRANCH   1  10
TORSDOF 4
ENDMDL
ENDMDL
