REMARK  Name = No_2491-gen_results/8p0m/2024-11-27-11-27-31/
REMARK  4 active torsions:
REMARK  status: ('A' for Active; 'I' for Inactive)
REMARK    1  A    between atoms: C_4  and  C_7
REMARK    2  A    between atoms: C_7  and  C_8
REMARK    3  A    between atoms: C_8  and  C_9
REMARK    4  A    between atoms: C_10  and  C_11
REMARK                            x       y       z     vdW  Elec       q    Type
REMARK                         _______ _______ _______ _____ _____    ______ ____
ROOT
ATOM      1  C   UNL A   1     -23.692   0.119  29.919  0.00  0.00    +0.031 C 
ENDROOT
BRANCH   1   2
ATOM      2  C   UNL A   1     -23.178   0.582  28.788  0.00  0.00    -0.026 C 
ATOM      3  C   UNL A   1     -23.026   1.904  28.371  0.00  0.00    -0.005 C 
BRANCH   3   4
ATOM      4  C   UNL A   1     -24.028   2.312  27.683  0.00  0.00    -0.000 A 
ATOM      5  C   UNL A   1     -24.407   3.687  27.723  0.00  0.00    -0.000 A 
ATOM      6  C   UNL A   1     -24.554   1.525  26.654  0.00  0.00    -0.000 A 
ATOM      7  C   UNL A   1     -25.653   1.869  26.123  0.00  0.00    -0.000 A 
ATOM      8  C   UNL A   1     -25.556   4.093  26.996  0.00  0.00    -0.000 A 
ATOM      9  C   UNL A   1     -26.171   3.172  26.139  0.00  0.00    -0.000 A 
ENDBRANCH   3   4
ENDBRANCH   1   2
BRANCH   1  10
ATOM     10  C   UNL A   1     -24.366  -1.113  30.048  0.00  0.00    +0.031 C 
BRANCH  10  14
ATOM     11  C   UNL A   1     -28.016  -0.814  28.878  0.00  0.00    -0.000 A 
ATOM     12  C   UNL A   1     -28.469  -0.785  29.829  0.00  0.00    -0.000 A 
ATOM     13  C   UNL A   1     -26.546  -0.876  28.850  0.00  0.00    -0.004 A 
ATOM     14  C   UNL A   1     -25.804  -1.032  30.057  0.00  0.00    -0.022 A 
ATOM     15  C   UNL A   1     -26.537  -1.039  31.217  0.00  0.00    -0.004 A 
ATOM     16  C   UNL A   1     -27.884  -0.953  31.186  0.00  0.00    -0.000 A 
ENDBRANCH  10  14
ENDBRANCH   1  10
TORSDOF 4
