REMARK  Name = No_2492-gen_results/8p0m/2024-11-27-11-27-31/
REMARK  4 active torsions:
REMARK  status: ('A' for Active; 'I' for Inactive)
REMARK    1  A    between atoms: C_2  and  C_8
REMARK    2  A    between atoms: C_4  and  C_14
REMARK    3  A    between atoms: C_24  and  C_25
REMARK    4  A    between atoms: N_26  and  C_33
REMARK                            x       y       z     vdW  Elec       q    Type
REMARK                         _______ _______ _______ _____ _____    ______ ____
ROOT
ATOM      1  C   UNL A   1     -28.027   1.651  25.469  0.00  0.00    +0.050 C 
ATOM      2  C   UNL A   1     -28.094   2.765  25.560  0.00  0.00    -0.005 A 
ATOM      3  C   UNL A   1     -27.976   0.895  24.229  0.00  0.00    +0.031 C 
ATOM      4  C   UNL A   1     -27.641   3.626  26.686  0.00  0.00    -0.003 A 
ATOM      5  C   UNL A   1     -28.274   4.861  26.983  0.00  0.00    -0.000 A 
ATOM      6  C   UNL A   1     -29.154   5.338  25.986  0.00  0.00    +0.001 A 
ATOM      7  C   UNL A   1     -29.643   4.568  24.988  0.00  0.00    +0.015 A 
ATOM      8  C   UNL A   1     -29.159   3.408  24.828  0.00  0.00    +0.050 A 
ATOM      9  N   UNL A   1     -29.638   2.682  23.778  0.00  0.00    -0.258 N 
ATOM     10  C   UNL A   1     -29.067   1.489  23.423  0.00  0.00    +0.099 C 
ATOM     11  C   UNL A   1     -30.763   3.055  22.960  0.00  0.00    +0.247 C 
ATOM     12  O   UNL A   1     -30.722   2.739  21.790  0.00  0.00    -0.273 OA
ENDROOT
BRANCH  11  13
ATOM     13  C   UNL A   1     -31.942   3.498  23.654  0.00  0.00    +0.168 C 
ATOM     14  N   UNL A   1     -32.919   3.963  22.997  0.00  0.00    -0.264 NA
ATOM     15  C   UNL A   1     -33.839   4.861  23.402  0.00  0.00    +0.073 C 
ATOM     16  C   UNL A   1     -33.875   5.039  24.816  0.00  0.00    +0.020 C 
ATOM     17  C   UNL A   1     -32.888   4.479  25.627  0.00  0.00    +0.036 C 
ATOM     18  C   UNL A   1     -31.883   3.769  25.080  0.00  0.00    +0.184 C 
ATOM     19  F   UNL A   1     -32.225   2.502  25.625  0.00  0.00    -0.235 F 
ATOM     20  C   UNL A   1     -33.455   4.078  26.981  0.00  0.00    +0.003 C 
BRANCH  14  21
ATOM     21  C   UNL A   1     -32.965   3.730  21.498  0.00  0.00    +0.073 C 
ATOM     22  C   UNL A   1     -33.684   2.681  21.111  0.00  0.00    +0.019 C 
ENDBRANCH  14  21
ENDBRANCH  11  13
BRANCH   1  26
ATOM     23  C   UNL A   1     -28.016  -0.814  28.878  0.00  0.00    +0.002 A 
ATOM     24  C   UNL A   1     -27.064  -0.119  28.608  0.00  0.00    -0.000 A 
ATOM     25  C   UNL A   1     -26.972   0.714  27.506  0.00  0.00    -0.002 A 
ATOM     26  C   UNL A   1     -28.105   0.774  26.642  0.00  0.00    +0.009 A 
ATOM     27  C   UNL A   1     -29.201   0.104  27.053  0.00  0.00    +0.136 A 
ATOM     28  C   UNL A   1     -29.210  -0.603  28.185  0.00  0.00    +0.029 A 
ATOM     29  F   UNL A   1     -30.281   0.216  26.291  0.00  0.00    -0.204 F 
BRANCH  24  30
ATOM     30  C   UNL A   1     -25.716  -0.214  29.408  0.00  0.00    -0.000 A 
ATOM     31  C   UNL A   1     -25.412  -1.024  30.056  0.00  0.00    -0.000 A 
ATOM     32  C   UNL A   1     -24.141  -1.141  30.837  0.00  0.00    -0.000 A 
ATOM     33  C   UNL A   1     -23.195  -0.135  30.661  0.00  0.00    +0.000 A 
ATOM     34  C   UNL A   1     -23.536   0.914  29.757  0.00  0.00    -0.000 A 
ATOM     35  C   UNL A   1     -24.809   0.944  29.084  0.00  0.00    -0.000 A 
ENDBRANCH  24  30
ENDBRANCH   1  26
TORSDOF 4
