REMARK  Name = No_2493-gen_results/8p0m/2024-11-27-11-27-31/
REMARK  1 active torsions:
REMARK  status: ('A' for Active; 'I' for Inactive)
REMARK    1  A    between atoms: C_2  and  C_5
REMARK                            x       y       z     vdW  Elec       q    Type
REMARK                         _______ _______ _______ _____ _____    ______ ____
ROOT
ATOM      1  C   UNL A   1     -28.016  -0.814  28.878  0.00  0.00    +0.007 A 
ATOM      2  C   UNL A   1     -28.469  -0.785  29.829  0.00  0.00    +0.080 A 
ATOM      3  C   UNL A   1     -27.087   0.290  28.638  0.00  0.00    +0.000 A 
ATOM      4  C   UNL A   1     -26.832   1.249  29.587  0.00  0.00    +0.000 A 
ATOM      5  C   UNL A   1     -27.496   1.130  30.822  0.00  0.00    +0.000 A 
ATOM      6  C   UNL A   1     -28.338   0.036  31.033  0.00  0.00    +0.007 A 
ENDROOT
BRANCH   2   7
ATOM      7  C   UNL A   1     -29.444  -1.948  30.184  0.00  0.00    +0.388 C 
ATOM      8  O   UNL A   1     -30.393  -1.834  29.864  0.00  0.00    -0.241 OA
ATOM      9  O   UNL A   1     -28.910  -3.004  30.838  0.00  0.00    -0.241 OA
ENDBRANCH   2   7
TORSDOF 1
