MODEL 2493
MODEL 1
REMARK VINA RESULT:    -5.422      0.000      0.000
REMARK INTER + INTRA:          -5.792
REMARK INTER:                  -5.739
REMARK INTRA:                  -0.053
REMARK UNBOUND:                -0.053
REMARK  Name = No_2493-gen_results/8p0m/2024-11-27-11-27-31/
REMARK  1 active torsions:
REMARK  status: ('A' for Active; 'I' for Inactive)
REMARK    1  A    between atoms: C_2  and  C_5
REMARK                            x       y       z     vdW  Elec       q    Type
REMARK                         _______ _______ _______ _____ _____    ______ ____
ROOT
ATOM      1  C   UNL A   1      -8.424 -10.518  18.431  0.00  0.00    +0.007 A 
ATOM      2  C   UNL A   1      -9.408 -10.167  18.294  0.00  0.00    +0.080 A 
ATOM      3  C   UNL A   1      -7.835 -10.127  19.712  0.00  0.00    +0.000 A 
ATOM      4  C   UNL A   1      -8.529  -9.388  20.639  0.00  0.00    +0.000 A 
ATOM      5  C   UNL A   1      -9.849  -9.021  20.317  0.00  0.00    +0.000 A 
ATOM      6  C   UNL A   1     -10.394  -9.454  19.107  0.00  0.00    +0.007 A 
ENDROOT
BRANCH   2   7
ATOM      7  C   UNL A   1     -10.126 -10.573  16.972  0.00  0.00    +0.388 C 
ATOM      8  O   UNL A   1      -9.524 -10.890  16.229  0.00  0.00    -0.241 OA
ATOM      9  O   UNL A   1     -11.476 -10.504  16.974  0.00  0.00    -0.241 OA
ENDBRANCH   2   7
TORSDOF 1
ENDMDL
ENDMDL
