REMARK  Name = outputs/IAG933/test6/raw/output_2494_IAG933_linker_design_.xyz
REMARK  10 active torsions:
REMARK  status: ('A' for Active; 'I' for Inactive)
REMARK    1  A    between atoms: C_1  and  C_2
REMARK    2  A    between atoms: C_1  and  C_8
REMARK    3  A    between atoms: C_1  and  C_41
REMARK    4  A    between atoms: C_13  and  C_29
REMARK    5  A    between atoms: C_14  and  C_15
REMARK    6  A    between atoms: C_21  and  O_22
REMARK    7  A    between atoms: O_22  and  C_23
REMARK    8  A    between atoms: C_23  and  C_24
REMARK    9  A    between atoms: N_31  and  C_41
REMARK   10  A    between atoms: C_36  and  C_41
REMARK                            x       y       z     vdW  Elec       q    Type
REMARK                         _______ _______ _______ _____ _____    ______ ____
ROOT
ATOM      1  N   UNL A   1     -23.675   1.416  25.526  0.00  0.00    -0.035 NA
ATOM      2  C   UNL A   1     -24.476   1.458  26.894  0.00  0.00    +0.133 C 
ATOM      3  C   UNL A   1     -23.180   0.816  28.840  0.00  0.00    +0.015 C 
ATOM      4  O   UNL A   1     -22.907   2.271  25.319  0.00  0.00    -0.066 OA
ATOM      5  C   UNL A   1     -21.585   1.754  27.063  0.00  0.00    +0.354 C 
ATOM      6  C   UNL A   1     -24.427   0.426  28.084  0.00  0.00    +0.044 C 
ATOM      7  C   UNL A   1     -22.101   0.615  27.787  0.00  0.00    +0.113 C 
ATOM      8  O   UNL A   1     -21.670   2.240  25.760  0.00  0.00    -0.277 OA
ATOM      9  O   UNL A   1     -20.790   2.185  27.765  0.00  0.00    -0.247 OA
ENDROOT
BRANCH   2  10
ATOM     10  C   UNL A   1     -25.688   1.614  26.461  0.00  0.00    +0.034 C 
ATOM     11  C   UNL A   1     -26.250   2.920  26.395  0.00  0.00    +0.074 C 
ATOM     12  C   UNL A   1     -27.438   3.091  25.645  0.00  0.00    +0.106 C 
ATOM     13  N   UNL A   1     -28.075   2.089  25.003  0.00  0.00    -0.208 NA
ATOM     14  C   UNL A   1     -27.543   0.849  25.079  0.00  0.00    +0.253 C 
ATOM     15  C   UNL A   1     -26.354   0.576  25.777  0.00  0.00    +0.191 C 
ATOM     16  F   UNL A   1     -25.860  -0.681  25.795  0.00  0.00    -0.200 F 
BRANCH  11  17
ATOM     17  C   UNL A   1     -25.642   4.093  27.123  0.00  0.00    +0.266 C 
ATOM     18  N   UNL A   1     -25.614   5.252  26.449  0.00  0.00    -0.200 NA
ATOM     19  C   UNL A   1     -25.026   6.479  26.963  0.00  0.00    +0.139 C 
ATOM     20  O   UNL A   1     -25.143   3.966  28.243  0.00  0.00    -0.268 OA
ENDBRANCH  11  17
BRANCH  14  21
ATOM     21  O   UNL A   1     -28.193  -0.208  24.477  0.00  0.00    -0.456 OA
BRANCH  21  22
ATOM     22  C   UNL A   1     -29.460   0.005  23.866  0.00  0.00    +0.243 C 
BRANCH  22  23
ATOM     23  C   UNL A   1     -30.065  -1.377  23.573  0.00  0.00    +0.229 C 
ATOM     24  O   UNL A   1     -30.729  -1.878  24.721  0.00  0.00    -0.216 OA
ENDBRANCH  22  23
ENDBRANCH  21  22
ENDBRANCH  14  21
ENDBRANCH   2  10
BRANCH   6  25
ATOM     25  C   UNL A   1     -25.549  -0.072  29.039  0.00  0.00    +0.102 C 
BRANCH  25  26
ATOM     26  N   UNL A   1     -26.387   1.107  29.258  0.00  0.00    -0.207 NA
ATOM     27  C   UNL A   1     -27.677   1.103  29.474  0.00  0.00    +0.242 C 
ATOM     28  C   UNL A   1     -28.350   2.429  29.722  0.00  0.00    +0.096 C 
ATOM     29  O   UNL A   1     -28.325   0.066  29.405  0.00  0.00    -0.273 OA
ENDBRANCH  25  26
BRANCH  25  30
ATOM     30  C   UNL A   1     -24.855  -1.012  30.143  0.00  0.00    +0.058 C 
BRANCH  30  31
ATOM     31  C   UNL A   1     -24.973  -2.505  29.788  0.00  0.00    -0.019 C 
ATOM     32  C   UNL A   1     -23.906  -3.173  29.146  0.00  0.00    -0.004 C 
ATOM     33  C   UNL A   1     -23.989  -4.549  28.853  0.00  0.00    -0.000 C 
ATOM     34  C   UNL A   1     -25.137  -5.280  29.205  0.00  0.00    -0.000 C 
ATOM     35  C   UNL A   1     -26.232  -4.611  29.784  0.00  0.00    -0.000 C 
ATOM     36  C   UNL A   1     -26.155  -3.232  30.065  0.00  0.00    -0.004 C 
ENDBRANCH  30  31
BRANCH  30  37
ATOM     37  C   UNL A   1     -25.387  -0.679  31.571  0.00  0.00    +0.079 C 
ATOM     38  C   UNL A   1     -25.189   0.773  32.028  0.00  0.00    +0.019 C 
ATOM     39  C   UNL A   1     -25.336   0.684  33.544  0.00  0.00    +0.020 C 
ATOM     40  C   UNL A   1     -24.829  -0.715  33.905  0.00  0.00    +0.089 C 
ATOM     41  N   UNL A   1     -24.758  -1.481  32.646  0.00  0.00    -0.219 NA
ENDBRANCH  30  37
ENDBRANCH  25  30
ENDBRANCH   6  25
TORSDOF 10
