MODEL 2494
MODEL 1
REMARK VINA RESULT:    -5.697      0.000      0.000
REMARK INTER + INTRA:          -5.697
REMARK INTER:                  -5.697
REMARK INTRA:                   0.000
REMARK UNBOUND:                 0.000
REMARK  Name = No_2494-gen_results/8p0m/2024-11-27-11-27-31/
REMARK  0 active torsions:
REMARK  status: ('A' for Active; 'I' for Inactive)
REMARK                            x       y       z     vdW  Elec       q    Type
REMARK                         _______ _______ _______ _____ _____    ______ ____
ROOT
ATOM      1  C   UNL A   1     -24.148  -4.311  28.913  0.00  0.00    -0.000 A 
ATOM      2  C   UNL A   1     -24.306  -3.124  29.082  0.00  0.00    -0.000 A 
ATOM      3  C   UNL A   1     -23.295  -2.192  28.947  0.00  0.00    -0.004 A 
ATOM      4  C   UNL A   1     -23.330  -0.990  29.651  0.00  0.00    -0.022 A 
ATOM      5  C   UNL A   1     -22.339   0.012  29.656  0.00  0.00    +0.031 C 
ATOM      6  C   UNL A   1     -25.309  -5.207  29.070  0.00  0.00    -0.000 A 
ATOM      7  C   UNL A   1     -26.472  -4.734  29.699  0.00  0.00    -0.000 A 
ATOM      8  C   UNL A   1     -26.573  -3.425  30.076  0.00  0.00    -0.000 A 
ATOM      9  C   UNL A   1     -25.437  -2.569  29.820  0.00  0.00    -0.000 A 
ATOM     10  C   UNL A   1     -24.659  -0.468  30.078  0.00  0.00    -0.004 A 
ATOM     11  C   UNL A   1     -25.615  -1.257  30.283  0.00  0.00    -0.000 A 
ENDROOT
TORSDOF 0
ENDMDL
ENDMDL
