MODEL 2495
MODEL 1
REMARK VINA RESULT:    -5.360      0.000      0.000
REMARK INTER + INTRA:          -5.723
REMARK INTER:                  -5.673
REMARK INTRA:                  -0.049
REMARK UNBOUND:                -0.049
REMARK  Name = No_2495-gen_results/8p0m/2024-11-27-11-27-31/
REMARK  1 active torsions:
REMARK  status: ('A' for Active; 'I' for Inactive)
REMARK    1  A    between atoms: C_5  and  C_6
REMARK                            x       y       z     vdW  Elec       q    Type
REMARK                         _______ _______ _______ _____ _____    ______ ____
ROOT
ATOM      1 CL   UNL A   1     -30.586 -10.022  29.292  0.00  0.00    -0.080 Cl
ATOM      2  C   UNL A   1     -29.885 -10.580  30.422  0.00  0.00    +0.085 A 
ATOM      3  C   UNL A   1     -29.955  -9.987  31.674  0.00  0.00    +0.014 A 
ATOM      4  C   UNL A   1     -29.098 -10.318  32.748  0.00  0.00    +0.006 A 
ATOM      5  C   UNL A   1     -28.143 -11.301  32.609  0.00  0.00    +0.059 A 
ATOM      6  C   UNL A   1     -27.998 -11.999  31.372  0.00  0.00    +0.035 A 
ATOM      7  C   UNL A   1     -28.794 -11.551  30.309  0.00  0.00    +0.151 A 
ATOM      8  F   UNL A   1     -28.634 -12.128  29.111  0.00  0.00    -0.203 F 
ENDROOT
BRANCH   5   9
ATOM      9  C   UNL A   1     -27.214 -11.677  33.650  0.00  0.00    +0.284 C 
ATOM     10  N   UNL A   1     -26.937 -10.697  34.616  0.00  0.00    -0.084 NA
ATOM     11  O   UNL A   1     -26.802 -12.821  33.799  0.00  0.00    -0.267 OA
ENDBRANCH   5   9
TORSDOF 1
ENDMDL
ENDMDL
