REMARK  Name = No_2496-gen_results/8p0m/2024-11-27-11-27-31/
REMARK  4 active torsions:
REMARK  status: ('A' for Active; 'I' for Inactive)
REMARK    1  A    between atoms: C_1  and  C_2
REMARK    2  A    between atoms: C_5  and  C_11
REMARK    3  A    between atoms: N_8  and  C_10
REMARK    4  A    between atoms: N_18  and  C_22
REMARK                            x       y       z     vdW  Elec       q    Type
REMARK                         _______ _______ _______ _____ _____    ______ ____
ROOT
ATOM      1  C   UNL A   1     -28.994  -2.432  30.574  0.00  0.00    +0.102 C 
ATOM      2  C   UNL A   1     -28.802  -3.788  30.287  0.00  0.00    +0.054 C 
ATOM      3  C   UNL A   1     -30.023  -4.566  30.086  0.00  0.00    +0.136 C 
ATOM      4 BR   UNL A   1     -30.849  -5.137  29.071  0.00  0.00    -0.059 Br
ATOM      5  N   UNL A   1     -30.378  -4.953  31.574  0.00  0.00    -0.278 N 
ATOM      6  C   UNL A   1     -30.750  -4.096  32.407  0.00  0.00    +0.061 C 
ATOM      7  C   UNL A   1     -29.917  -1.851  31.422  0.00  0.00    +0.049 C 
ATOM      8  C   UNL A   1     -30.324  -2.746  32.578  0.00  0.00    -0.008 C 
ENDROOT
BRANCH   5   9
ATOM      9  C   UNL A   1     -30.258  -6.372  31.838  0.00  0.00    +0.052 A 
ATOM     10  C   UNL A   1     -29.892  -6.711  33.070  0.00  0.00    +0.015 A 
ATOM     11  C   UNL A   1     -30.631  -7.414  33.707  0.00  0.00    +0.001 A 
ATOM     12  C   UNL A   1     -31.491  -8.412  33.052  0.00  0.00    +0.000 A 
ATOM     13  C   UNL A   1     -31.727  -8.145  31.674  0.00  0.00    +0.001 A 
ATOM     14  C   UNL A   1     -31.154  -7.179  31.182  0.00  0.00    +0.015 A 
ENDBRANCH   5   9
BRANCH   1  16
ATOM     15  C   UNL A   1     -28.016  -0.814  28.878  0.00  0.00    +0.265 C 
ATOM     16  N   UNL A   1     -27.887  -1.555  30.033  0.00  0.00    -0.203 NA
ATOM     17  O   UNL A   1     -29.169  -0.632  28.489  0.00  0.00    -0.268 OA
BRANCH  15  18
ATOM     18  C   UNL A   1     -27.064  -0.119  28.608  0.00  0.00    +0.055 A 
ATOM     19  C   UNL A   1     -27.001   0.691  27.491  0.00  0.00    +0.004 A 
ATOM     20  C   UNL A   1     -25.855   1.482  27.083  0.00  0.00    +0.004 A 
ATOM     21  C   UNL A   1     -24.901   1.389  27.592  0.00  0.00    +0.071 A 
ATOM     22  C   UNL A   1     -24.678   0.576  28.830  0.00  0.00    +0.004 A 
ATOM     23  C   UNL A   1     -25.770  -0.205  29.280  0.00  0.00    +0.004 A 
BRANCH  21  24
ATOM     24  C   UNL A   1     -23.758   2.349  27.220  0.00  0.00    +0.419 C 
ATOM     25  F   UNL A   1     -22.982   2.644  28.174  0.00  0.00    -0.166 F 
ATOM     26  F   UNL A   1     -24.154   3.485  26.769  0.00  0.00    -0.166 F 
ATOM     27  F   UNL A   1     -22.951   1.763  26.272  0.00  0.00    -0.166 F 
ENDBRANCH  21  24
ENDBRANCH  15  18
ENDBRANCH   1  16
TORSDOF 4
