MODEL 2496
MODEL 1
REMARK VINA RESULT:    -7.360      0.000      0.000
REMARK INTER + INTRA:         -10.104
REMARK INTER:                  -9.081
REMARK INTRA:                  -1.024
REMARK UNBOUND:                -1.024
REMARK  Name = No_2496-gen_results/8p0m/2024-11-27-11-27-31/
REMARK  4 active torsions:
REMARK  status: ('A' for Active; 'I' for Inactive)
REMARK    1  A    between atoms: C_1  and  C_2
REMARK    2  A    between atoms: C_5  and  C_11
REMARK    3  A    between atoms: N_8  and  C_10
REMARK    4  A    between atoms: N_18  and  C_22
REMARK                            x       y       z     vdW  Elec       q    Type
REMARK                         _______ _______ _______ _____ _____    ______ ____
ROOT
ATOM      1  C   UNL A   1      -9.652   1.914  34.351  0.00  0.00    +0.102 C 
ATOM      2  C   UNL A   1     -10.752   1.207  34.847  0.00  0.00    +0.054 C 
ATOM      3  C   UNL A   1     -12.051   1.613  34.314  0.00  0.00    +0.136 C 
ATOM      4 BR   UNL A   1     -13.058   1.238  33.374  0.00  0.00    -0.059 Br
ATOM      5  N   UNL A   1     -12.410   2.808  35.281  0.00  0.00    -0.278 N 
ATOM      6  C   UNL A   1     -11.773   3.885  35.262  0.00  0.00    +0.061 C 
ATOM      7  C   UNL A   1      -9.525   3.273  34.131  0.00  0.00    +0.049 C 
ATOM      8  C   UNL A   1     -10.381   4.117  35.057  0.00  0.00    -0.008 C 
ENDROOT
BRANCH   5   9
ATOM      9  C   UNL A   1     -13.545   2.528  36.136  0.00  0.00    +0.052 A 
ATOM     10  C   UNL A   1     -13.269   2.267  37.410  0.00  0.00    +0.015 A 
ATOM     11  C   UNL A   1     -13.759   2.973  38.251  0.00  0.00    +0.001 A 
ATOM     12  C   UNL A   1     -15.072   3.606  38.050  0.00  0.00    +0.000 A 
ATOM     13  C   UNL A   1     -15.450   3.712  36.681  0.00  0.00    +0.001 A 
ATOM     14  C   UNL A   1     -14.694   3.222  35.850  0.00  0.00    +0.015 A 
ENDBRANCH   5   9
BRANCH   1  16
ATOM     15  C   UNL A   1      -7.379   1.152  35.191  0.00  0.00    +0.265 C 
ATOM     16  N   UNL A   1      -8.400   1.070  34.268  0.00  0.00    -0.203 NA
ATOM     17  O   UNL A   1      -7.669   1.691  36.258  0.00  0.00    -0.268 OA
BRANCH  15  18
ATOM     18  C   UNL A   1      -6.472   0.371  35.020  0.00  0.00    +0.055 A 
ATOM     19  C   UNL A   1      -5.149   0.750  34.900  0.00  0.00    +0.004 A 
ATOM     20  C   UNL A   1      -4.037  -0.138  34.618  0.00  0.00    +0.004 A 
ATOM     21  C   UNL A   1      -4.204  -1.179  34.361  0.00  0.00    +0.071 A 
ATOM     22  C   UNL A   1      -5.538  -1.859  34.403  0.00  0.00    +0.004 A 
ATOM     23  C   UNL A   1      -6.657  -1.039  34.688  0.00  0.00    +0.004 A 
BRANCH  21  24
ATOM     24  C   UNL A   1      -2.992  -2.116  34.212  0.00  0.00    +0.419 C 
ATOM     25  F   UNL A   1      -2.608  -2.661  35.287  0.00  0.00    -0.166 F 
ATOM     26  F   UNL A   1      -1.939  -1.542  33.753  0.00  0.00    -0.166 F 
ATOM     27  F   UNL A   1      -3.315  -3.162  33.378  0.00  0.00    -0.166 F 
ENDBRANCH  21  24
ENDBRANCH  15  18
ENDBRANCH   1  16
TORSDOF 4
ENDMDL
ENDMDL
