REMARK  Name = outputs/IAG933/test6/raw/output_2497_IAG933_linker_design_.xyz
REMARK  10 active torsions:
REMARK  status: ('A' for Active; 'I' for Inactive)
REMARK    1  A    between atoms: C_1  and  C_2
REMARK    2  A    between atoms: C_1  and  C_8
REMARK    3  A    between atoms: C_1  and  N_34
REMARK    4  A    between atoms: C_13  and  C_29
REMARK    5  A    between atoms: C_14  and  C_15
REMARK    6  A    between atoms: C_21  and  O_22
REMARK    7  A    between atoms: O_22  and  C_23
REMARK    8  A    between atoms: C_23  and  C_24
REMARK    9  A    between atoms: N_28  and  C_39
REMARK   10  A    between atoms: C_37  and  C_39
REMARK                            x       y       z     vdW  Elec       q    Type
REMARK                         _______ _______ _______ _____ _____    ______ ____
ROOT
ATOM      1  C   UNL A   1     -24.911   1.182  27.482  0.00  0.00    +0.014 C 
ATOM      2 CL   UNL A   1     -22.551   2.000  25.946  0.00  0.00    -0.086 Cl
ATOM      3  C   UNL A   1     -23.346   1.208  27.203  0.00  0.00    +0.052 C 
ATOM      4  C   UNL A   1     -21.441   0.770  28.494  0.00  0.00    +0.027 C 
ATOM      5  N   UNL A   1     -24.251  -0.027  29.223  0.00  0.00    -0.295 N 
ATOM      6  C   UNL A   1     -26.710   0.225  28.850  0.00  0.00    -0.090 C 
ATOM      7  C   UNL A   1     -27.778  -0.475  28.831  0.00  0.00    +0.034 C 
ATOM      8  C   UNL A   1     -25.295   0.509  28.567  0.00  0.00    +0.080 C 
ATOM      9  C   UNL A   1     -22.928   0.280  28.347  0.00  0.00    +0.106 C 
ENDROOT
BRANCH   1  10
ATOM     10  C   UNL A   1     -25.688   1.614  26.461  0.00  0.00    +0.095 C 
ATOM     11  C   UNL A   1     -26.250   2.920  26.395  0.00  0.00    +0.059 C 
ATOM     12  C   UNL A   1     -27.438   3.091  25.645  0.00  0.00    +0.102 C 
ATOM     13  N   UNL A   1     -28.075   2.089  25.003  0.00  0.00    -0.212 NA
ATOM     14  C   UNL A   1     -27.543   0.849  25.079  0.00  0.00    +0.234 C 
ATOM     15  C   UNL A   1     -26.354   0.576  25.777  0.00  0.00    +0.244 C 
ATOM     16  F   UNL A   1     -25.860  -0.681  25.795  0.00  0.00    -0.227 F 
BRANCH  11  17
ATOM     17  C   UNL A   1     -25.642   4.093  27.123  0.00  0.00    +0.263 C 
ATOM     18  N   UNL A   1     -25.614   5.252  26.449  0.00  0.00    -0.200 NA
ATOM     19  C   UNL A   1     -25.026   6.479  26.963  0.00  0.00    +0.139 C 
ATOM     20  O   UNL A   1     -25.143   3.966  28.243  0.00  0.00    -0.269 OA
ENDBRANCH  11  17
BRANCH  14  21
ATOM     21  O   UNL A   1     -28.193  -0.208  24.477  0.00  0.00    -0.459 OA
BRANCH  21  22
ATOM     22  C   UNL A   1     -29.460   0.005  23.866  0.00  0.00    +0.242 C 
BRANCH  22  23
ATOM     23  C   UNL A   1     -30.065  -1.377  23.573  0.00  0.00    +0.229 C 
ATOM     24  O   UNL A   1     -30.729  -1.878  24.721  0.00  0.00    -0.216 OA
ENDBRANCH  22  23
ENDBRANCH  21  22
ENDBRANCH  14  21
ENDBRANCH   1  10
BRANCH   5  25
ATOM     25  C   UNL A   1     -24.855  -1.012  30.143  0.00  0.00    +0.112 C 
BRANCH  25  26
ATOM     26  C   UNL A   1     -24.973  -2.505  29.788  0.00  0.00    -0.003 C 
ATOM     27  C   UNL A   1     -23.906  -3.173  29.146  0.00  0.00    -0.003 C 
ATOM     28  C   UNL A   1     -23.989  -4.549  28.853  0.00  0.00    -0.000 C 
ATOM     29  C   UNL A   1     -25.137  -5.280  29.205  0.00  0.00    -0.000 C 
ATOM     30  C   UNL A   1     -26.232  -4.611  29.784  0.00  0.00    -0.000 C 
ATOM     31  C   UNL A   1     -26.155  -3.232  30.065  0.00  0.00    -0.003 C 
ENDBRANCH  25  26
BRANCH  25  32
ATOM     32  C   UNL A   1     -25.387  -0.679  31.571  0.00  0.00    +0.095 C 
ATOM     33  C   UNL A   1     -25.189   0.773  32.028  0.00  0.00    +0.021 C 
ATOM     34  C   UNL A   1     -25.336   0.684  33.544  0.00  0.00    +0.020 C 
ATOM     35  C   UNL A   1     -24.829  -0.715  33.905  0.00  0.00    +0.089 C 
ATOM     36  N   UNL A   1     -24.758  -1.481  32.646  0.00  0.00    -0.217 NA
ENDBRANCH  25  32
ENDBRANCH   5  25
BRANCH   7  37
ATOM     37  C   UNL A   1     -29.128  -0.108  28.109  0.00  0.00    +0.107 C 
BRANCH  37  38
ATOM     38  N   UNL A   1     -29.835   0.683  29.171  0.00  0.00    -0.264 NA
ATOM     39  C   UNL A   1     -29.439   2.129  28.941  0.00  0.00    +0.105 C 
ATOM     40  C   UNL A   1     -31.227   0.195  28.864  0.00  0.00    +0.105 C 
ATOM     41  C   UNL A   1     -31.666   0.882  27.529  0.00  0.00    +0.160 C 
ATOM     42  C   UNL A   1     -30.690   2.951  28.445  0.00  0.00    +0.160 C 
ATOM     43  O   UNL A   1     -31.685   2.278  27.755  0.00  0.00    -0.351 OA
ENDBRANCH  37  38
ENDBRANCH   7  37
TORSDOF 10
