MODEL 2497
MODEL 1
REMARK VINA RESULT:    -4.708      0.000      0.000
REMARK INTER + INTRA:          -5.029
REMARK INTER:                  -4.984
REMARK INTRA:                  -0.046
REMARK UNBOUND:                -0.046
REMARK  Name = No_2497-gen_results/8p0m/2024-11-27-11-27-31/
REMARK  1 active torsions:
REMARK  status: ('A' for Active; 'I' for Inactive)
REMARK    1  A    between atoms: C_4  and  N_8
REMARK                            x       y       z     vdW  Elec       q    Type
REMARK                         _______ _______ _______ _____ _____    ______ ____
ROOT
ATOM      1  O   UNL A   1     -10.280 -10.502  16.662  0.00  0.00    -0.249 OA
ATOM      2  C   UNL A   1      -9.784 -10.203  17.754  0.00  0.00    +0.341 C 
ATOM      3  N   UNL A   1      -8.851 -10.530  18.308  0.00  0.00    -0.165 NA
ATOM      4  C   UNL A   1      -8.269  -9.963  19.554  0.00  0.00    +0.201 C 
ATOM      5  N   UNL A   1     -10.701  -9.394  18.633  0.00  0.00    -0.187 NA
ATOM      6  C   UNL A   1      -9.169  -9.221  20.241  0.00  0.00    +0.070 C 
ATOM      7  C   UNL A   1     -10.358  -8.882  19.730  0.00  0.00    +0.121 C 
ENDROOT
BRANCH   4   8
ATOM      8  N   UNL A   1      -7.117 -10.064  20.113  0.00  0.00    -0.247 NA
ATOM      9  C   UNL A   1      -7.030 -10.107  21.411  0.00  0.00    +0.115 C 
ENDBRANCH   4   8
TORSDOF 1
ENDMDL
ENDMDL
