MODEL 2498
MODEL 1
REMARK VINA RESULT:    -5.014      0.000      0.000
REMARK INTER + INTRA:          -5.780
REMARK INTER:                  -5.600
REMARK INTRA:                  -0.180
REMARK UNBOUND:                -0.180
REMARK  Name = No_2498-gen_results/8p0m/2024-11-27-11-27-31/
REMARK  2 active torsions:
REMARK  status: ('A' for Active; 'I' for Inactive)
REMARK    1  A    between atoms: C_2  and  C_5
REMARK    2  A    between atoms: C_5  and  C_9
REMARK                            x       y       z     vdW  Elec       q    Type
REMARK                         _______ _______ _______ _____ _____    ______ ____
ROOT
ATOM      1  C   UNL A   1     -23.943  -3.504  28.543  0.00  0.00    -0.004 A 
ATOM      2  C   UNL A   1     -24.247  -2.688  29.137  0.00  0.00    -0.021 A 
ATOM      3  C   UNL A   1     -24.428  -4.860  29.003  0.00  0.00    -0.000 A 
ATOM      4  C   UNL A   1     -25.782  -5.015  29.258  0.00  0.00    -0.000 A 
ATOM      5  C   UNL A   1     -26.394  -3.880  29.909  0.00  0.00    -0.000 A 
ATOM      6  C   UNL A   1     -25.685  -2.590  29.763  0.00  0.00    -0.004 A 
ENDROOT
BRANCH   2   7
ATOM      7  C   UNL A   1     -23.704  -1.325  28.845  0.00  0.00    +0.039 C 
ATOM      8  C   UNL A   1     -24.321  -0.465  27.958  0.00  0.00    +0.006 C 
BRANCH   7   9
ATOM      9  C   UNL A   1     -22.576  -0.941  29.546  0.00  0.00    +0.099 C 
ATOM     10 CL   UNL A   1     -21.252  -0.434  28.811  0.00  0.00    -0.113 Cl
ENDBRANCH   7   9
ENDBRANCH   2   7
TORSDOF 2
ENDMDL
ENDMDL
