REMARK  Name = outputs/IAG933/test6/raw/output_2498_IAG933_linker_design_.xyz
REMARK  9 active torsions:
REMARK  status: ('A' for Active; 'I' for Inactive)
REMARK    1  A    between atoms: C_1  and  C_2
REMARK    2  A    between atoms: C_13  and  C_45
REMARK    3  A    between atoms: C_14  and  C_15
REMARK    4  A    between atoms: C_21  and  O_22
REMARK    5  A    between atoms: O_22  and  C_23
REMARK    6  A    between atoms: C_23  and  C_24
REMARK    7  A    between atoms: C_31  and  N_34
REMARK    8  A    between atoms: C_31  and  C_40
REMARK    9  A    between atoms: N_34  and  C_38
REMARK                            x       y       z     vdW  Elec       q    Type
REMARK                         _______ _______ _______ _____ _____    ______ ____
ROOT
ATOM      1  C   UNL A   1     -24.855  -1.012  30.143  0.00  0.00    +0.094 C 
ATOM      2  C   UNL A   1     -25.387  -0.679  31.571  0.00  0.00    +0.084 C 
ATOM      3  C   UNL A   1     -25.189   0.773  32.028  0.00  0.00    +0.048 C 
ATOM      4  C   UNL A   1     -25.336   0.684  33.544  0.00  0.00    +0.023 C 
ATOM      5  C   UNL A   1     -24.829  -0.715  33.905  0.00  0.00    +0.089 C 
ATOM      6  N   UNL A   1     -24.758  -1.481  32.646  0.00  0.00    -0.219 NA
ATOM      7  C   UNL A   1     -23.251   2.327  25.729  0.00  0.00    +0.175 C 
ATOM      8  C   UNL A   1     -22.086   1.206  27.379  0.00  0.00    +0.126 C 
ATOM      9  C   UNL A   1     -20.897   0.644  28.102  0.00  0.00    +0.096 C 
ATOM     10  C   UNL A   1     -21.377  -0.421  29.092  0.00  0.00    +0.153 C 
ATOM     11  C   UNL A   1     -23.460   0.923  27.792  0.00  0.00    +0.059 C 
ATOM     12  C   UNL A   1     -25.007   1.613  30.685  0.00  0.00    +0.153 C 
ATOM     13  O   UNL A   1     -21.975   2.034  26.290  0.00  0.00    -0.455 OA
ATOM     14  O   UNL A   1     -22.503  -0.098  29.889  0.00  0.00    -0.330 OA
ATOM     15  O   UNL A   1     -25.084   1.280  29.144  0.00  0.00    -0.330 OA
ATOM     16  C   UNL A   1     -23.924   0.132  29.073  0.00  0.00    +0.214 C 
ATOM     17  C   UNL A   1     -24.231   1.577  26.700  0.00  0.00    +0.026 C 
ENDROOT
BRANCH  17  18
ATOM     18  C   UNL A   1     -25.688   1.614  26.461  0.00  0.00    +0.095 C 
ATOM     19  C   UNL A   1     -26.250   2.920  26.395  0.00  0.00    +0.059 C 
ATOM     20  C   UNL A   1     -27.438   3.091  25.645  0.00  0.00    +0.102 C 
ATOM     21  N   UNL A   1     -28.075   2.089  25.003  0.00  0.00    -0.212 NA
ATOM     22  C   UNL A   1     -27.543   0.849  25.079  0.00  0.00    +0.234 C 
ATOM     23  C   UNL A   1     -26.354   0.576  25.777  0.00  0.00    +0.244 C 
ATOM     24  F   UNL A   1     -25.860  -0.681  25.795  0.00  0.00    -0.227 F 
BRANCH  19  25
ATOM     25  C   UNL A   1     -25.642   4.093  27.123  0.00  0.00    +0.263 C 
ATOM     26  N   UNL A   1     -25.614   5.252  26.449  0.00  0.00    -0.200 NA
ATOM     27  C   UNL A   1     -25.026   6.479  26.963  0.00  0.00    +0.139 C 
ATOM     28  O   UNL A   1     -25.143   3.966  28.243  0.00  0.00    -0.269 OA
ENDBRANCH  19  25
BRANCH  22  29
ATOM     29  O   UNL A   1     -28.193  -0.208  24.477  0.00  0.00    -0.459 OA
BRANCH  29  30
ATOM     30  C   UNL A   1     -29.460   0.005  23.866  0.00  0.00    +0.242 C 
BRANCH  30  31
ATOM     31  C   UNL A   1     -30.065  -1.377  23.573  0.00  0.00    +0.229 C 
ATOM     32  O   UNL A   1     -30.729  -1.878  24.721  0.00  0.00    -0.216 OA
ENDBRANCH  30  31
ENDBRANCH  29  30
ENDBRANCH  22  29
ENDBRANCH  17  18
BRANCH   1  33
ATOM     33  C   UNL A   1     -24.973  -2.505  29.788  0.00  0.00    -0.016 C 
ATOM     34  C   UNL A   1     -23.906  -3.173  29.146  0.00  0.00    -0.004 C 
ATOM     35  C   UNL A   1     -23.989  -4.549  28.853  0.00  0.00    -0.000 C 
ATOM     36  C   UNL A   1     -25.137  -5.280  29.205  0.00  0.00    -0.000 C 
ATOM     37  C   UNL A   1     -26.232  -4.611  29.784  0.00  0.00    -0.000 C 
ATOM     38  C   UNL A   1     -26.155  -3.232  30.065  0.00  0.00    -0.004 C 
ENDBRANCH   1  33
BRANCH  12  39
ATOM     39  C   UNL A   1     -25.767   3.092  31.367  0.00  0.00    +0.199 C 
ATOM     40  N   UNL A   1     -27.173   3.062  30.981  0.00  0.00    -0.111 NA
BRANCH  39  41
ATOM     41  N   UNL A   1     -25.713   3.594  32.685  0.00  0.00    -0.110 NA
BRANCH  41  45
ATOM     42  F   UNL A   1     -24.919   5.403  31.794  0.00  0.00    -0.154 F 
ATOM     43  F   UNL A   1     -25.210   5.854  33.581  0.00  0.00    -0.154 F 
ATOM     44  F   UNL A   1     -26.980   5.433  32.584  0.00  0.00    -0.154 F 
ATOM     45  C   UNL A   1     -25.707   5.072  32.710  0.00  0.00    +0.477 C 
ENDBRANCH  41  45
ENDBRANCH  39  41
ENDBRANCH  12  39
TORSDOF 9
