MODEL 2499
MODEL 1
REMARK VINA RESULT:    -4.265      0.000      0.000
REMARK INTER + INTRA:          -4.265
REMARK INTER:                  -4.265
REMARK INTRA:                   0.000
REMARK UNBOUND:                 0.000
REMARK  Name = No_2499-gen_results/8p0m/2024-11-27-11-27-31/
REMARK  0 active torsions:
REMARK  status: ('A' for Active; 'I' for Inactive)
REMARK                            x       y       z     vdW  Elec       q    Type
REMARK                         _______ _______ _______ _____ _____    ______ ____
ROOT
ATOM      1  C   UNL A   1     -26.062  -4.818  29.654  0.00  0.00    +0.000 A 
ATOM      2  C   UNL A   1     -26.210  -3.619  29.714  0.00  0.00    +0.000 A 
ATOM      3  C   UNL A   1     -25.247  -2.710  29.323  0.00  0.00    +0.000 A 
ATOM      4  C   UNL A   1     -24.031  -3.216  28.784  0.00  0.00    +0.000 A 
ATOM      5  C   UNL A   1     -23.982  -4.553  28.580  0.00  0.00    +0.000 A 
ATOM      6  C   UNL A   1     -24.971  -5.345  28.949  0.00  0.00    +0.000 A 
ENDROOT
TORSDOF 0
ENDMDL
ENDMDL
