REMARK  Name = No_250-gen_results/8p0m/2024-11-27-11-27-31/
REMARK  3 active torsions:
REMARK  status: ('A' for Active; 'I' for Inactive)
REMARK    1  A    between atoms: C_4  and  C_8
REMARK    2  A    between atoms: C_8  and  C_9
REMARK    3  A    between atoms: C_13  and  C_15
REMARK                            x       y       z     vdW  Elec       q    Type
REMARK                         _______ _______ _______ _____ _____    ______ ____
ROOT
ATOM      1  C   UNL A   1     -24.370  -0.821  30.139  0.00  0.00    +0.038 C 
ATOM      2  C   UNL A   1     -23.944  -0.256  31.489  0.00  0.00    +0.009 C 
ATOM      3  C   UNL A   1     -24.045  -2.451  30.094  0.00  0.00    +0.009 C 
ENDROOT
BRANCH   1   7
ATOM      4  C   UNL A   1     -28.016  -0.814  28.878  0.00  0.00    +0.011 A 
ATOM      5  C   UNL A   1     -28.469  -0.785  29.829  0.00  0.00    +0.058 A 
ATOM      6  C   UNL A   1     -26.504  -0.778  28.877  0.00  0.00    -0.003 A 
ATOM      7  C   UNL A   1     -25.810  -0.853  30.103  0.00  0.00    -0.019 A 
ATOM      8  C   UNL A   1     -27.991  -0.892  31.226  0.00  0.00    +0.011 A 
ATOM      9  C   UNL A   1     -26.604  -0.868  31.265  0.00  0.00    -0.003 A 
ATOM     10 CL   UNL A   1     -30.294  -0.838  29.835  0.00  0.00    -0.082 Cl
ENDBRANCH   1   7
BRANCH   1  11
ATOM     11  C   UNL A   1     -23.632  -0.359  29.100  0.00  0.00    -0.019 A 
ATOM     12  C   UNL A   1     -22.224  -0.344  29.207  0.00  0.00    -0.004 A 
ATOM     13  C   UNL A   1     -21.445   0.193  28.151  0.00  0.00    -0.000 A 
ATOM     14  C   UNL A   1     -22.044   1.162  27.308  0.00  0.00    +0.004 A 
ATOM     15  C   UNL A   1     -23.448   1.345  27.363  0.00  0.00    +0.071 A 
ATOM     16  C   UNL A   1     -24.230   0.711  28.320  0.00  0.00    -0.000 A 
BRANCH  15  17
ATOM     17  C   UNL A   1     -23.971   2.384  26.445  0.00  0.00    +0.419 C 
ATOM     18  F   UNL A   1     -24.724   3.054  26.766  0.00  0.00    -0.166 F 
ATOM     19  F   UNL A   1     -24.354   1.598  25.331  0.00  0.00    -0.166 F 
ATOM     20  F   UNL A   1     -22.891   3.019  25.763  0.00  0.00    -0.166 F 
ENDBRANCH  15  17
ENDBRANCH   1  11
TORSDOF 3
