MODEL 2501
MODEL 1
REMARK VINA RESULT:    -5.022      0.000      0.000
REMARK INTER + INTRA:          -5.819
REMARK INTER:                  -5.609
REMARK INTRA:                  -0.209
REMARK UNBOUND:                -0.209
REMARK  Name = No_2501-gen_results/8p0m/2024-11-27-11-27-31/
REMARK  2 active torsions:
REMARK  status: ('A' for Active; 'I' for Inactive)
REMARK    1  A    between atoms: C_1  and  C_2
REMARK    2  A    between atoms: C_1  and  C_8
REMARK                            x       y       z     vdW  Elec       q    Type
REMARK                         _______ _______ _______ _____ _____    ______ ____
ROOT
ATOM      1  C   UNL A   1     -24.603  -2.433  29.029  0.00  0.00    -0.017 A 
ATOM      2  C   UNL A   1     -25.812  -2.819  29.583  0.00  0.00    -0.004 A 
ATOM      3  C   UNL A   1     -26.293  -4.172  29.725  0.00  0.00    -0.000 A 
ATOM      4  C   UNL A   1     -25.480  -5.232  29.259  0.00  0.00    -0.000 A 
ATOM      5  C   UNL A   1     -24.228  -4.904  28.676  0.00  0.00    -0.000 A 
ATOM      6  C   UNL A   1     -23.849  -3.599  28.613  0.00  0.00    -0.004 A 
ENDROOT
BRANCH   1   7
ATOM      7  C   UNL A   1     -24.189  -1.298  28.982  0.00  0.00    +0.099 C 
BRANCH   7   8
ATOM      8  C   UNL A   1     -22.722  -1.032  29.118  0.00  0.00    +0.323 C 
ATOM      9  F   UNL A   1     -22.189  -0.097  28.406  0.00  0.00    -0.198 F 
ATOM     10  F   UNL A   1     -22.357  -0.771  30.411  0.00  0.00    -0.198 F 
ENDBRANCH   7   8
ENDBRANCH   1   7
TORSDOF 2
ENDMDL
ENDMDL
