REMARK  Name = outputs/IAG933/test6/raw/output_2502_IAG933_linker_design_.xyz
REMARK  16 active torsions:
REMARK  status: ('A' for Active; 'I' for Inactive)
REMARK    1  A    between atoms: C_1  and  C_2
REMARK    2  A    between atoms: C_1  and  C_8
REMARK    3  A    between atoms: C_1  and  C_39
REMARK    4  A    between atoms: C_13  and  C_40
REMARK    5  A    between atoms: C_14  and  C_15
REMARK    6  A    between atoms: C_21  and  O_22
REMARK    7  A    between atoms: O_22  and  C_23
REMARK    8  A    between atoms: C_23  and  C_24
REMARK    9  A    between atoms: C_24  and  O_25
REMARK   10  A    between atoms: O_25  and  C_44
REMARK   11  A    between atoms: C_30  and  C_36
REMARK   12  A    between atoms: C_30  and  C_38
REMARK   13  A    between atoms: C_31  and  C_38
REMARK   14  A    between atoms: C_31  and  C_44
REMARK   15  A    between atoms: C_35  and  C_36
REMARK   16  A    between atoms: C_36  and  C_42
REMARK                            x       y       z     vdW  Elec       q    Type
REMARK                         _______ _______ _______ _____ _____    ______ ____
ROOT
ATOM      1  C   UNL A   1     -25.688   1.614  26.461  0.00  0.00    +0.112 C 
ATOM      2  C   UNL A   1     -26.250   2.920  26.395  0.00  0.00    +0.060 C 
ATOM      3  C   UNL A   1     -27.438   3.091  25.645  0.00  0.00    +0.102 C 
ATOM      4  N   UNL A   1     -28.075   2.089  25.003  0.00  0.00    -0.212 NA
ATOM      5  C   UNL A   1     -27.543   0.849  25.079  0.00  0.00    +0.234 C 
ATOM      6  C   UNL A   1     -26.354   0.576  25.777  0.00  0.00    +0.246 C 
ATOM      7  F   UNL A   1     -25.860  -0.681  25.795  0.00  0.00    -0.227 F 
ENDROOT
BRANCH   1  13
ATOM      8  O   UNL A   1     -22.343  -0.399  29.700  0.00  0.00    -0.162 OA
ATOM      9  N   UNL A   1     -23.177   0.219  28.797  0.00  0.00    -0.119 N 
ATOM     10  C   UNL A   1     -22.645   1.038  27.819  0.00  0.00    +0.160 A 
ATOM     11  C   UNL A   1     -21.207   1.374  27.601  0.00  0.00    +0.075 C 
ATOM     12  C   UNL A   1     -24.685   0.060  28.950  0.00  0.00    +0.100 A 
ATOM     13  C   UNL A   1     -24.922   1.163  27.695  0.00  0.00    +0.083 A 
ATOM     14  N   UNL A   1     -23.470   1.468  27.110  0.00  0.00    -0.232 NA
BRANCH  12  15
ATOM     15  C   UNL A   1     -24.855  -1.012  30.143  0.00  0.00    +0.081 C 
BRANCH  15  16
ATOM     16  C   UNL A   1     -24.973  -2.505  29.788  0.00  0.00    -0.015 C 
ATOM     17  C   UNL A   1     -23.906  -3.173  29.146  0.00  0.00    -0.004 C 
ATOM     18  C   UNL A   1     -23.989  -4.549  28.853  0.00  0.00    -0.000 C 
ATOM     19  C   UNL A   1     -25.137  -5.280  29.205  0.00  0.00    -0.000 C 
ATOM     20  C   UNL A   1     -26.232  -4.611  29.784  0.00  0.00    -0.000 C 
ATOM     21  C   UNL A   1     -26.155  -3.232  30.065  0.00  0.00    -0.004 C 
ENDBRANCH  15  16
BRANCH  15  22
ATOM     22  C   UNL A   1     -25.387  -0.679  31.571  0.00  0.00    +0.083 C 
ATOM     23  C   UNL A   1     -25.189   0.773  32.028  0.00  0.00    +0.020 C 
ATOM     24  C   UNL A   1     -25.336   0.684  33.544  0.00  0.00    +0.020 C 
ATOM     25  C   UNL A   1     -24.829  -0.715  33.905  0.00  0.00    +0.089 C 
ATOM     26  N   UNL A   1     -24.758  -1.481  32.646  0.00  0.00    -0.219 NA
ENDBRANCH  15  22
ENDBRANCH  12  15
ENDBRANCH   1  13
BRANCH   2  27
ATOM     27  C   UNL A   1     -25.642   4.093  27.123  0.00  0.00    +0.263 C 
ATOM     28  N   UNL A   1     -25.614   5.252  26.449  0.00  0.00    -0.200 NA
ATOM     29  C   UNL A   1     -25.026   6.479  26.963  0.00  0.00    +0.139 C 
ATOM     30  O   UNL A   1     -25.143   3.966  28.243  0.00  0.00    -0.269 OA
ENDBRANCH   2  27
BRANCH   5  31
ATOM     31  O   UNL A   1     -28.193  -0.208  24.477  0.00  0.00    -0.459 OA
BRANCH  31  32
ATOM     32  C   UNL A   1     -29.460   0.005  23.866  0.00  0.00    +0.239 C 
BRANCH  32  33
ATOM     33  C   UNL A   1     -30.065  -1.377  23.573  0.00  0.00    +0.189 C 
BRANCH  33  34
ATOM     34  O   UNL A   1     -30.729  -1.878  24.721  0.00  0.00    -0.350 OA
BRANCH  34  35
ATOM     35  C   UNL A   1     -31.712  -1.199  25.567  0.00  0.00    +0.142 C 
BRANCH  35  36
ATOM     36  C   UNL A   1     -31.242  -1.266  27.022  0.00  0.00    +0.032 C 
BRANCH  36  37
ATOM     37  C   UNL A   1     -31.290   0.131  27.688  0.00  0.00    +0.003 C 
BRANCH  37  38
ATOM     38  C   UNL A   1     -29.880   0.782  27.761  0.00  0.00    +0.012 C 
BRANCH  38  39
ATOM     39  C   UNL A   1     -29.223   0.737  29.205  0.00  0.00    +0.113 C 
BRANCH  39  42
ATOM     40  N   UNL A   1     -27.304  -0.424  28.415  0.00  0.00    -0.088 NA
ATOM     41  O   UNL A   1     -28.160  -1.130  30.233  0.00  0.00    -0.272 OA
ATOM     42  C   UNL A   1     -28.179  -0.394  29.314  0.00  0.00    +0.263 C 
ENDBRANCH  39  42
BRANCH  39  43
ATOM     43  C   UNL A   1     -28.729   1.607  30.451  0.00  0.00    +0.191 C 
ATOM     44  O   UNL A   1     -29.335   2.895  30.387  0.00  0.00    -0.220 OA
ENDBRANCH  39  43
ENDBRANCH  38  39
ENDBRANCH  37  38
ENDBRANCH  36  37
ENDBRANCH  35  36
ENDBRANCH  34  35
ENDBRANCH  33  34
ENDBRANCH  32  33
ENDBRANCH  31  32
ENDBRANCH   5  31
TORSDOF 16
