MODEL 2502
MODEL 1
REMARK VINA RESULT:    -7.231      0.000      0.000
REMARK INTER + INTRA:          -7.724
REMARK INTER:                  -7.654
REMARK INTRA:                  -0.070
REMARK UNBOUND:                -0.070
REMARK  Name = No_2502-gen_results/8p0m/2024-11-27-11-27-31/
REMARK  1 active torsions:
REMARK  status: ('A' for Active; 'I' for Inactive)
REMARK    1  A    between atoms: C_5  and  C_7
REMARK                            x       y       z     vdW  Elec       q    Type
REMARK                         _______ _______ _______ _____ _____    ______ ____
ROOT
ATOM      1  C   UNL A   1     -29.848  -9.564  32.143  0.00  0.00    +0.000 A 
ATOM      2  C   UNL A   1     -29.828 -10.220  31.127  0.00  0.00    +0.000 A 
ATOM      3  C   UNL A   1     -28.951 -11.265  30.910  0.00  0.00    +0.000 A 
ATOM      4  C   UNL A   1     -28.050 -11.609  31.957  0.00  0.00    +0.007 A 
ATOM      5  C   UNL A   1     -28.227 -10.959  33.132  0.00  0.00    +0.080 A 
ATOM      6  C   UNL A   1     -29.122  -9.998  33.262  0.00  0.00    +0.007 A 
ATOM      7  C   UNL A   1     -30.555  -9.962  29.746  0.00  0.00    +0.000 A 
ATOM      8  C   UNL A   1     -30.396 -10.553  28.674  0.00  0.00    +0.003 A 
ATOM      9  C   UNL A   1     -29.420 -11.660  28.624  0.00  0.00    +0.019 A 
ATOM     10  C   UNL A   1     -28.702 -11.950  29.634  0.00  0.00    +0.002 A 
ATOM     11  C   UNL A   1     -29.337 -12.350  27.262  0.00  0.00    +0.099 A 
ATOM     12  N   UNL A   1     -29.818 -11.752  26.159  0.00  0.00    -0.242 NA
ATOM     13  C   UNL A   1     -30.692 -10.693  26.249  0.00  0.00    +0.099 A 
ATOM     14  C   UNL A   1     -30.962 -10.112  27.411  0.00  0.00    +0.021 A 
ENDROOT
BRANCH   5  15
ATOM     15  C   UNL A   1     -27.303 -11.351  34.216  0.00  0.00    +0.388 C 
ATOM     16  O   UNL A   1     -27.251 -12.433  34.482  0.00  0.00    -0.241 OA
ATOM     17  O   UNL A   1     -26.624 -10.450  34.907  0.00  0.00    -0.241 OA
ENDBRANCH   5  15
TORSDOF 1
ENDMDL
ENDMDL
