MODEL 2503
MODEL 1
REMARK VINA RESULT:    -4.587      0.000      0.000
REMARK INTER + INTRA:          -4.587
REMARK INTER:                  -4.587
REMARK INTRA:                   0.000
REMARK UNBOUND:                 0.000
REMARK  Name = No_2503-gen_results/8p0m/2024-11-27-11-27-31/
REMARK  0 active torsions:
REMARK  status: ('A' for Active; 'I' for Inactive)
REMARK                            x       y       z     vdW  Elec       q    Type
REMARK                         _______ _______ _______ _____ _____    ______ ____
ROOT
ATOM      1  C   UNL A   1     -26.409  -3.457  29.979  0.00  0.00    -0.000 A 
ATOM      2  C   UNL A   1     -25.619  -2.791  29.776  0.00  0.00    -0.004 A 
ATOM      3  C   UNL A   1     -26.139  -4.832  29.559  0.00  0.00    -0.000 A 
ATOM      4  C   UNL A   1     -24.951  -5.197  28.975  0.00  0.00    -0.000 A 
ATOM      5  C   UNL A   1     -24.282  -2.891  29.190  0.00  0.00    -0.022 A 
ATOM      6  C   UNL A   1     -23.329  -1.867  28.989  0.00  0.00    +0.031 C 
ATOM      7  C   UNL A   1     -24.029  -4.227  28.810  0.00  0.00    -0.004 A 
ENDROOT
TORSDOF 0
ENDMDL
ENDMDL
