REMARK  Name = outputs/IAG933/test6/raw/output_2505_IAG933_linker_design_.xyz
REMARK  14 active torsions:
REMARK  status: ('A' for Active; 'I' for Inactive)
REMARK    1  A    between atoms: C_1  and  C_2
REMARK    2  A    between atoms: C_1  and  C_8
REMARK    3  A    between atoms: C_1  and  C_43
REMARK    4  A    between atoms: C_13  and  C_36
REMARK    5  A    between atoms: C_14  and  C_15
REMARK    6  A    between atoms: C_21  and  O_22
REMARK    7  A    between atoms: O_22  and  C_23
REMARK    8  A    between atoms: C_23  and  C_24
REMARK    9  A    between atoms: O_28  and  C_32
REMARK   10  A    between atoms: O_28  and  C_43
REMARK   11  A    between atoms: C_29  and  O_35
REMARK   12  A    between atoms: C_32  and  C_40
REMARK   13  A    between atoms: O_35  and  C_43
REMARK   14  A    between atoms: C_36  and  C_38
REMARK                            x       y       z     vdW  Elec       q    Type
REMARK                         _______ _______ _______ _____ _____    ______ ____
ROOT
ATOM      1  C   UNL A   1     -23.559   0.323  27.966  0.00  0.00    +0.163 C 
ATOM      2  S   UNL A   1     -21.769   1.958  27.302  0.00  0.00    -0.084 S 
ATOM      3  N   UNL A   1     -22.306  -0.976  29.666  0.00  0.00    -0.124 NA
ATOM      4  C   UNL A   1     -21.323   0.736  28.357  0.00  0.00    +0.056 C 
ATOM      5  C   UNL A   1     -23.311   1.290  27.146  0.00  0.00    +0.072 C 
ATOM      6  C   UNL A   1     -22.376  -0.059  28.691  0.00  0.00    +0.130 C 
ENDROOT
BRANCH   5   7
ATOM      7  C   UNL A   1     -24.080   1.642  25.951  0.00  0.00    +0.168 C 
ATOM      8  F   UNL A   1     -23.852   1.161  24.884  0.00  0.00    -0.234 F 
ATOM      9  C   UNL A   1     -22.910   2.425  24.773  0.00  0.00    +0.041 C 
BRANCH   7  10
ATOM     10  C   UNL A   1     -25.688   1.614  26.461  0.00  0.00    +0.105 C 
ATOM     11  C   UNL A   1     -26.250   2.920  26.395  0.00  0.00    +0.058 C 
ATOM     12  C   UNL A   1     -27.438   3.091  25.645  0.00  0.00    +0.102 C 
ATOM     13  N   UNL A   1     -28.075   2.089  25.003  0.00  0.00    -0.212 NA
ATOM     14  C   UNL A   1     -27.543   0.849  25.079  0.00  0.00    +0.234 C 
ATOM     15  C   UNL A   1     -26.354   0.576  25.777  0.00  0.00    +0.243 C 
ATOM     16  F   UNL A   1     -25.860  -0.681  25.795  0.00  0.00    -0.227 F 
BRANCH  11  17
ATOM     17  C   UNL A   1     -25.642   4.093  27.123  0.00  0.00    +0.263 C 
ATOM     18  N   UNL A   1     -25.614   5.252  26.449  0.00  0.00    -0.200 NA
ATOM     19  C   UNL A   1     -25.026   6.479  26.963  0.00  0.00    +0.139 C 
ATOM     20  O   UNL A   1     -25.143   3.966  28.243  0.00  0.00    -0.269 OA
ENDBRANCH  11  17
BRANCH  14  21
ATOM     21  O   UNL A   1     -28.193  -0.208  24.477  0.00  0.00    -0.459 OA
BRANCH  21  22
ATOM     22  C   UNL A   1     -29.460   0.005  23.866  0.00  0.00    +0.242 C 
BRANCH  22  23
ATOM     23  C   UNL A   1     -30.065  -1.377  23.573  0.00  0.00    +0.229 C 
ATOM     24  O   UNL A   1     -30.729  -1.878  24.721  0.00  0.00    -0.216 OA
ENDBRANCH  22  23
ENDBRANCH  21  22
ENDBRANCH  14  21
ENDBRANCH   7  10
ENDBRANCH   5   7
BRANCH   1  25
ATOM     25  O   UNL A   1     -24.893  -0.073  27.956  0.00  0.00    -0.451 OA
BRANCH  25  26
ATOM     26  C   UNL A   1     -25.461  -0.111  29.150  0.00  0.00    +0.293 C 
BRANCH  26  27
ATOM     27  C   UNL A   1     -24.855  -1.012  30.143  0.00  0.00    +0.108 C 
BRANCH  27  28
ATOM     28  C   UNL A   1     -24.973  -2.505  29.788  0.00  0.00    -0.015 C 
ATOM     29  C   UNL A   1     -23.906  -3.173  29.146  0.00  0.00    -0.004 C 
ATOM     30  C   UNL A   1     -23.989  -4.549  28.853  0.00  0.00    -0.000 C 
ATOM     31  C   UNL A   1     -25.137  -5.280  29.205  0.00  0.00    -0.000 C 
ATOM     32  C   UNL A   1     -26.232  -4.611  29.784  0.00  0.00    -0.000 C 
ATOM     33  C   UNL A   1     -26.155  -3.232  30.065  0.00  0.00    -0.004 C 
ENDBRANCH  27  28
BRANCH  27  34
ATOM     34  C   UNL A   1     -25.387  -0.679  31.571  0.00  0.00    +0.083 C 
ATOM     35  C   UNL A   1     -25.189   0.773  32.028  0.00  0.00    +0.019 C 
ATOM     36  C   UNL A   1     -25.336   0.684  33.544  0.00  0.00    +0.020 C 
ATOM     37  C   UNL A   1     -24.829  -0.715  33.905  0.00  0.00    +0.089 C 
ATOM     38  N   UNL A   1     -24.758  -1.481  32.646  0.00  0.00    -0.219 NA
ENDBRANCH  27  34
ENDBRANCH  26  27
BRANCH  26  39
ATOM     39  O   UNL A   1     -26.419   0.811  29.183  0.00  0.00    -0.307 OA
BRANCH  39  40
ATOM     40  C   UNL A   1     -27.830   0.641  29.368  0.00  0.00    +0.279 C 
BRANCH  40  43
ATOM     41  N   UNL A   1     -28.041   2.933  28.964  0.00  0.00    +0.202 NA
ATOM     42  N   UNL A   1     -28.642   2.273  31.119  0.00  0.00    +0.202 NA
ATOM     43  C   UNL A   1     -28.208   2.015  29.801  0.00  0.00    +0.483 C 
ENDBRANCH  40  43
ENDBRANCH  39  40
ENDBRANCH  26  39
ENDBRANCH  25  26
ENDBRANCH   1  25
TORSDOF 14
