MODEL 2505
MODEL 1
REMARK VINA RESULT:    -5.177      0.000      0.000
REMARK INTER + INTRA:          -5.664
REMARK INTER:                  -5.480
REMARK INTRA:                  -0.184
REMARK UNBOUND:                -0.184
REMARK  Name = No_2505-gen_results/8p0m/2024-11-27-11-27-31/
REMARK  1 active torsions:
REMARK  status: ('A' for Active; 'I' for Inactive)
REMARK    1  A    between atoms: C_3  and  C_7
REMARK                            x       y       z     vdW  Elec       q    Type
REMARK                         _______ _______ _______ _____ _____    ______ ____
ROOT
ATOM      1  C   UNL A   1     -23.919  -3.942  28.631  0.00  0.00    +0.004 A 
ATOM      2  C   UNL A   1     -24.452  -4.838  28.788  0.00  0.00    -0.000 A 
ATOM      3  C   UNL A   1     -24.520  -2.736  29.052  0.00  0.00    +0.071 A 
ATOM      4  C   UNL A   1     -25.770  -2.708  29.640  0.00  0.00    +0.004 A 
ATOM      5  C   UNL A   1     -26.397  -3.931  29.815  0.00  0.00    -0.000 A 
ATOM      6  C   UNL A   1     -25.756  -5.086  29.421  0.00  0.00    -0.000 A 
ENDROOT
BRANCH   3   7
ATOM      7  C   UNL A   1     -23.864  -1.395  28.911  0.00  0.00    +0.419 C 
ATOM      8  F   UNL A   1     -24.172  -0.902  27.806  0.00  0.00    -0.166 F 
ATOM      9  F   UNL A   1     -22.524  -1.563  28.872  0.00  0.00    -0.166 F 
ATOM     10  F   UNL A   1     -24.199  -0.299  29.575  0.00  0.00    -0.166 F 
ENDBRANCH   3   7
TORSDOF 1
ENDMDL
ENDMDL
