REMARK  Name = outputs/IAG933/test6/raw/output_2507_IAG933_linker_design_.xyz
REMARK  12 active torsions:
REMARK  status: ('A' for Active; 'I' for Inactive)
REMARK    1  A    between atoms: C_1  and  C_2
REMARK    2  A    between atoms: C_1  and  C_8
REMARK    3  A    between atoms: C_1  and  C_37
REMARK    4  A    between atoms: C_14  and  C_15
REMARK    5  A    between atoms: C_21  and  O_22
REMARK    6  A    between atoms: O_22  and  C_23
REMARK    7  A    between atoms: C_23  and  C_24
REMARK    8  A    between atoms: C_33  and  N_39
REMARK    9  A    between atoms: N_36  and  C_37
REMARK   10  A    between atoms: C_37  and  C_41
REMARK   11  A    between atoms: C_38  and  C_40
REMARK   12  A    between atoms: N_39  and  C_41
REMARK                            x       y       z     vdW  Elec       q    Type
REMARK                         _______ _______ _______ _____ _____    ______ ____
ROOT
ATOM      1  C   UNL A   1     -24.674   0.062  28.929  0.00  0.00    +0.121 C 
ENDROOT
BRANCH   1   3
ATOM      2  O   UNL A   1     -27.498  -0.362  28.807  0.00  0.00    -0.268 OA
ATOM      3  N   UNL A   1     -25.846   1.115  29.185  0.00  0.00    -0.201 NA
ATOM      4  C   UNL A   1     -27.143   0.779  29.121  0.00  0.00    +0.265 C 
BRANCH   4   9
ATOM      5  C   UNL A   1     -30.526   2.223  29.206  0.00  0.00    +0.232 C 
ATOM      6  C   UNL A   1     -28.159   2.392  30.698  0.00  0.00    +0.044 C 
ATOM      7  C   UNL A   1     -29.296   1.910  28.633  0.00  0.00    +0.025 C 
ATOM      8  O   UNL A   1     -30.562   2.546  30.515  0.00  0.00    -0.468 OA
ATOM      9  C   UNL A   1     -28.192   1.776  29.461  0.00  0.00    +0.058 C 
ATOM     10  C   UNL A   1     -29.407   2.721  31.249  0.00  0.00    +0.173 C 
ENDBRANCH   4   9
ENDBRANCH   1   3
BRANCH   1  11
ATOM     11  C   UNL A   1     -24.855  -1.012  30.143  0.00  0.00    +0.060 C 
BRANCH  11  12
ATOM     12  C   UNL A   1     -24.973  -2.505  29.788  0.00  0.00    -0.019 C 
ATOM     13  C   UNL A   1     -23.906  -3.173  29.146  0.00  0.00    -0.004 C 
ATOM     14  C   UNL A   1     -23.989  -4.549  28.853  0.00  0.00    -0.000 C 
ATOM     15  C   UNL A   1     -25.137  -5.280  29.205  0.00  0.00    -0.000 C 
ATOM     16  C   UNL A   1     -26.232  -4.611  29.784  0.00  0.00    -0.000 C 
ATOM     17  C   UNL A   1     -26.155  -3.232  30.065  0.00  0.00    -0.004 C 
ENDBRANCH  11  12
BRANCH  11  18
ATOM     18  C   UNL A   1     -25.387  -0.679  31.571  0.00  0.00    +0.079 C 
ATOM     19  C   UNL A   1     -25.189   0.773  32.028  0.00  0.00    +0.019 C 
ATOM     20  C   UNL A   1     -25.336   0.684  33.544  0.00  0.00    +0.020 C 
ATOM     21  C   UNL A   1     -24.829  -0.715  33.905  0.00  0.00    +0.089 C 
ATOM     22  N   UNL A   1     -24.758  -1.481  32.646  0.00  0.00    -0.219 NA
ENDBRANCH  11  18
ENDBRANCH   1  11
BRANCH   1  23
ATOM     23  C   UNL A   1     -22.997   0.447  28.884  0.00  0.00    +0.113 C 
BRANCH  23  25
ATOM     24  C   UNL A   1     -20.720   1.404  27.879  0.00  0.00    +0.113 C 
ATOM     25  N   UNL A   1     -22.215   0.917  27.994  0.00  0.00    -0.297 N 
BRANCH  25  34
ATOM     26  C   UNL A   1     -25.688   1.614  26.461  0.00  0.00    +0.060 C 
ATOM     27  C   UNL A   1     -26.250   2.920  26.395  0.00  0.00    +0.080 C 
ATOM     28  C   UNL A   1     -27.438   3.091  25.645  0.00  0.00    +0.107 C 
ATOM     29  N   UNL A   1     -28.075   2.089  25.003  0.00  0.00    -0.211 NA
ATOM     30  C   UNL A   1     -27.543   0.849  25.079  0.00  0.00    +0.239 C 
ATOM     31  C   UNL A   1     -26.354   0.576  25.777  0.00  0.00    +0.265 C 
ATOM     32  F   UNL A   1     -25.860  -0.681  25.795  0.00  0.00    -0.222 F 
ATOM     33  C   UNL A   1     -24.419   1.458  26.741  0.00  0.00    -0.086 C 
ATOM     34  C   UNL A   1     -23.019   1.177  26.810  0.00  0.00    +0.104 C 
BRANCH  27  35
ATOM     35  C   UNL A   1     -25.642   4.093  27.123  0.00  0.00    +0.267 C 
ATOM     36  N   UNL A   1     -25.614   5.252  26.449  0.00  0.00    -0.200 NA
ATOM     37  C   UNL A   1     -25.026   6.479  26.963  0.00  0.00    +0.139 C 
ATOM     38  O   UNL A   1     -25.143   3.966  28.243  0.00  0.00    -0.268 OA
ENDBRANCH  27  35
BRANCH  30  39
ATOM     39  O   UNL A   1     -28.193  -0.208  24.477  0.00  0.00    -0.458 OA
BRANCH  39  40
ATOM     40  C   UNL A   1     -29.460   0.005  23.866  0.00  0.00    +0.242 C 
BRANCH  40  41
ATOM     41  C   UNL A   1     -30.065  -1.377  23.573  0.00  0.00    +0.229 C 
ATOM     42  O   UNL A   1     -30.729  -1.878  24.721  0.00  0.00    -0.216 OA
ENDBRANCH  40  41
ENDBRANCH  39  40
ENDBRANCH  30  39
ENDBRANCH  25  34
ENDBRANCH  23  25
ENDBRANCH   1  23
TORSDOF 12
