REMARK  Name = outputs/IAG933/test6/raw/output_2508_IAG933_linker_design_.xyz
REMARK  12 active torsions:
REMARK  status: ('A' for Active; 'I' for Inactive)
REMARK    1  A    between atoms: C_1  and  C_2
REMARK    2  A    between atoms: C_1  and  C_8
REMARK    3  A    between atoms: C_1  and  C_36
REMARK    4  A    between atoms: C_13  and  N_35
REMARK    5  A    between atoms: C_14  and  C_15
REMARK    6  A    between atoms: C_21  and  O_22
REMARK    7  A    between atoms: O_22  and  C_23
REMARK    8  A    between atoms: C_23  and  C_24
REMARK    9  A    between atoms: C_29  and  C_38
REMARK   10  A    between atoms: N_33  and  C_36
REMARK   11  A    between atoms: N_33  and  C_41
REMARK   12  A    between atoms: C_36  and  C_40
REMARK                            x       y       z     vdW  Elec       q    Type
REMARK                         _______ _______ _______ _____ _____    ______ ____
ROOT
ATOM      1  C   UNL A   1     -25.289   0.056  29.056  0.00  0.00    +0.097 C 
ENDROOT
BRANCH   1   5
ATOM      2  C   UNL A   1     -22.518   0.420  28.606  0.00  0.00    +0.021 C 
ATOM      3  C   UNL A   1     -21.991   2.009  26.651  0.00  0.00    +0.021 C 
ATOM      4  N   UNL A   1     -24.457   1.609  27.208  0.00  0.00    -0.306 N 
ATOM      5  C   UNL A   1     -24.041   0.806  28.362  0.00  0.00    +0.089 C 
ATOM      6  C   UNL A   1     -23.355   1.484  26.178  0.00  0.00    +0.091 C 
ATOM      7  C   UNL A   1     -21.500   1.336  27.893  0.00  0.00    +0.004 C 
BRANCH   4   8
ATOM      8  C   UNL A   1     -25.688   1.614  26.461  0.00  0.00    +0.086 C 
ATOM      9  C   UNL A   1     -26.250   2.920  26.395  0.00  0.00    +0.090 C 
ATOM     10  C   UNL A   1     -27.438   3.091  25.645  0.00  0.00    +0.108 C 
ATOM     11  N   UNL A   1     -28.075   2.089  25.003  0.00  0.00    -0.208 NA
ATOM     12  C   UNL A   1     -27.543   0.849  25.079  0.00  0.00    +0.255 C 
ATOM     13  C   UNL A   1     -26.354   0.576  25.777  0.00  0.00    +0.206 C 
ATOM     14  F   UNL A   1     -25.860  -0.681  25.795  0.00  0.00    -0.198 F 
BRANCH   9  15
ATOM     15  C   UNL A   1     -25.642   4.093  27.123  0.00  0.00    +0.268 C 
ATOM     16  N   UNL A   1     -25.614   5.252  26.449  0.00  0.00    -0.200 NA
ATOM     17  C   UNL A   1     -25.026   6.479  26.963  0.00  0.00    +0.139 C 
ATOM     18  O   UNL A   1     -25.143   3.966  28.243  0.00  0.00    -0.268 OA
ENDBRANCH   9  15
BRANCH  12  19
ATOM     19  O   UNL A   1     -28.193  -0.208  24.477  0.00  0.00    -0.456 OA
BRANCH  19  20
ATOM     20  C   UNL A   1     -29.460   0.005  23.866  0.00  0.00    +0.243 C 
BRANCH  20  21
ATOM     21  C   UNL A   1     -30.065  -1.377  23.573  0.00  0.00    +0.229 C 
ATOM     22  O   UNL A   1     -30.729  -1.878  24.721  0.00  0.00    -0.216 OA
ENDBRANCH  20  21
ENDBRANCH  19  20
ENDBRANCH  12  19
ENDBRANCH   4   8
ENDBRANCH   1   5
BRANCH   1  23
ATOM     23  C   UNL A   1     -24.855  -1.012  30.143  0.00  0.00    +0.056 C 
BRANCH  23  24
ATOM     24  C   UNL A   1     -24.973  -2.505  29.788  0.00  0.00    -0.020 C 
ATOM     25  C   UNL A   1     -23.906  -3.173  29.146  0.00  0.00    -0.004 C 
ATOM     26  C   UNL A   1     -23.989  -4.549  28.853  0.00  0.00    -0.000 C 
ATOM     27  C   UNL A   1     -25.137  -5.280  29.205  0.00  0.00    -0.000 C 
ATOM     28  C   UNL A   1     -26.232  -4.611  29.784  0.00  0.00    -0.000 C 
ATOM     29  C   UNL A   1     -26.155  -3.232  30.065  0.00  0.00    -0.004 C 
ENDBRANCH  23  24
BRANCH  23  30
ATOM     30  C   UNL A   1     -25.387  -0.679  31.571  0.00  0.00    +0.078 C 
ATOM     31  C   UNL A   1     -25.189   0.773  32.028  0.00  0.00    +0.019 C 
ATOM     32  C   UNL A   1     -25.336   0.684  33.544  0.00  0.00    +0.020 C 
ATOM     33  C   UNL A   1     -24.829  -0.715  33.905  0.00  0.00    +0.089 C 
ATOM     34  N   UNL A   1     -24.758  -1.481  32.646  0.00  0.00    -0.219 NA
ENDBRANCH  23  30
ENDBRANCH   1  23
BRANCH   1  35
ATOM     35  N   UNL A   1     -26.002   1.304  29.410  0.00  0.00    -0.211 NA
BRANCH  35  42
ATOM     36  C   UNL A   1     -29.188   0.468  30.927  0.00  0.00    +0.066 C 
ATOM     37  C   UNL A   1     -30.617   2.949  31.290  0.00  0.00    +0.000 C 
ATOM     38  C   UNL A   1     -28.224   0.545  29.694  0.00  0.00    +0.166 C 
ATOM     39  C   UNL A   1     -29.055   2.965  31.262  0.00  0.00    +0.002 C 
ATOM     40  C   UNL A   1     -28.219   3.004  29.836  0.00  0.00    +0.023 C 
ATOM     41  C   UNL A   1     -28.808   1.614  31.974  0.00  0.00    +0.008 C 
ATOM     42  C   UNL A   1     -27.384   1.700  29.515  0.00  0.00    +0.130 C 
ATOM     43  O   UNL A   1     -28.291  -0.332  28.827  0.00  0.00    -0.295 OA
BRANCH  40  44
ATOM     44  C   UNL A   1     -29.182   3.251  28.593  0.00  0.00    +0.002 C 
ATOM     45  C   UNL A   1     -30.171   4.419  28.852  0.00  0.00    +0.000 C 
ENDBRANCH  40  44
ENDBRANCH  35  42
ENDBRANCH   1  35
TORSDOF 12
