MODEL 2508
MODEL 1
REMARK VINA RESULT:    -2.579      0.000      0.000
REMARK INTER + INTRA:          -2.579
REMARK INTER:                  -2.579
REMARK INTRA:                   0.000
REMARK UNBOUND:                 0.000
REMARK  Name = No_2508-gen_results/8p0m/2024-11-27-11-27-31/
REMARK  0 active torsions:
REMARK  status: ('A' for Active; 'I' for Inactive)
REMARK                            x       y       z     vdW  Elec       q    Type
REMARK                         _______ _______ _______ _____ _____    ______ ____
ROOT
ATOM      1  O   UNL A   1     -11.237 -10.434  16.941  0.00  0.00    -0.283 OA
ATOM      2  C   UNL A   1     -10.211 -10.322  17.622  0.00  0.00    +0.234 C 
ATOM      3  C   UNL A   1      -9.197 -10.456  17.546  0.00  0.00    +0.049 C 
ENDROOT
TORSDOF 0
ENDMDL
ENDMDL
