MODEL 2509
MODEL 1
REMARK VINA RESULT:    -4.347      0.000      0.000
REMARK INTER + INTRA:          -4.347
REMARK INTER:                  -4.347
REMARK INTRA:                   0.000
REMARK UNBOUND:                 0.000
REMARK  Name = No_2509-gen_results/8p0m/2024-11-27-11-27-31/
REMARK  0 active torsions:
REMARK  status: ('A' for Active; 'I' for Inactive)
REMARK                            x       y       z     vdW  Elec       q    Type
REMARK                         _______ _______ _______ _____ _____    ______ ____
ROOT
ATOM      1  C   UNL A   1     -26.196  -4.716  29.691  0.00  0.00    +0.011 A 
ATOM      2  C   UNL A   1     -26.158  -3.663  29.708  0.00  0.00    +0.058 A 
ATOM      3  C   UNL A   1     -25.044  -5.397  28.987  0.00  0.00    +0.001 A 
ATOM      4  C   UNL A   1     -23.953  -4.623  28.538  0.00  0.00    +0.000 A 
ATOM      5  C   UNL A   1     -25.147  -2.641  29.354  0.00  0.00    +0.011 A 
ATOM      6  C   UNL A   1     -24.069  -3.231  28.709  0.00  0.00    +0.001 A 
ATOM      7 CL   UNL A   1     -27.542  -2.838  30.566  0.00  0.00    -0.082 Cl
ENDROOT
TORSDOF 0
ENDMDL
ENDMDL
