MODEL 250
MODEL 1
REMARK VINA RESULT:    -7.627      0.000      0.000
REMARK INTER + INTRA:          -9.850
REMARK INTER:                  -8.965
REMARK INTRA:                  -0.885
REMARK UNBOUND:                -0.885
REMARK  Name = No_250-gen_results/8p0m/2024-11-27-11-27-31/
REMARK  3 active torsions:
REMARK  status: ('A' for Active; 'I' for Inactive)
REMARK    1  A    between atoms: C_4  and  C_8
REMARK    2  A    between atoms: C_8  and  C_9
REMARK    3  A    between atoms: C_13  and  C_15
REMARK                            x       y       z     vdW  Elec       q    Type
REMARK                         _______ _______ _______ _____ _____    ______ ____
ROOT
ATOM      1  C   UNL A   1     -23.667   1.884  26.404  0.00  0.00    +0.038 C 
ATOM      2  C   UNL A   1     -22.709   2.282  25.287  0.00  0.00    +0.009 C 
ATOM      3  C   UNL A   1     -24.230   3.252  27.164  0.00  0.00    +0.009 C 
ENDROOT
BRANCH   1   7
ATOM      4  C   UNL A   1     -26.195  -0.204  24.372  0.00  0.00    +0.011 A 
ATOM      5  C   UNL A   1     -27.015   0.445  24.501  0.00  0.00    +0.058 A 
ATOM      6  C   UNL A   1     -24.895   0.258  24.991  0.00  0.00    -0.003 A 
ATOM      7  C   UNL A   1     -24.888   1.415  25.799  0.00  0.00    -0.019 A 
ATOM      8  C   UNL A   1     -27.279   1.660  25.306  0.00  0.00    +0.011 A 
ATOM      9  C   UNL A   1     -26.107   2.112  25.896  0.00  0.00    -0.003 A 
ATOM     10 CL   UNL A   1     -28.589  -0.114  23.764  0.00  0.00    -0.082 Cl
ENDBRANCH   1   7
BRANCH   1  11
ATOM     11  C   UNL A   1     -23.067   1.224  27.424  0.00  0.00    -0.019 A 
ATOM     12  C   UNL A   1     -21.657   1.179  27.482  0.00  0.00    -0.004 A 
ATOM     13  C   UNL A   1     -21.019   0.440  28.510  0.00  0.00    -0.000 A 
ATOM     14  C   UNL A   1     -21.728  -0.639  29.093  0.00  0.00    +0.004 A 
ATOM     15  C   UNL A   1     -23.118  -0.761  28.843  0.00  0.00    +0.071 A 
ATOM     16  C   UNL A   1     -23.769   0.056  27.928  0.00  0.00    -0.000 A 
BRANCH  15  17
ATOM     17  C   UNL A   1     -23.762  -1.925  29.496  0.00  0.00    +0.419 C 
ATOM     18  F   UNL A   1     -23.658  -2.081  30.537  0.00  0.00    -0.166 F 
ATOM     19  F   UNL A   1     -23.259  -2.992  28.713  0.00  0.00    -0.166 F 
ATOM     20  F   UNL A   1     -25.101  -2.067  29.026  0.00  0.00    -0.166 F 
ENDBRANCH  15  17
ENDBRANCH   1  11
TORSDOF 3
ENDMDL
ENDMDL
