MODEL 2510
MODEL 1
REMARK VINA RESULT:    -4.266      0.000      0.000
REMARK INTER + INTRA:          -4.266
REMARK INTER:                  -4.266
REMARK INTRA:                   0.000
REMARK UNBOUND:                 0.000
REMARK  Name = No_2510-gen_results/8p0m/2024-11-27-11-27-31/
REMARK  0 active torsions:
REMARK  status: ('A' for Active; 'I' for Inactive)
REMARK                            x       y       z     vdW  Elec       q    Type
REMARK                         _______ _______ _______ _____ _____    ______ ____
ROOT
ATOM      1  C   UNL A   1     -26.043  -4.875  29.650  0.00  0.00    +0.000 A 
ATOM      2  C   UNL A   1     -26.211  -3.679  29.720  0.00  0.00    +0.000 A 
ATOM      3  C   UNL A   1     -25.263  -2.751  29.335  0.00  0.00    +0.000 A 
ATOM      4  C   UNL A   1     -24.039  -3.232  28.792  0.00  0.00    +0.000 A 
ATOM      5  C   UNL A   1     -23.968  -4.567  28.577  0.00  0.00    +0.000 A 
ATOM      6  C   UNL A   1     -24.942  -5.378  28.940  0.00  0.00    +0.000 A 
ENDROOT
TORSDOF 0
ENDMDL
ENDMDL
