MODEL 2511
MODEL 1
REMARK VINA RESULT:    -7.344      0.000      0.000
REMARK INTER + INTRA:         -15.045
REMARK INTER:                 -10.779
REMARK INTRA:                  -4.266
REMARK UNBOUND:                -4.266
REMARK  Name = No_2511-gen_results/8p0m/2024-11-27-11-27-31/
REMARK  8 active torsions:
REMARK  status: ('A' for Active; 'I' for Inactive)
REMARK    1  A    between atoms: C_3  and  C_7
REMARK    2  A    between atoms: C_8  and  C_30
REMARK    3  A    between atoms: C_9  and  C_13
REMARK    4  A    between atoms: C_17  and  C_20
REMARK    5  A    between atoms: C_20  and  N_21
REMARK    6  A    between atoms: N_21  and  C_22
REMARK    7  A    between atoms: C_30  and  C_31
REMARK    8  A    between atoms: C_30  and  C_34
REMARK                            x       y       z     vdW  Elec       q    Type
REMARK                         _______ _______ _______ _____ _____    ______ ____
ROOT
ATOM      1  C   UNL A   1     -24.411   0.338  28.021  0.00  0.00    -0.004 A 
ATOM      2  C   UNL A   1     -23.589   1.413  27.824  0.00  0.00    -0.018 A 
ATOM      3  C   UNL A   1     -23.708  -0.845  28.468  0.00  0.00    +0.002 A 
ATOM      4  C   UNL A   1     -22.241   1.449  28.105  0.00  0.00    -0.004 A 
ATOM      5  C   UNL A   1     -21.668   0.322  28.724  0.00  0.00    -0.000 A 
ATOM      6  C   UNL A   1     -22.400  -0.785  28.894  0.00  0.00    +0.000 A 
ENDROOT
BRANCH   1   9
ATOM      7  C   UNL A   1     -26.822   0.436  27.158  0.00  0.00    +0.001 A 
ATOM      8  C   UNL A   1     -27.476   0.308  26.342  0.00  0.00    +0.011 A 
ATOM      9  C   UNL A   1     -25.452   0.162  26.953  0.00  0.00    -0.000 A 
ATOM     10  C   UNL A   1     -24.968  -0.272  25.734  0.00  0.00    +0.001 A 
ATOM     11  C   UNL A   1     -27.223  -0.133  24.956  0.00  0.00    +0.058 A 
ATOM     12  C   UNL A   1     -25.922  -0.408  24.717  0.00  0.00    +0.011 A 
ATOM     13 CL   UNL A   1     -28.465  -0.139  23.768  0.00  0.00    -0.082 Cl
ENDBRANCH   1   9
BRANCH   3  14
ATOM     14  C   UNL A   1     -24.451  -2.060  28.823  0.00  0.00    +0.027 A 
ATOM     15  C   UNL A   1     -24.395  -3.112  28.604  0.00  0.00    +0.002 A 
ATOM     16  C   UNL A   1     -25.019  -4.197  28.833  0.00  0.00    -0.000 A 
ATOM     17  C   UNL A   1     -26.216  -4.047  29.621  0.00  0.00    +0.001 A 
ATOM     18  C   UNL A   1     -26.510  -2.747  30.050  0.00  0.00    +0.040 A 
ATOM     19  C   UNL A   1     -25.670  -1.677  29.684  0.00  0.00    +0.139 A 
ATOM     20  F   UNL A   1     -25.256  -1.184  30.870  0.00  0.00    -0.204 F 
BRANCH  18  21
ATOM     21  C   UNL A   1     -27.727  -2.566  30.854  0.00  0.00    +0.195 C 
ATOM     22 CL   UNL A   1     -28.634  -3.768  31.278  0.00  0.00    -0.086 Cl
BRANCH  21  23
ATOM     23  N   UNL A   1     -27.907  -1.322  31.401  0.00  0.00    -0.218 NA
BRANCH  23  24
ATOM     24  C   UNL A   1     -28.632  -0.314  30.823  0.00  0.00    +0.067 A 
ATOM     25  C   UNL A   1     -29.639  -0.706  29.912  0.00  0.00    +0.016 A 
ATOM     26  C   UNL A   1     -30.164   0.163  28.972  0.00  0.00    +0.001 A 
ATOM     27  C   UNL A   1     -29.728   1.532  29.124  0.00  0.00    +0.000 A 
ATOM     28  C   UNL A   1     -28.737   1.884  29.994  0.00  0.00    +0.001 A 
ATOM     29  C   UNL A   1     -28.121   0.916  30.744  0.00  0.00    +0.016 A 
ENDBRANCH  23  24
ENDBRANCH  21  23
ENDBRANCH  18  21
ENDBRANCH   3  14
BRANCH   2  30
ATOM     30  C   UNL A   1     -24.152   2.689  27.237  0.00  0.00    +0.044 C 
BRANCH  30  31
ATOM     31  C   UNL A   1     -25.218   3.390  27.742  0.00  0.00    +0.008 C 
ATOM     32  C   UNL A   1     -25.467   3.468  29.064  0.00  0.00    +0.001 C 
ATOM     33  C   UNL A   1     -26.019   4.112  26.801  0.00  0.00    +0.001 C 
ENDBRANCH  30  31
BRANCH  30  34
ATOM     34  C   UNL A   1     -23.528   3.125  26.014  0.00  0.00    -0.022 C 
ATOM     35  C   UNL A   1     -22.813   2.296  25.189  0.00  0.00    -0.005 C 
ENDBRANCH  30  34
ENDBRANCH   2  30
TORSDOF 8
ENDMDL
ENDMDL
