REMARK  Name = No_2511-gen_results/8p0m/2024-11-27-11-27-31/
REMARK  8 active torsions:
REMARK  status: ('A' for Active; 'I' for Inactive)
REMARK    1  A    between atoms: C_3  and  C_7
REMARK    2  A    between atoms: C_8  and  C_30
REMARK    3  A    between atoms: C_9  and  C_13
REMARK    4  A    between atoms: C_17  and  C_20
REMARK    5  A    between atoms: C_20  and  N_21
REMARK    6  A    between atoms: N_21  and  C_22
REMARK    7  A    between atoms: C_30  and  C_31
REMARK    8  A    between atoms: C_30  and  C_34
REMARK                            x       y       z     vdW  Elec       q    Type
REMARK                         _______ _______ _______ _____ _____    ______ ____
ROOT
ATOM      1  C   UNL A   1     -26.399   0.295  27.228  0.00  0.00    -0.004 A 
ATOM      2  C   UNL A   1     -25.039   0.236  27.354  0.00  0.00    -0.018 A 
ATOM      3  C   UNL A   1     -26.842   1.272  26.257  0.00  0.00    +0.002 A 
ATOM      4  C   UNL A   1     -24.135   0.938  26.587  0.00  0.00    -0.004 A 
ATOM      5  C   UNL A   1     -24.637   1.719  25.529  0.00  0.00    -0.000 A 
ATOM      6  C   UNL A   1     -25.959   1.867  25.383  0.00  0.00    +0.000 A 
ENDROOT
BRANCH   1   9
ATOM      7  C   UNL A   1     -28.016  -0.814  28.878  0.00  0.00    +0.001 A 
ATOM      8  C   UNL A   1     -28.469  -0.785  29.829  0.00  0.00    +0.011 A 
ATOM      9  C   UNL A   1     -27.136   0.236  28.535  0.00  0.00    -0.000 A 
ATOM     10  C   UNL A   1     -26.875   1.282  29.398  0.00  0.00    +0.001 A 
ATOM     11  C   UNL A   1     -28.361   0.199  30.924  0.00  0.00    +0.058 A 
ATOM     12  C   UNL A   1     -27.528   1.223  30.636  0.00  0.00    +0.011 A 
ATOM     13 CL   UNL A   1     -29.121  -0.055  32.445  0.00  0.00    -0.082 Cl
ENDBRANCH   1   9
BRANCH   3  14
ATOM     14  C   UNL A   1     -28.266   1.395  25.925  0.00  0.00    +0.027 A 
ATOM     15  C   UNL A   1     -28.863   1.888  25.177  0.00  0.00    +0.002 A 
ATOM     16  C   UNL A   1     -30.081   2.075  24.859  0.00  0.00    -0.000 A 
ATOM     17  C   UNL A   1     -31.035   1.478  25.758  0.00  0.00    +0.001 A 
ATOM     18  C   UNL A   1     -30.499   0.754  26.830  0.00  0.00    +0.040 A 
ATOM     19  C   UNL A   1     -29.103   0.667  26.994  0.00  0.00    +0.139 A 
ATOM     20  F   UNL A   1     -28.863  -0.660  26.938  0.00  0.00    -0.204 F 
BRANCH  18  21
ATOM     21  C   UNL A   1     -31.451   0.136  27.764  0.00  0.00    +0.195 C 
ATOM     22 CL   UNL A   1     -32.238  -1.170  27.412  0.00  0.00    -0.086 Cl
BRANCH  21  23
ATOM     23  N   UNL A   1     -31.450   0.633  29.041  0.00  0.00    -0.218 NA
BRANCH  23  24
ATOM     24  C   UNL A   1     -32.207   0.139  30.071  0.00  0.00    +0.067 A 
ATOM     25  C   UNL A   1     -32.206   0.890  31.268  0.00  0.00    +0.016 A 
ATOM     26  C   UNL A   1     -32.572   0.342  32.484  0.00  0.00    +0.001 A 
ATOM     27  C   UNL A   1     -33.119  -0.992  32.391  0.00  0.00    +0.000 A 
ATOM     28  C   UNL A   1     -33.087  -1.708  31.229  0.00  0.00    +0.001 A 
ATOM     29  C   UNL A   1     -32.511  -1.159  30.113  0.00  0.00    +0.016 A 
ENDBRANCH  23  24
ENDBRANCH  21  23
ENDBRANCH  18  21
ENDBRANCH   3  14
BRANCH   2  30
ATOM     30  C   UNL A   1     -24.422  -0.646  28.418  0.00  0.00    +0.044 C 
BRANCH  30  31
ATOM     31  C   UNL A   1     -23.354  -0.304  29.208  0.00  0.00    +0.008 C 
ATOM     32  C   UNL A   1     -22.743   0.894  29.114  0.00  0.00    +0.001 C 
ATOM     33  C   UNL A   1     -22.959  -1.252  30.205  0.00  0.00    +0.001 C 
ENDBRANCH  30  31
BRANCH  30  34
ATOM     34  C   UNL A   1     -24.994  -1.964  28.525  0.00  0.00    -0.022 C 
ATOM     35  C   UNL A   1     -24.549  -2.915  29.406  0.00  0.00    -0.005 C 
ENDBRANCH  30  34
ENDBRANCH   2  30
TORSDOF 8
