REMARK  Name = outputs/IAG933/test6/raw/output_2512_IAG933_linker_design_.xyz
REMARK  9 active torsions:
REMARK  status: ('A' for Active; 'I' for Inactive)
REMARK    1  A    between atoms: C_1  and  C_2
REMARK    2  A    between atoms: C_1  and  C_8
REMARK    3  A    between atoms: C_1  and  N_33
REMARK    4  A    between atoms: C_13  and  N_30
REMARK    5  A    between atoms: C_14  and  C_15
REMARK    6  A    between atoms: C_21  and  O_22
REMARK    7  A    between atoms: O_22  and  C_23
REMARK    8  A    between atoms: C_23  and  C_24
REMARK    9  A    between atoms: N_33  and  C_36
REMARK                            x       y       z     vdW  Elec       q    Type
REMARK                         _______ _______ _______ _____ _____    ______ ____
ROOT
ATOM      1  N   UNL A   1     -21.435   1.690  27.146  0.00  0.00    -0.217 NA
ATOM      2  C   UNL A   1     -22.161  -0.349  29.185  0.00  0.00    +0.029 C 
ATOM      3  N   UNL A   1     -24.484   1.315  27.172  0.00  0.00    -0.132 N 
ATOM      4  C   UNL A   1     -20.605   1.081  28.015  0.00  0.00    +0.077 C 
ATOM      5  C   UNL A   1     -20.746  -0.026  28.928  0.00  0.00    +0.081 C 
ATOM      6 CL   UNL A   1     -23.034   2.701  25.323  0.00  0.00    -0.038 Cl
ATOM      7  C   UNL A   1     -23.262   1.769  26.700  0.00  0.00    +0.357 C 
ATOM      8  C   UNL A   1     -24.401   0.493  28.261  0.00  0.00    +0.353 C 
ATOM      9  C   UNL A   1     -23.227   0.338  28.763  0.00  0.00    -0.020 C 
ENDROOT
BRANCH   3  10
ATOM     10  C   UNL A   1     -25.688   1.614  26.461  0.00  0.00    +0.180 C 
ATOM     11  C   UNL A   1     -26.250   2.920  26.395  0.00  0.00    +0.114 C 
ATOM     12  C   UNL A   1     -27.438   3.091  25.645  0.00  0.00    +0.110 C 
ATOM     13  N   UNL A   1     -28.075   2.089  25.003  0.00  0.00    -0.208 NA
ATOM     14  C   UNL A   1     -27.543   0.849  25.079  0.00  0.00    +0.257 C 
ATOM     15  C   UNL A   1     -26.354   0.576  25.777  0.00  0.00    +0.230 C 
ATOM     16  F   UNL A   1     -25.860  -0.681  25.795  0.00  0.00    -0.196 F 
BRANCH  11  17
ATOM     17  C   UNL A   1     -25.642   4.093  27.123  0.00  0.00    +0.270 C 
ATOM     18  N   UNL A   1     -25.614   5.252  26.449  0.00  0.00    -0.200 NA
ATOM     19  C   UNL A   1     -25.026   6.479  26.963  0.00  0.00    +0.139 C 
ATOM     20  O   UNL A   1     -25.143   3.966  28.243  0.00  0.00    -0.268 OA
ENDBRANCH  11  17
BRANCH  14  21
ATOM     21  O   UNL A   1     -28.193  -0.208  24.477  0.00  0.00    -0.456 OA
BRANCH  21  22
ATOM     22  C   UNL A   1     -29.460   0.005  23.866  0.00  0.00    +0.243 C 
BRANCH  22  23
ATOM     23  C   UNL A   1     -30.065  -1.377  23.573  0.00  0.00    +0.229 C 
ATOM     24  O   UNL A   1     -30.729  -1.878  24.721  0.00  0.00    -0.216 OA
ENDBRANCH  22  23
ENDBRANCH  21  22
ENDBRANCH  14  21
ENDBRANCH   3  10
BRANCH   8  25
ATOM     25  N   UNL A   1     -25.307  -0.195  28.982  0.00  0.00    -0.027 NA
BRANCH  25  26
ATOM     26  C   UNL A   1     -24.855  -1.012  30.143  0.00  0.00    +0.243 C 
BRANCH  26  27
ATOM     27  C   UNL A   1     -24.973  -2.505  29.788  0.00  0.00    +0.025 C 
ATOM     28  C   UNL A   1     -23.906  -3.173  29.146  0.00  0.00    -0.000 C 
ATOM     29  C   UNL A   1     -23.989  -4.549  28.853  0.00  0.00    -0.000 C 
ATOM     30  C   UNL A   1     -25.137  -5.280  29.205  0.00  0.00    -0.000 C 
ATOM     31  C   UNL A   1     -26.232  -4.611  29.784  0.00  0.00    -0.000 C 
ATOM     32  C   UNL A   1     -26.155  -3.232  30.065  0.00  0.00    -0.000 C 
ENDBRANCH  26  27
BRANCH  26  33
ATOM     33  C   UNL A   1     -25.387  -0.679  31.571  0.00  0.00    +0.124 C 
ATOM     34  C   UNL A   1     -25.189   0.773  32.028  0.00  0.00    +0.024 C 
ATOM     35  C   UNL A   1     -25.336   0.684  33.544  0.00  0.00    +0.020 C 
ATOM     36  C   UNL A   1     -24.829  -0.715  33.905  0.00  0.00    +0.089 C 
ATOM     37  N   UNL A   1     -24.758  -1.481  32.646  0.00  0.00    -0.215 NA
ENDBRANCH  26  33
ENDBRANCH  25  26
ENDBRANCH   8  25
TORSDOF 9
