MODEL 2512
MODEL 1
REMARK VINA RESULT:    -6.333      0.000      0.000
REMARK INTER + INTRA:          -8.404
REMARK INTER:                  -7.814
REMARK INTRA:                  -0.591
REMARK UNBOUND:                -0.591
REMARK  Name = No_2512-gen_results/8p0m/2024-11-27-11-27-31/
REMARK  4 active torsions:
REMARK  status: ('A' for Active; 'I' for Inactive)
REMARK    1  A    between atoms: N_4  and  C_8
REMARK    2  A    between atoms: C_8  and  C_9
REMARK    3  A    between atoms: C_10  and  C_11
REMARK    4  A    between atoms: C_12  and  C_13
REMARK                            x       y       z     vdW  Elec       q    Type
REMARK                         _______ _______ _______ _____ _____    ______ ____
ROOT
ATOM      1  C   UNL A   1     -31.434 -12.719  24.110  0.00  0.00    -0.005 C 
ATOM      2  C   UNL A   1     -30.597 -12.788  25.088  0.00  0.00    -0.003 C 
ENDROOT
BRANCH   2   3
ATOM      3  C   UNL A   1     -30.271 -12.494  25.993  0.00  0.00    -0.000 C 
ATOM      4  C   UNL A   1     -29.490 -11.929  26.882  0.00  0.00    -0.000 C 
BRANCH   4   5
ATOM      5  C   UNL A   1     -29.506 -11.523  28.287  0.00  0.00    -0.000 A 
ATOM      6  C   UNL A   1     -28.778 -11.878  29.242  0.00  0.00    -0.000 A 
ATOM      7  C   UNL A   1     -28.873 -11.280  30.582  0.00  0.00    +0.000 A 
ATOM      8  C   UNL A   1     -29.881 -10.380  30.790  0.00  0.00    +0.000 A 
ATOM      9  C   UNL A   1     -30.664  -9.944  29.776  0.00  0.00    +0.000 A 
ATOM     10  C   UNL A   1     -30.531 -10.512  28.565  0.00  0.00    -0.000 A 
ENDBRANCH   4   5
ENDBRANCH   2   3
BRANCH   1  11
ATOM     11  C   UNL A   1     -31.170 -13.396  23.008  0.00  0.00    +0.120 C 
BRANCH  11  15
ATOM     12  O   UNL A   1     -31.594 -11.699  20.992  0.00  0.00    -0.275 OA
ATOM     13  C   UNL A   1     -30.529 -12.135  21.048  0.00  0.00    +0.226 C 
ATOM     14  C   UNL A   1     -29.513 -11.663  20.241  0.00  0.00    +0.085 C 
ATOM     15  N   UNL A   1     -30.090 -13.021  22.121  0.00  0.00    -0.277 N 
ATOM     16  C   UNL A   1     -28.405 -12.568  20.005  0.00  0.00    +0.011 C 
ATOM     17  C   UNL A   1     -28.038 -13.419  21.114  0.00  0.00    +0.020 C 
ATOM     18  C   UNL A   1     -29.002 -13.784  21.997  0.00  0.00    +0.076 C 
ATOM     19  C   UNL A   1     -29.328 -15.277  21.906  0.00  0.00    +0.021 C 
ENDBRANCH  11  15
ENDBRANCH   1  11
TORSDOF 4
ENDMDL
ENDMDL
