MODEL 2514
MODEL 1
REMARK VINA RESULT:    -6.833      0.000      0.000
REMARK INTER + INTRA:          -9.367
REMARK INTER:                  -8.431
REMARK INTRA:                  -0.937
REMARK UNBOUND:                -0.937
REMARK  Name = No_2514-gen_results/8p0m/2024-11-27-11-27-31/
REMARK  4 active torsions:
REMARK  status: ('A' for Active; 'I' for Inactive)
REMARK    1  A    between atoms: C_4  and  C_11
REMARK    2  A    between atoms: C_11  and  C_13
REMARK    3  A    between atoms: C_14  and  C_15
REMARK    4  A    between atoms: C_16  and  C_17
REMARK                            x       y       z     vdW  Elec       q    Type
REMARK                         _______ _______ _______ _____ _____    ______ ____
ROOT
ATOM      1  C   UNL A   1     -28.083  -2.311  30.936  0.00  0.00    -0.000 A 
ATOM      2  C   UNL A   1     -26.986  -1.909  30.623  0.00  0.00    -0.000 A 
ATOM      3  C   UNL A   1     -26.020  -2.703  30.006  0.00  0.00    -0.004 A 
ATOM      4  C   UNL A   1     -24.659  -2.301  29.603  0.00  0.00    -0.018 A 
ATOM      5  C   UNL A   1     -23.671  -3.161  29.004  0.00  0.00    -0.004 A 
ATOM      6  C   UNL A   1     -24.149  -4.415  28.609  0.00  0.00    -0.000 A 
ATOM      7  C   UNL A   1     -28.347  -3.783  30.789  0.00  0.00    -0.000 A 
ATOM      8  C   UNL A   1     -27.490  -4.621  30.112  0.00  0.00    -0.000 A 
ATOM      9  C   UNL A   1     -26.254  -4.143  29.718  0.00  0.00    -0.000 A 
ATOM     10  C   UNL A   1     -25.353  -4.947  29.021  0.00  0.00    -0.000 A 
ENDROOT
BRANCH   4  11
ATOM     11  C   UNL A   1     -24.187  -0.900  29.851  0.00  0.00    +0.044 C 
ATOM     12  C   UNL A   1     -23.486  -0.643  30.942  0.00  0.00    +0.009 C 
BRANCH  11  13
ATOM     13  C   UNL A   1     -23.514  -0.389  28.600  0.00  0.00    -0.022 C 
ATOM     14  C   UNL A   1     -24.034   0.796  28.024  0.00  0.00    -0.004 C 
BRANCH  14  15
ATOM     15  C   UNL A   1     -23.512   1.248  26.821  0.00  0.00    -0.000 C 
ATOM     16  C   UNL A   1     -24.255   1.075  25.656  0.00  0.00    -0.000 C 
BRANCH  16  17
ATOM     17  C   UNL A   1     -25.527   0.416  25.763  0.00  0.00    -0.000 C 
ATOM     18  C   UNL A   1     -25.832  -0.549  24.868  0.00  0.00    -0.000 C 
ENDBRANCH  16  17
ENDBRANCH  14  15
ENDBRANCH  11  13
ENDBRANCH   4  11
TORSDOF 4
ENDMDL
ENDMDL
