REMARK  Name = outputs/IAG933/test6/raw/output_2514_IAG933_linker_design_.xyz
REMARK  12 active torsions:
REMARK  status: ('A' for Active; 'I' for Inactive)
REMARK    1  A    between atoms: C_1  and  C_2
REMARK    2  A    between atoms: C_1  and  C_8
REMARK    3  A    between atoms: C_1  and  C_37
REMARK    4  A    between atoms: C_13  and  N_33
REMARK    5  A    between atoms: C_14  and  C_15
REMARK    6  A    between atoms: C_21  and  O_22
REMARK    7  A    between atoms: O_22  and  C_23
REMARK    8  A    between atoms: C_23  and  C_24
REMARK    9  A    between atoms: C_29  and  O_31
REMARK   10  A    between atoms: C_30  and  C_45
REMARK   11  A    between atoms: O_31  and  C_45
REMARK   12  A    between atoms: O_34  and  C_39
REMARK                            x       y       z     vdW  Elec       q    Type
REMARK                         _______ _______ _______ _____ _____    ______ ____
ROOT
ATOM      1  C   UNL A   1     -22.662   0.705  27.831  0.00  0.00    +0.224 C 
ATOM      2  C   UNL A   1     -25.556   0.474  28.705  0.00  0.00    +0.131 C 
ATOM      3  N   UNL A   1     -24.865   1.282  27.438  0.00  0.00    -0.249 NA
ATOM      4 CL   UNL A   1     -23.168   2.213  25.621  0.00  0.00    -0.093 Cl
ATOM      5  C   UNL A   1     -24.631  -0.034  29.272  0.00  0.00    +0.140 C 
ATOM      6  O   UNL A   1     -23.330   0.299  29.078  0.00  0.00    -0.339 OA
ATOM      7  C   UNL A   1     -23.631   1.465  27.080  0.00  0.00    +0.182 C 
ATOM      8 CL   UNL A   1     -21.159   1.585  27.799  0.00  0.00    -0.079 Cl
ENDROOT
BRANCH   3   9
ATOM      9  C   UNL A   1     -25.688   1.614  26.461  0.00  0.00    +0.129 C 
ATOM     10  C   UNL A   1     -26.250   2.920  26.395  0.00  0.00    +0.070 C 
ATOM     11  C   UNL A   1     -27.438   3.091  25.645  0.00  0.00    +0.103 C 
ATOM     12  N   UNL A   1     -28.075   2.089  25.003  0.00  0.00    -0.212 NA
ATOM     13  C   UNL A   1     -27.543   0.849  25.079  0.00  0.00    +0.235 C 
ATOM     14  C   UNL A   1     -26.354   0.576  25.777  0.00  0.00    +0.255 C 
ATOM     15  F   UNL A   1     -25.860  -0.681  25.795  0.00  0.00    -0.225 F 
BRANCH  10  16
ATOM     16  C   UNL A   1     -25.642   4.093  27.123  0.00  0.00    +0.264 C 
ATOM     17  N   UNL A   1     -25.614   5.252  26.449  0.00  0.00    -0.200 NA
ATOM     18  C   UNL A   1     -25.026   6.479  26.963  0.00  0.00    +0.139 C 
ATOM     19  O   UNL A   1     -25.143   3.966  28.243  0.00  0.00    -0.269 OA
ENDBRANCH  10  16
BRANCH  13  20
ATOM     20  O   UNL A   1     -28.193  -0.208  24.477  0.00  0.00    -0.459 OA
BRANCH  20  21
ATOM     21  C   UNL A   1     -29.460   0.005  23.866  0.00  0.00    +0.242 C 
BRANCH  21  22
ATOM     22  C   UNL A   1     -30.065  -1.377  23.573  0.00  0.00    +0.229 C 
ATOM     23  O   UNL A   1     -30.729  -1.878  24.721  0.00  0.00    -0.216 OA
ENDBRANCH  21  22
ENDBRANCH  20  21
ENDBRANCH  13  20
ENDBRANCH   3   9
BRANCH   5  24
ATOM     24  C   UNL A   1     -24.855  -1.012  30.143  0.00  0.00    +0.067 C 
BRANCH  24  25
ATOM     25  C   UNL A   1     -24.973  -2.505  29.788  0.00  0.00    -0.019 C 
ATOM     26  C   UNL A   1     -23.906  -3.173  29.146  0.00  0.00    -0.004 C 
ATOM     27  C   UNL A   1     -23.989  -4.549  28.853  0.00  0.00    -0.000 C 
ATOM     28  C   UNL A   1     -25.137  -5.280  29.205  0.00  0.00    -0.000 C 
ATOM     29  C   UNL A   1     -26.232  -4.611  29.784  0.00  0.00    -0.000 C 
ATOM     30  C   UNL A   1     -26.155  -3.232  30.065  0.00  0.00    -0.004 C 
ENDBRANCH  24  25
BRANCH  24  31
ATOM     31  C   UNL A   1     -25.387  -0.679  31.571  0.00  0.00    +0.079 C 
ATOM     32  C   UNL A   1     -25.189   0.773  32.028  0.00  0.00    +0.019 C 
ATOM     33  C   UNL A   1     -25.336   0.684  33.544  0.00  0.00    +0.020 C 
ATOM     34  C   UNL A   1     -24.829  -0.715  33.905  0.00  0.00    +0.089 C 
ATOM     35  N   UNL A   1     -24.758  -1.481  32.646  0.00  0.00    -0.219 NA
ENDBRANCH  24  31
ENDBRANCH   5  24
BRANCH   2  36
ATOM     36  C   UNL A   1     -26.902   0.258  28.439  0.00  0.00    +0.224 C 
BRANCH  36  37
ATOM     37  O   UNL A   1     -28.012  -0.582  28.618  0.00  0.00    -0.471 OA
BRANCH  37  38
ATOM     38  C   UNL A   1     -28.953   0.187  28.829  0.00  0.00    +0.172 C 
ATOM     39  C   UNL A   1     -31.249   1.762  29.298  0.00  0.00    +0.003 C 
ATOM     40  C   UNL A   1     -30.163   0.044  28.028  0.00  0.00    +0.040 C 
ATOM     41  C   UNL A   1     -28.914   1.165  29.906  0.00  0.00    +0.172 C 
ATOM     42  C   UNL A   1     -30.124   1.891  30.120  0.00  0.00    +0.040 C 
ATOM     43  C   UNL A   1     -31.344   0.754  28.340  0.00  0.00    +0.003 C 
BRANCH  41  45
ATOM     44  C   UNL A   1     -28.757  -0.283  31.745  0.00  0.00    +0.253 C 
ATOM     45  O   UNL A   1     -28.217   0.851  31.056  0.00  0.00    -0.468 OA
ENDBRANCH  41  45
ENDBRANCH  37  38
ENDBRANCH  36  37
ENDBRANCH   2  36
TORSDOF 12
