REMARK  Name = outputs/IAG933/test6/raw/output_2515_IAG933_linker_design_.xyz
REMARK  13 active torsions:
REMARK  status: ('A' for Active; 'I' for Inactive)
REMARK    1  A    between atoms: C_1  and  C_2
REMARK    2  A    between atoms: C_1  and  C_8
REMARK    3  A    between atoms: C_1  and  C_36
REMARK    4  A    between atoms: C_13  and  N_37
REMARK    5  A    between atoms: C_14  and  C_15
REMARK    6  A    between atoms: C_21  and  O_22
REMARK    7  A    between atoms: O_22  and  C_23
REMARK    8  A    between atoms: C_23  and  C_24
REMARK    9  A    between atoms: C_28  and  C_38
REMARK   10  A    between atoms: N_31  and  C_38
REMARK   11  A    between atoms: C_33  and  O_35
REMARK   12  A    between atoms: C_40  and  C_47
REMARK   13  A    between atoms: C_41  and  C_44
REMARK                            x       y       z     vdW  Elec       q    Type
REMARK                         _______ _______ _______ _____ _____    ______ ____
ROOT
ATOM      1  N   UNL A   1     -21.996   0.756  29.458  0.00  0.00    -0.129 NA
ATOM      2  C   UNL A   1     -23.330   1.524  27.535  0.00  0.00    +0.194 C 
ATOM      3  C   UNL A   1     -24.192  -0.142  29.112  0.00  0.00    +0.042 C 
ATOM      4  N   UNL A   1     -24.764   1.345  27.531  0.00  0.00    -0.245 NA
ATOM      5  C   UNL A   1     -22.896   0.308  28.362  0.00  0.00    +0.136 C 
ATOM      6  C   UNL A   1     -25.255   0.866  28.713  0.00  0.00    +0.062 C 
ENDROOT
BRANCH   4   7
ATOM      7  C   UNL A   1     -25.688   1.614  26.461  0.00  0.00    +0.130 C 
ATOM      8  C   UNL A   1     -26.250   2.920  26.395  0.00  0.00    +0.070 C 
ATOM      9  C   UNL A   1     -27.438   3.091  25.645  0.00  0.00    +0.103 C 
ATOM     10  N   UNL A   1     -28.075   2.089  25.003  0.00  0.00    -0.212 NA
ATOM     11  C   UNL A   1     -27.543   0.849  25.079  0.00  0.00    +0.235 C 
ATOM     12  C   UNL A   1     -26.354   0.576  25.777  0.00  0.00    +0.255 C 
ATOM     13  F   UNL A   1     -25.860  -0.681  25.795  0.00  0.00    -0.225 F 
BRANCH   8  14
ATOM     14  C   UNL A   1     -25.642   4.093  27.123  0.00  0.00    +0.264 C 
ATOM     15  N   UNL A   1     -25.614   5.252  26.449  0.00  0.00    -0.200 NA
ATOM     16  C   UNL A   1     -25.026   6.479  26.963  0.00  0.00    +0.139 C 
ATOM     17  O   UNL A   1     -25.143   3.966  28.243  0.00  0.00    -0.269 OA
ENDBRANCH   8  14
BRANCH  11  18
ATOM     18  O   UNL A   1     -28.193  -0.208  24.477  0.00  0.00    -0.459 OA
BRANCH  18  19
ATOM     19  C   UNL A   1     -29.460   0.005  23.866  0.00  0.00    +0.242 C 
BRANCH  19  20
ATOM     20  C   UNL A   1     -30.065  -1.377  23.573  0.00  0.00    +0.229 C 
ATOM     21  O   UNL A   1     -30.729  -1.878  24.721  0.00  0.00    -0.216 OA
ENDBRANCH  19  20
ENDBRANCH  18  19
ENDBRANCH  11  18
ENDBRANCH   4   7
BRANCH   6  23
ATOM     22  C   UNL A   1     -27.889   1.179  28.913  0.00  0.00    +0.017 C 
ATOM     23  C   UNL A   1     -26.472   0.526  28.945  0.00  0.00    +0.016 C 
ATOM     24  C   UNL A   1     -27.673  -0.306  29.002  0.00  0.00    +0.003 C 
BRANCH  22  25
ATOM     25  C   UNL A   1     -29.427   1.396  29.239  0.00  0.00    +0.072 C 
BRANCH  25  27
ATOM     26  C   UNL A   1     -32.892   1.134  24.852  0.00  0.00    +0.002 C 
ATOM     27  N   UNL A   1     -30.215   1.162  27.867  0.00  0.00    -0.272 NA
ATOM     28  C   UNL A   1     -31.988   0.429  26.019  0.00  0.00    +0.019 C 
ATOM     29  C   UNL A   1     -30.277  -0.393  27.736  0.00  0.00    +0.072 C 
ATOM     30  C   UNL A   1     -31.404  -0.828  26.907  0.00  0.00    +0.019 C 
ATOM     31  C   UNL A   1     -31.481   1.689  26.869  0.00  0.00    +0.091 C 
BRANCH  31  32
ATOM     32  C   UNL A   1     -30.930   2.958  26.178  0.00  0.00    +0.198 C 
ATOM     33  O   UNL A   1     -30.038   3.571  27.128  0.00  0.00    -0.219 OA
ENDBRANCH  31  32
ENDBRANCH  25  27
ENDBRANCH  22  25
ENDBRANCH   6  23
BRANCH   2  34
ATOM     34  O   UNL A   1     -22.553   1.686  26.427  0.00  0.00    -0.337 OA
ATOM     35  C   UNL A   1     -23.065   2.171  25.150  0.00  0.00    +0.176 C 
ENDBRANCH   2  34
BRANCH   3  36
ATOM     36  C   UNL A   1     -24.855  -1.012  30.143  0.00  0.00    +0.041 C 
BRANCH  36  37
ATOM     37  C   UNL A   1     -24.973  -2.505  29.788  0.00  0.00    -0.021 C 
ATOM     38  C   UNL A   1     -23.906  -3.173  29.146  0.00  0.00    -0.004 C 
ATOM     39  C   UNL A   1     -23.989  -4.549  28.853  0.00  0.00    -0.000 C 
ATOM     40  C   UNL A   1     -25.137  -5.280  29.205  0.00  0.00    -0.000 C 
ATOM     41  C   UNL A   1     -26.232  -4.611  29.784  0.00  0.00    -0.000 C 
ATOM     42  C   UNL A   1     -26.155  -3.232  30.065  0.00  0.00    -0.004 C 
ENDBRANCH  36  37
BRANCH  36  43
ATOM     43  C   UNL A   1     -25.387  -0.679  31.571  0.00  0.00    +0.077 C 
ATOM     44  C   UNL A   1     -25.189   0.773  32.028  0.00  0.00    +0.019 C 
ATOM     45  C   UNL A   1     -25.336   0.684  33.544  0.00  0.00    +0.020 C 
ATOM     46  C   UNL A   1     -24.829  -0.715  33.905  0.00  0.00    +0.089 C 
ATOM     47  N   UNL A   1     -24.758  -1.481  32.646  0.00  0.00    -0.219 NA
ENDBRANCH  36  43
ENDBRANCH   3  36
TORSDOF 13
