MODEL 2516
MODEL 1
REMARK VINA RESULT:    -6.034      0.000      0.000
REMARK INTER + INTRA:         -10.130
REMARK INTER:                  -8.504
REMARK INTRA:                  -1.626
REMARK UNBOUND:                -1.626
REMARK  Name = No_2516-gen_results/8p0m/2024-11-27-11-27-31/
REMARK  7 active torsions:
REMARK  status: ('A' for Active; 'I' for Inactive)
REMARK    1  A    between atoms: C_2  and  C_11
REMARK    2  A    between atoms: C_3  and  C_7
REMARK    3  A    between atoms: C_6  and  C_14
REMARK    4  A    between atoms: C_11  and  O_13
REMARK    5  A    between atoms: O_13  and  C_17
REMARK    6  A    between atoms: C_17  and  C_18
REMARK    7  A    between atoms: C_17  and  C_21
REMARK                            x       y       z     vdW  Elec       q    Type
REMARK                         _______ _______ _______ _____ _____    ______ ____
ROOT
ATOM      1  C   UNL A   1     -22.970  -1.196  28.626  0.00  0.00    +0.010 A 
ATOM      2  C   UNL A   1     -22.713  -0.336  29.178  0.00  0.00    +0.076 A 
ATOM      3  C   UNL A   1     -23.833  -2.124  29.356  0.00  0.00    +0.072 A 
ATOM      4  C   UNL A   1     -24.270  -1.865  30.631  0.00  0.00    +0.010 A 
ATOM      5  C   UNL A   1     -23.022   0.193  30.506  0.00  0.00    +0.013 A 
ATOM      6  C   UNL A   1     -23.857  -0.698  31.221  0.00  0.00    +0.080 A 
ENDROOT
BRANCH   3   7
ATOM      7  C   UNL A   1     -24.383  -3.453  28.919  0.00  0.00    +0.419 C 
ATOM      8  F   UNL A   1     -25.031  -3.409  28.016  0.00  0.00    -0.166 F 
ATOM      9  F   UNL A   1     -23.566  -4.366  28.876  0.00  0.00    -0.166 F 
ATOM     10  F   UNL A   1     -25.293  -3.857  29.991  0.00  0.00    -0.166 F 
ENDBRANCH   3   7
BRANCH   6  11
ATOM     11  C   UNL A   1     -24.290  -0.346  32.602  0.00  0.00    +0.388 C 
ATOM     12  O   UNL A   1     -24.995   0.458  32.893  0.00  0.00    -0.241 OA
ATOM     13  O   UNL A   1     -23.799  -1.222  33.503  0.00  0.00    -0.241 OA
ENDBRANCH   6  11
BRANCH   2  14
ATOM     14  C   UNL A   1     -21.827   0.800  28.408  0.00  0.00    +0.342 C 
ATOM     15  O   UNL A   1     -20.782   0.451  28.128  0.00  0.00    -0.245 OA
BRANCH  14  16
ATOM     16  O   UNL A   1     -22.331   1.961  28.135  0.00  0.00    -0.442 OA
BRANCH  16  17
ATOM     17  C   UNL A   1     -23.393   2.091  27.242  0.00  0.00    +0.226 C 
BRANCH  17  18
ATOM     18  C   UNL A   1     -24.499   2.648  27.544  0.00  0.00    +0.015 C 
ATOM     19  C   UNL A   1     -25.623   1.737  27.837  0.00  0.00    -0.027 C 
ATOM     20  C   UNL A   1     -25.670   0.505  27.183  0.00  0.00    +0.030 C 
ENDBRANCH  17  18
BRANCH  17  21
ATOM     21  C   UNL A   1     -22.851   2.213  25.821  0.00  0.00    +0.241 C 
ATOM     22  F   UNL A   1     -23.305   3.371  25.204  0.00  0.00    -0.230 F 
ENDBRANCH  17  21
ENDBRANCH  16  17
ENDBRANCH  14  16
ENDBRANCH   2  14
TORSDOF 7
ENDMDL
ENDMDL
