MODEL 2517
MODEL 1
REMARK VINA RESULT:    -5.361      0.000      0.000
REMARK INTER + INTRA:          -6.913
REMARK INTER:                  -6.614
REMARK INTRA:                  -0.298
REMARK UNBOUND:                -0.298
REMARK  Name = No_2517-gen_results/8p0m/2024-11-27-11-27-31/
REMARK  4 active torsions:
REMARK  status: ('A' for Active; 'I' for Inactive)
REMARK    1  A    between atoms: C_1  and  C_2
REMARK    2  A    between atoms: C_1  and  N_8
REMARK    3  A    between atoms: C_5  and  C_10
REMARK    4  A    between atoms: N_8  and  C_9
REMARK                            x       y       z     vdW  Elec       q    Type
REMARK                         _______ _______ _______ _____ _____    ______ ____
ROOT
ATOM      1  C   UNL A   1     -23.500  -0.634  28.563  0.00  0.00    -0.001 A 
ATOM      2  C   UNL A   1     -22.428   0.236  28.508  0.00  0.00    -0.002 A 
ATOM      3  C   UNL A   1     -22.293   1.355  27.594  0.00  0.00    +0.004 A 
ATOM      4  C   UNL A   1     -23.324   1.598  26.660  0.00  0.00    +0.057 A 
ATOM      5  C   UNL A   1     -24.454   0.706  26.716  0.00  0.00    +0.004 A 
ATOM      6  C   UNL A   1     -24.577  -0.326  27.616  0.00  0.00    -0.002 A 
ENDROOT
BRANCH   4   7
ATOM      7  C   UNL A   1     -23.270   2.675  25.723  0.00  0.00    +0.284 C 
ATOM      8  N   UNL A   1     -22.419   2.640  24.760  0.00  0.00    -0.084 NA
ATOM      9  O   UNL A   1     -24.131   3.617  25.837  0.00  0.00    -0.267 OA
ENDBRANCH   4   7
BRANCH   1  10
ATOM     10  C   UNL A   1     -23.605  -1.516  29.384  0.00  0.00    +0.139 C 
BRANCH  10  11
ATOM     11  N   UNL A   1     -23.434  -2.792  28.926  0.00  0.00    -0.232 NA
BRANCH  11  12
ATOM     12  C   UNL A   1     -24.466  -3.658  28.913  0.00  0.00    +0.076 C 
ATOM     13  C   UNL A   1     -25.424  -3.627  29.660  0.00  0.00    -0.008 C 
ATOM     14  C   UNL A   1     -26.561  -4.563  29.684  0.00  0.00    +0.032 C 
ENDBRANCH  11  12
ENDBRANCH  10  11
ENDBRANCH   1  10
TORSDOF 4
ENDMDL
ENDMDL
