MODEL 2518
MODEL 1
REMARK VINA RESULT:    -4.296      0.000      0.000
REMARK INTER + INTRA:          -4.296
REMARK INTER:                  -4.296
REMARK INTRA:                   0.000
REMARK UNBOUND:                 0.000
REMARK  Name = No_2518-gen_results/8p0m/2024-11-27-11-27-31/
REMARK  0 active torsions:
REMARK  status: ('A' for Active; 'I' for Inactive)
REMARK                            x       y       z     vdW  Elec       q    Type
REMARK                         _______ _______ _______ _____ _____    ______ ____
ROOT
ATOM      1  C   UNL A   1     -24.937  -5.387  28.970  0.00  0.00    +0.000 A 
ATOM      2  C   UNL A   1     -24.186  -4.695  28.713  0.00  0.00    +0.000 A 
ATOM      3  C   UNL A   1     -26.104  -4.776  29.606  0.00  0.00    +0.000 A 
ATOM      4  C   UNL A   1     -26.195  -3.422  29.817  0.00  0.00    +0.000 A 
ATOM      5  C   UNL A   1     -24.013  -3.245  28.808  0.00  0.00    +0.000 A 
ATOM      6  C   UNL A   1     -25.138  -2.644  29.422  0.00  0.00    +0.000 A 
ENDROOT
TORSDOF 0
ENDMDL
ENDMDL
