REMARK  Name = outputs/IAG933/test6/raw/output_2519_IAG933_linker_design_.xyz
REMARK  13 active torsions:
REMARK  status: ('A' for Active; 'I' for Inactive)
REMARK    1  A    between atoms: C_1  and  C_2
REMARK    2  A    between atoms: C_1  and  C_8
REMARK    3  A    between atoms: C_1  and  C_43
REMARK    4  A    between atoms: C_13  and  C_29
REMARK    5  A    between atoms: C_14  and  C_15
REMARK    6  A    between atoms: C_21  and  O_22
REMARK    7  A    between atoms: O_22  and  C_23
REMARK    8  A    between atoms: C_23  and  C_24
REMARK    9  A    between atoms: O_28  and  N_30
REMARK   10  A    between atoms: O_28  and  C_33
REMARK   11  A    between atoms: N_32  and  C_35
REMARK   12  A    between atoms: N_32  and  C_44
REMARK   13  A    between atoms: C_35  and  C_38
REMARK                            x       y       z     vdW  Elec       q    Type
REMARK                         _______ _______ _______ _____ _____    ______ ____
ROOT
ATOM      1  C   UNL A   1     -24.792   1.191  27.216  0.00  0.00    +0.030 C 
ATOM      2  C   UNL A   1     -22.551   1.088  27.974  0.00  0.00    +0.150 C 
ATOM      3  C   UNL A   1     -22.988   0.226  29.017  0.00  0.00    +0.028 C 
ATOM      4  C   UNL A   1     -23.441   1.469  27.056  0.00  0.00    +0.086 C 
ATOM      5 CL   UNL A   1     -23.015   2.516  25.710  0.00  0.00    -0.080 Cl
ATOM      6  C   UNL A   1     -24.340  -0.108  29.117  0.00  0.00    +0.000 C 
ATOM      7  C   UNL A   1     -25.281   0.316  28.238  0.00  0.00    +0.063 C 
ATOM      8  F   UNL A   1     -21.246   1.576  27.879  0.00  0.00    -0.203 F 
ENDROOT
BRANCH   1   9
ATOM      9  C   UNL A   1     -25.688   1.614  26.461  0.00  0.00    +0.040 C 
ATOM     10  C   UNL A   1     -26.250   2.920  26.395  0.00  0.00    +0.077 C 
ATOM     11  C   UNL A   1     -27.438   3.091  25.645  0.00  0.00    +0.107 C 
ATOM     12  N   UNL A   1     -28.075   2.089  25.003  0.00  0.00    -0.208 NA
ATOM     13  C   UNL A   1     -27.543   0.849  25.079  0.00  0.00    +0.253 C 
ATOM     14  C   UNL A   1     -26.354   0.576  25.777  0.00  0.00    +0.193 C 
ATOM     15  F   UNL A   1     -25.860  -0.681  25.795  0.00  0.00    -0.199 F 
BRANCH  10  16
ATOM     16  C   UNL A   1     -25.642   4.093  27.123  0.00  0.00    +0.266 C 
ATOM     17  N   UNL A   1     -25.614   5.252  26.449  0.00  0.00    -0.200 NA
ATOM     18  C   UNL A   1     -25.026   6.479  26.963  0.00  0.00    +0.139 C 
ATOM     19  O   UNL A   1     -25.143   3.966  28.243  0.00  0.00    -0.268 OA
ENDBRANCH  10  16
BRANCH  13  20
ATOM     20  O   UNL A   1     -28.193  -0.208  24.477  0.00  0.00    -0.456 OA
BRANCH  20  21
ATOM     21  C   UNL A   1     -29.460   0.005  23.866  0.00  0.00    +0.243 C 
BRANCH  21  22
ATOM     22  C   UNL A   1     -30.065  -1.377  23.573  0.00  0.00    +0.229 C 
ATOM     23  O   UNL A   1     -30.729  -1.878  24.721  0.00  0.00    -0.216 OA
ENDBRANCH  21  22
ENDBRANCH  20  21
ENDBRANCH  13  20
ENDBRANCH   1   9
BRANCH   6  24
ATOM     24  C   UNL A   1     -24.855  -1.012  30.143  0.00  0.00    +0.062 C 
BRANCH  24  25
ATOM     25  C   UNL A   1     -24.973  -2.505  29.788  0.00  0.00    -0.017 C 
ATOM     26  C   UNL A   1     -23.906  -3.173  29.146  0.00  0.00    -0.004 C 
ATOM     27  C   UNL A   1     -23.989  -4.549  28.853  0.00  0.00    -0.000 C 
ATOM     28  C   UNL A   1     -25.137  -5.280  29.205  0.00  0.00    -0.000 C 
ATOM     29  C   UNL A   1     -26.232  -4.611  29.784  0.00  0.00    -0.000 C 
ATOM     30  C   UNL A   1     -26.155  -3.232  30.065  0.00  0.00    -0.004 C 
ENDBRANCH  24  25
BRANCH  24  31
ATOM     31  C   UNL A   1     -25.387  -0.679  31.571  0.00  0.00    +0.081 C 
ATOM     32  C   UNL A   1     -25.189   0.773  32.028  0.00  0.00    +0.019 C 
ATOM     33  C   UNL A   1     -25.336   0.684  33.544  0.00  0.00    +0.020 C 
ATOM     34  C   UNL A   1     -24.829  -0.715  33.905  0.00  0.00    +0.089 C 
ATOM     35  N   UNL A   1     -24.758  -1.481  32.646  0.00  0.00    -0.219 NA
ENDBRANCH  24  31
ENDBRANCH   6  24
BRANCH   7  36
ATOM     36  N   UNL A   1     -26.706  -0.073  28.316  0.00  0.00    -0.235 NA
BRANCH  36  37
ATOM     37  C   UNL A   1     -27.320   0.363  29.572  0.00  0.00    +0.142 C 
BRANCH  37  41
ATOM     38  N   UNL A   1     -30.720   0.418  31.474  0.00  0.00    -0.136 NA
ATOM     39  C   UNL A   1     -29.967   1.540  31.659  0.00  0.00    +0.106 C 
ATOM     40  C   UNL A   1     -28.657   1.393  31.154  0.00  0.00    +0.051 C 
ATOM     41  C   UNL A   1     -28.724   0.993  29.698  0.00  0.00    +0.140 C 
ATOM     42  O   UNL A   1     -29.553   0.115  29.387  0.00  0.00    -0.337 OA
ATOM     43  C   UNL A   1     -30.805  -0.086  30.073  0.00  0.00    +0.245 C 
BRANCH  38  44
ATOM     44  O   UNL A   1     -31.755   0.365  32.307  0.00  0.00    -0.280 OA
BRANCH  44  46
ATOM     45  C   UNL A   1     -32.293   1.144  34.760  0.00  0.00    +0.037 C 
ATOM     46  C   UNL A   1     -31.342   0.981  33.569  0.00  0.00    +0.167 C 
ENDBRANCH  44  46
ENDBRANCH  38  44
ENDBRANCH  37  41
ENDBRANCH  36  37
ENDBRANCH   7  36
TORSDOF 13
