MODEL 2519
MODEL 1
REMARK VINA RESULT:    -6.316      0.000      0.000
REMARK INTER + INTRA:         -10.099
REMARK INTER:                  -9.269
REMARK INTRA:                  -0.830
REMARK UNBOUND:                -0.830
REMARK  Name = No_2519-gen_results/8p0m/2024-11-27-11-27-31/
REMARK  8 active torsions:
REMARK  status: ('A' for Active; 'I' for Inactive)
REMARK    1  A    between atoms: C_3  and  O_12
REMARK    2  A    between atoms: C_5  and  C_9
REMARK    3  A    between atoms: C_9  and  O_11
REMARK    4  A    between atoms: O_11  and  C_18
REMARK    5  A    between atoms: O_12  and  C_13
REMARK    6  A    between atoms: C_13  and  C_14
REMARK    7  A    between atoms: C_18  and  C_19
REMARK    8  A    between atoms: C_18  and  C_21
REMARK                            x       y       z     vdW  Elec       q    Type
REMARK                         _______ _______ _______ _____ _____    ______ ____
ROOT
ATOM      1  F   UNL A   1     -21.589   0.306  29.551  0.00  0.00    -0.199 F 
ATOM      2  C   UNL A   1     -22.380   0.334  28.723  0.00  0.00    +0.202 A 
ATOM      3  C   UNL A   1     -23.321  -0.539  28.819  0.00  0.00    +0.179 A 
ATOM      4  C   UNL A   1     -24.471  -0.650  27.891  0.00  0.00    +0.046 A 
ATOM      5  C   UNL A   1     -24.485   0.327  26.835  0.00  0.00    +0.081 A 
ATOM      6  C   UNL A   1     -23.467   1.253  26.819  0.00  0.00    +0.039 A 
ATOM      7  C   UNL A   1     -22.463   1.289  27.739  0.00  0.00    +0.171 A 
ATOM      8  F   UNL A   1     -21.561   2.200  27.658  0.00  0.00    -0.202 F 
ENDROOT
BRANCH   5   9
ATOM      9  C   UNL A   1     -25.581   0.222  25.892  0.00  0.00    +0.342 C 
ATOM     10  O   UNL A   1     -25.258  -0.007  24.720  0.00  0.00    -0.245 OA
BRANCH   9  11
ATOM     11  O   UNL A   1     -26.773   0.028  26.396  0.00  0.00    -0.440 OA
BRANCH  11  12
ATOM     12  C   UNL A   1     -27.846   0.715  25.743  0.00  0.00    +0.244 C 
BRANCH  12  13
ATOM     13  C   UNL A   1     -28.767   0.188  25.117  0.00  0.00    +0.164 A 
ATOM     14  C   UNL A   1     -28.525  -0.343  23.794  0.00  0.00    +0.040 A 
ATOM     15  C   UNL A   1     -29.437  -1.204  23.328  0.00  0.00    +0.044 A 
ATOM     16  C   UNL A   1     -30.439  -1.763  24.279  0.00  0.00    +0.179 A 
ATOM     17  O   UNL A   1     -29.876  -0.354  25.520  0.00  0.00    -0.451 OA
ENDBRANCH  12  13
BRANCH  12  18
ATOM     18  C   UNL A   1     -27.672   2.160  25.727  0.00  0.00    +0.161 C 
ATOM     19  N   UNL A   1     -27.717   2.799  24.485  0.00  0.00    -0.127 NA
ENDBRANCH  12  18
ENDBRANCH  11  12
ENDBRANCH   9  11
ENDBRANCH   5   9
BRANCH   3  20
ATOM     20  O   UNL A   1     -23.403  -1.548  29.759  0.00  0.00    -0.414 OA
BRANCH  20  21
ATOM     21  C   UNL A   1     -24.216  -1.361  30.758  0.00  0.00    +0.427 C 
ATOM     22  O   UNL A   1     -25.230  -2.150  30.839  0.00  0.00    -0.237 OA
BRANCH  21  23
ATOM     23  C   UNL A   1     -23.694  -0.950  32.007  0.00  0.00    +0.463 C 
ATOM     24  O   UNL A   1     -22.439  -1.065  32.269  0.00  0.00    -0.233 OA
ATOM     25  O   UNL A   1     -24.595  -0.795  33.058  0.00  0.00    -0.233 OA
ENDBRANCH  21  23
ENDBRANCH  20  21
ENDBRANCH   3  20
TORSDOF 8
ENDMDL
ENDMDL
