MODEL 251
MODEL 1
REMARK VINA RESULT:    -7.135      0.000      0.000
REMARK INTER + INTRA:         -13.722
REMARK INTER:                 -10.890
REMARK INTRA:                  -2.833
REMARK UNBOUND:                -2.833
REMARK  Name = No_251-gen_results/8p0m/2024-11-27-11-27-31/
REMARK  9 active torsions:
REMARK  status: ('A' for Active; 'I' for Inactive)
REMARK    1  A    between atoms: C_1  and  C_26
REMARK    2  A    between atoms: C_2  and  C_10
REMARK    3  A    between atoms: C_5  and  C_7
REMARK    4  A    between atoms: C_11  and  C_16
REMARK    5  A    between atoms: C_16  and  C_17
REMARK    6  A    between atoms: C_16  and  C_23
REMARK    7  A    between atoms: C_18  and  O_29
REMARK    8  A    between atoms: C_23  and  O_24
REMARK    9  A    between atoms: O_29  and  C_30
REMARK                            x       y       z     vdW  Elec       q    Type
REMARK                         _______ _______ _______ _____ _____    ______ ____
ROOT
ATOM      1  C   UNL A   1     -26.021   1.839  26.831  0.00  0.00    -0.003 A 
ATOM      2  C   UNL A   1     -25.001   0.881  27.129  0.00  0.00    -0.016 A 
ATOM      3  C   UNL A   1     -24.828  -0.070  26.134  0.00  0.00    -0.004 A 
ATOM      4  C   UNL A   1     -25.768  -0.328  25.114  0.00  0.00    -0.000 A 
ATOM      5  C   UNL A   1     -26.740   0.647  24.901  0.00  0.00    -0.000 A 
ATOM      6  C   UNL A   1     -26.840   1.795  25.684  0.00  0.00    -0.000 A 
ENDROOT
BRANCH   1   8
ATOM      7  C   UNL A   1     -26.545   3.755  28.260  0.00  0.00    +0.080 A 
ATOM      8  C   UNL A   1     -25.831   3.306  27.394  0.00  0.00    +0.006 A 
ATOM      9  C   UNL A   1     -24.895   4.058  26.709  0.00  0.00    +0.000 A 
ATOM     10  C   UNL A   1     -24.740   5.424  27.075  0.00  0.00    +0.007 A 
ATOM     11  C   UNL A   1     -25.438   5.833  28.160  0.00  0.00    +0.080 A 
ATOM     12  C   UNL A   1     -26.283   5.031  28.780  0.00  0.00    +0.013 A 
BRANCH  11  13
ATOM     13  C   UNL A   1     -25.242   7.247  28.543  0.00  0.00    +0.388 C 
ATOM     14  O   UNL A   1     -24.698   7.451  29.495  0.00  0.00    -0.241 OA
ATOM     15  O   UNL A   1     -25.761   8.235  27.833  0.00  0.00    -0.241 OA
ENDBRANCH  11  13
BRANCH   7  16
ATOM     16  C   UNL A   1     -27.560   2.889  29.034  0.00  0.00    +0.388 C 
ATOM     17  O   UNL A   1     -28.714   2.799  28.569  0.00  0.00    -0.241 OA
ATOM     18  O   UNL A   1     -27.340   2.598  30.249  0.00  0.00    -0.241 OA
ENDBRANCH   7  16
ENDBRANCH   1   8
BRANCH   2  19
ATOM     19  C   UNL A   1     -24.102   0.926  28.226  0.00  0.00    +0.077 C 
BRANCH  19  20
ATOM     20  C   UNL A   1     -24.622   0.596  29.474  0.00  0.00    +0.019 A 
ATOM     21  C   UNL A   1     -25.205  -0.236  29.831  0.00  0.00    +0.142 A 
ATOM     22  C   UNL A   1     -25.660  -0.483  31.228  0.00  0.00    +0.037 A 
ATOM     23  C   UNL A   1     -25.208   0.405  32.163  0.00  0.00    +0.003 A 
ATOM     24  C   UNL A   1     -24.424   1.451  31.812  0.00  0.00    -0.000 A 
ATOM     25  C   UNL A   1     -24.064   1.628  30.486  0.00  0.00    -0.001 A 
BRANCH  21  26
ATOM     26  O   UNL A   1     -25.770  -1.199  28.982  0.00  0.00    -0.454 OA
BRANCH  26  27
ATOM     27  C   UNL A   1     -25.454  -2.530  29.201  0.00  0.00    +0.145 A 
ATOM     28  C   UNL A   1     -26.475  -3.258  29.772  0.00  0.00    +0.037 A 
ATOM     29  C   UNL A   1     -26.280  -4.704  29.710  0.00  0.00    +0.003 A 
ATOM     30  C   UNL A   1     -25.040  -5.215  29.254  0.00  0.00    +0.000 A 
ATOM     31  C   UNL A   1     -24.076  -4.391  28.702  0.00  0.00    +0.003 A 
ATOM     32  C   UNL A   1     -24.336  -2.991  28.615  0.00  0.00    +0.037 A 
ENDBRANCH  26  27
ENDBRANCH  21  26
ENDBRANCH  19  20
BRANCH  19  33
ATOM     33  C   UNL A   1     -22.879   0.018  27.989  0.00  0.00    +0.151 C 
BRANCH  33  34
ATOM     34  O   UNL A   1     -21.726   0.769  28.113  0.00  0.00    -0.350 OA
ATOM     35  C   UNL A   1     -21.576   1.854  27.287  0.00  0.00    +0.174 C 
ENDBRANCH  33  34
ENDBRANCH  19  33
ENDBRANCH   2  19
TORSDOF 9
ENDMDL
ENDMDL
