MODEL 2520
MODEL 1
REMARK VINA RESULT:    -6.834      0.000      0.000
REMARK INTER + INTRA:          -7.586
REMARK INTER:                  -7.233
REMARK INTRA:                  -0.353
REMARK UNBOUND:                -0.353
REMARK  Name = No_2520-gen_results/8p0m/2024-11-27-11-27-31/
REMARK  1 active torsions:
REMARK  status: ('A' for Active; 'I' for Inactive)
REMARK    1  A    between atoms: C_2  and  C_8
REMARK                            x       y       z     vdW  Elec       q    Type
REMARK                         _______ _______ _______ _____ _____    ______ ____
ROOT
ATOM      1  C   UNL A   1     -24.257  -0.432  27.851  0.00  0.00    +0.011 A 
ATOM      2  C   UNL A   1     -23.874  -1.310  28.588  0.00  0.00    +0.001 A 
ATOM      3  C   UNL A   1     -22.641  -1.225  29.227  0.00  0.00    +0.000 A 
ATOM      4  C   UNL A   1     -21.762  -0.108  28.993  0.00  0.00    +0.001 A 
ATOM      5  C   UNL A   1     -22.274   0.849  28.108  0.00  0.00    +0.011 A 
ATOM      6  C   UNL A   1     -23.439   0.713  27.517  0.00  0.00    +0.058 A 
ATOM      7 CL   UNL A   1     -23.938   1.913  26.415  0.00  0.00    -0.082 Cl
ENDROOT
BRANCH   2   8
ATOM      8  C   UNL A   1     -24.636  -2.552  28.921  0.00  0.00    +0.000 A 
ATOM      9  C   UNL A   1     -25.524  -2.670  29.405  0.00  0.00    +0.000 A 
ATOM     10  C   UNL A   1     -26.326  -3.387  29.837  0.00  0.00    +0.000 A 
ATOM     11  C   UNL A   1     -25.995  -4.842  29.630  0.00  0.00    +0.000 A 
ATOM     12  C   UNL A   1     -24.787  -5.081  28.977  0.00  0.00    +0.000 A 
ATOM     13  C   UNL A   1     -24.058  -3.969  28.558  0.00  0.00    +0.000 A 
ENDBRANCH   2   8
TORSDOF 1
ENDMDL
ENDMDL
