MODEL 2521
MODEL 1
REMARK VINA RESULT:    -7.171      0.000      0.000
REMARK INTER + INTRA:         -10.348
REMARK INTER:                  -8.848
REMARK INTRA:                  -1.501
REMARK UNBOUND:                -1.501
REMARK  Name = No_2521-gen_results/8p0m/2024-11-27-11-27-31/
REMARK  4 active torsions:
REMARK  status: ('A' for Active; 'I' for Inactive)
REMARK    1  A    between atoms: C_3  and  C_7
REMARK    2  A    between atoms: C_8  and  C_13
REMARK    3  A    between atoms: N_15  and  C_16
REMARK    4  A    between atoms: C_16  and  C_17
REMARK                            x       y       z     vdW  Elec       q    Type
REMARK                         _______ _______ _______ _____ _____    ______ ____
ROOT
ATOM      1  C   UNL A   1     -24.601  -2.668  28.856  0.00  0.00    +0.004 A 
ATOM      2  C   UNL A   1     -25.792  -2.819  29.499  0.00  0.00    +0.055 A 
ATOM      3  C   UNL A   1     -26.293  -4.085  29.780  0.00  0.00    +0.005 A 
ATOM      4  C   UNL A   1     -25.588  -5.252  29.374  0.00  0.00    +0.000 A 
ATOM      5  C   UNL A   1     -24.395  -5.099  28.772  0.00  0.00    +0.000 A 
ATOM      6  C   UNL A   1     -23.885  -3.855  28.507  0.00  0.00    +0.000 A 
ENDROOT
BRANCH   1   9
ATOM      7  C   UNL A   1     -24.041   0.739  27.586  0.00  0.00    +0.000 A 
ATOM      8  C   UNL A   1     -24.559  -0.339  27.764  0.00  0.00    +0.000 A 
ATOM      9  C   UNL A   1     -24.017  -1.329  28.582  0.00  0.00    +0.000 A 
ATOM     10  C   UNL A   1     -22.734  -1.097  29.216  0.00  0.00    +0.000 A 
ATOM     11  C   UNL A   1     -22.185   0.179  28.955  0.00  0.00    +0.000 A 
ATOM     12  C   UNL A   1     -22.767   1.045  28.165  0.00  0.00    +0.000 A 
ENDBRANCH   1   9
BRANCH   2  13
ATOM     13  C   UNL A   1     -26.627  -1.624  29.876  0.00  0.00    +0.265 C 
ATOM     14  O   UNL A   1     -27.557  -1.243  29.330  0.00  0.00    -0.268 OA
ATOM     15  N   UNL A   1     -26.379  -1.180  31.191  0.00  0.00    -0.197 NA
BRANCH  15  16
ATOM     16  C   UNL A   1     -27.122  -0.078  31.758  0.00  0.00    +0.142 C 
BRANCH  16  17
ATOM     17  C   UNL A   1     -26.267   1.028  31.889  0.00  0.00    -0.001 A 
ATOM     18  C   UNL A   1     -24.984   0.995  31.324  0.00  0.00    -0.003 A 
ATOM     19  C   UNL A   1     -24.189   2.111  31.457  0.00  0.00    -0.000 A 
ATOM     20  C   UNL A   1     -24.545   3.214  32.211  0.00  0.00    -0.000 A 
ATOM     21  C   UNL A   1     -25.822   3.249  32.810  0.00  0.00    -0.000 A 
ATOM     22  C   UNL A   1     -26.648   2.157  32.673  0.00  0.00    -0.003 A 
ENDBRANCH  16  17
ENDBRANCH  15  16
ENDBRANCH   2  13
TORSDOF 4
ENDMDL
ENDMDL
