MODEL 2523
MODEL 1
REMARK VINA RESULT:    -4.027      0.000      0.000
REMARK INTER + INTRA:          -4.718
REMARK INTER:                  -4.498
REMARK INTRA:                  -0.220
REMARK UNBOUND:                -0.220
REMARK  Name = No_2523-gen_results/8p0m/2024-11-27-11-27-31/
REMARK  2 active torsions:
REMARK  status: ('A' for Active; 'I' for Inactive)
REMARK    1  A    between atoms: C_3  and  C_4
REMARK    2  A    between atoms: C_5  and  C_6
REMARK                            x       y       z     vdW  Elec       q    Type
REMARK                         _______ _______ _______ _____ _____    ______ ____
ROOT
ATOM      1  C   UNL A   1     -26.269  -4.508  29.677  0.00  0.00    +0.026 C 
ATOM      2  C   UNL A   1     -25.223  -4.094  29.234  0.00  0.00    -0.044 C 
ATOM      3  C   UNL A   1     -24.808  -2.789  29.474  0.00  0.00    -0.009 C 
ATOM      4  C   UNL A   1     -24.216  -4.865  28.575  0.00  0.00    +0.026 C 
ENDROOT
BRANCH   3   5
ATOM      5  C   UNL A   1     -23.550  -2.160  28.977  0.00  0.00    -0.002 C 
ATOM      6  C   UNL A   1     -22.988  -1.148  29.810  0.00  0.00    +0.012 C 
BRANCH   6   7
ATOM      7  C   UNL A   1     -23.626  -0.919  31.045  0.00  0.00    +0.220 C 
ATOM      8  F   UNL A   1     -23.030  -1.566  32.061  0.00  0.00    -0.229 F 
ENDBRANCH   6   7
ENDBRANCH   3   5
TORSDOF 2
ENDMDL
ENDMDL
