REMARK  Name = outputs/IAG933/test6/raw/output_2523_IAG933_linker_design_.xyz
REMARK  15 active torsions:
REMARK  status: ('A' for Active; 'I' for Inactive)
REMARK    1  A    between atoms: C_1  and  C_2
REMARK    2  A    between atoms: C_1  and  C_8
REMARK    3  A    between atoms: C_9  and  C_45
REMARK    4  A    between atoms: C_13  and  C_30
REMARK    5  A    between atoms: C_14  and  C_15
REMARK    6  A    between atoms: C_21  and  O_22
REMARK    7  A    between atoms: O_22  and  C_23
REMARK    8  A    between atoms: C_23  and  C_24
REMARK    9  A    between atoms: N_29  and  C_30
REMARK   10  A    between atoms: C_33  and  C_40
REMARK   11  A    between atoms: C_34  and  C_47
REMARK   12  A    between atoms: N_35  and  C_38
REMARK   13  A    between atoms: C_40  and  C_45
REMARK   14  A    between atoms: S_42  and  C_47
REMARK   15  A    between atoms: C_45  and  C_47
REMARK                            x       y       z     vdW  Elec       q    Type
REMARK                         _______ _______ _______ _____ _____    ______ ____
ROOT
ATOM      1  C   UNL A   1     -24.706   2.172  31.417  0.00  0.00    +0.031 C 
ENDROOT
BRANCH   1   3
ATOM      2  C   UNL A   1     -25.387  -0.679  31.571  0.00  0.00    +0.077 C 
ATOM      3  C   UNL A   1     -25.189   0.773  32.028  0.00  0.00    +0.020 C 
ATOM      4  C   UNL A   1     -25.336   0.684  33.544  0.00  0.00    +0.020 C 
ATOM      5  C   UNL A   1     -24.829  -0.715  33.905  0.00  0.00    +0.089 C 
ATOM      6  N   UNL A   1     -24.758  -1.481  32.646  0.00  0.00    -0.219 NA
BRANCH   2   7
ATOM      7  C   UNL A   1     -24.855  -1.012  30.143  0.00  0.00    +0.044 C 
BRANCH   7   8
ATOM      8  C   UNL A   1     -24.973  -2.505  29.788  0.00  0.00    -0.021 C 
ATOM      9  C   UNL A   1     -23.906  -3.173  29.146  0.00  0.00    -0.004 C 
ATOM     10  C   UNL A   1     -23.989  -4.549  28.853  0.00  0.00    -0.000 C 
ATOM     11  C   UNL A   1     -25.137  -5.280  29.205  0.00  0.00    -0.000 C 
ATOM     12  C   UNL A   1     -26.232  -4.611  29.784  0.00  0.00    -0.000 C 
ATOM     13  C   UNL A   1     -26.155  -3.232  30.065  0.00  0.00    -0.004 C 
ENDBRANCH   7   8
ENDBRANCH   2   7
ENDBRANCH   1   3
BRANCH   1  14
ATOM     14  C   UNL A   1     -24.336   1.566  30.144  0.00  0.00    +0.043 C 
BRANCH  14  18
ATOM     15  C   UNL A   1     -22.468   2.442  25.534  0.00  0.00    +0.034 C 
ATOM     16  N   UNL A   1     -23.592   1.546  27.676  0.00  0.00    -0.299 N 
ATOM     17  C   UNL A   1     -22.057   0.989  29.005  0.00  0.00    +0.043 C 
ATOM     18  C   UNL A   1     -23.405   1.419  29.016  0.00  0.00    +0.032 C 
ATOM     19  C   UNL A   1     -22.509   1.756  26.898  0.00  0.00    +0.125 C 
ATOM     20  S   UNL A   1     -21.178   1.139  27.617  0.00  0.00    -0.093 S 
BRANCH  16  21
ATOM     21  C   UNL A   1     -24.729   1.139  27.070  0.00  0.00    +0.121 C 
BRANCH  21  22
ATOM     22  C   UNL A   1     -25.688   1.614  26.461  0.00  0.00    +0.036 C 
ATOM     23  C   UNL A   1     -26.250   2.920  26.395  0.00  0.00    +0.074 C 
ATOM     24  C   UNL A   1     -27.438   3.091  25.645  0.00  0.00    +0.106 C 
ATOM     25  N   UNL A   1     -28.075   2.089  25.003  0.00  0.00    -0.208 NA
ATOM     26  C   UNL A   1     -27.543   0.849  25.079  0.00  0.00    +0.253 C 
ATOM     27  C   UNL A   1     -26.354   0.576  25.777  0.00  0.00    +0.191 C 
ATOM     28  F   UNL A   1     -25.860  -0.681  25.795  0.00  0.00    -0.200 F 
BRANCH  23  29
ATOM     29  C   UNL A   1     -25.642   4.093  27.123  0.00  0.00    +0.266 C 
ATOM     30  N   UNL A   1     -25.614   5.252  26.449  0.00  0.00    -0.200 NA
ATOM     31  C   UNL A   1     -25.026   6.479  26.963  0.00  0.00    +0.139 C 
ATOM     32  O   UNL A   1     -25.143   3.966  28.243  0.00  0.00    -0.268 OA
ENDBRANCH  23  29
BRANCH  26  33
ATOM     33  O   UNL A   1     -28.193  -0.208  24.477  0.00  0.00    -0.456 OA
BRANCH  33  34
ATOM     34  C   UNL A   1     -29.460   0.005  23.866  0.00  0.00    +0.243 C 
BRANCH  34  35
ATOM     35  C   UNL A   1     -30.065  -1.377  23.573  0.00  0.00    +0.229 C 
ATOM     36  O   UNL A   1     -30.729  -1.878  24.721  0.00  0.00    -0.216 OA
ENDBRANCH  34  35
ENDBRANCH  33  34
ENDBRANCH  26  33
ENDBRANCH  21  22
ENDBRANCH  16  21
ENDBRANCH  14  18
ENDBRANCH   1  14
BRANCH   1  37
ATOM     37  C   UNL A   1     -25.514   3.723  31.079  0.00  0.00    +0.157 C 
BRANCH  37  39
ATOM     38  C   UNL A   1     -27.174   6.352  30.837  0.00  0.00    +0.130 C 
ATOM     39  C   UNL A   1     -26.764   5.056  30.782  0.00  0.00    +0.120 C 
ATOM     40  N   UNL A   1     -27.895   4.565  30.207  0.00  0.00    -0.155 NA
ATOM     41  N   UNL A   1     -28.485   6.358  30.433  0.00  0.00    -0.114 NA
ATOM     42  N   UNL A   1     -28.616   5.389  29.971  0.00  0.00    -0.052 NA
BRANCH  40  43
ATOM     43  C   UNL A   1     -28.123   3.225  29.685  0.00  0.00    +0.275 C 
ATOM     44  O   UNL A   1     -29.364   3.017  29.171  0.00  0.00    -0.199 OA
ENDBRANCH  40  43
ENDBRANCH  37  39
BRANCH  37  47
ATOM     45  O   UNL A   1     -24.618   5.545  32.557  0.00  0.00    -0.164 OA
ATOM     46  O   UNL A   1     -25.921   3.873  33.663  0.00  0.00    -0.066 OA
ATOM     47  S   UNL A   1     -25.445   4.491  32.428  0.00  0.00    +0.040 S 
ENDBRANCH  37  47
ENDBRANCH   1  37
TORSDOF 15
