MODEL 2524
MODEL 1
REMARK VINA RESULT:    -6.171      0.000      0.000
REMARK INTER + INTRA:          -7.888
REMARK INTER:                  -7.614
REMARK INTRA:                  -0.274
REMARK UNBOUND:                -0.274
REMARK  Name = No_2524-gen_results/8p0m/2024-11-27-11-27-31/
REMARK  4 active torsions:
REMARK  status: ('A' for Active; 'I' for Inactive)
REMARK    1  A    between atoms: C_6  and  O_13
REMARK    2  A    between atoms: C_8  and  C_11
REMARK    3  A    between atoms: O_13  and  C_14
REMARK    4  A    between atoms: C_14  and  C_15
REMARK                            x       y       z     vdW  Elec       q    Type
REMARK                         _______ _______ _______ _____ _____    ______ ____
ROOT
ATOM      1  C   UNL A   1     -29.880 -11.505  27.799  0.00  0.00    +0.037 A 
ATOM      2  C   UNL A   1     -29.106 -11.955  28.612  0.00  0.00    +0.003 A 
ATOM      3  C   UNL A   1     -28.999 -11.483  29.920  0.00  0.00    +0.001 A 
ATOM      4  C   UNL A   1     -29.811 -10.355  30.332  0.00  0.00    +0.003 A 
ATOM      5  C   UNL A   1     -30.684  -9.877  29.328  0.00  0.00    +0.037 A 
ATOM      6  C   UNL A   1     -30.709 -10.382  28.121  0.00  0.00    +0.139 A 
ATOM      7  C   UNL A   1     -28.082 -11.994  30.972  0.00  0.00    +0.010 A 
ATOM      8  C   UNL A   1     -28.108 -11.599  32.223  0.00  0.00    +0.068 A 
ATOM      9  C   UNL A   1     -29.095 -10.556  32.552  0.00  0.00    +0.010 A 
ATOM     10  C   UNL A   1     -29.882  -9.949  31.669  0.00  0.00    +0.001 A 
ENDROOT
BRANCH   8  11
ATOM     11  C   UNL A   1     -27.273 -12.115  33.285  0.00  0.00    +0.100 C 
ATOM     12  N   UNL A   1     -27.306 -12.317  34.300  0.00  0.00    -0.191 NA
ENDBRANCH   8  11
BRANCH   6  13
ATOM     13  O   UNL A   1     -31.508  -9.822  27.137  0.00  0.00    -0.466 OA
BRANCH  13  14
ATOM     14  C   UNL A   1     -32.453  -8.876  27.465  0.00  0.00    +0.291 C 
BRANCH  14  15
ATOM     15  C   UNL A   1     -32.447  -7.715  26.532  0.00  0.00    +0.286 C 
ATOM     16  O   UNL A   1     -31.383  -7.376  26.276  0.00  0.00    -0.269 OA
ATOM     17  N   UNL A   1     -33.473  -7.465  25.800  0.00  0.00    -0.200 NA
ATOM     18  C   UNL A   1     -33.473  -6.383  24.835  0.00  0.00    +0.139 C 
ENDBRANCH  14  15
ENDBRANCH  13  14
ENDBRANCH   6  13
TORSDOF 4
ENDMDL
ENDMDL
