MODEL 2525
MODEL 1
REMARK VINA RESULT:    -7.184      0.000      0.000
REMARK INTER + INTRA:         -11.790
REMARK INTER:                 -10.124
REMARK INTRA:                  -1.667
REMARK UNBOUND:                -1.667
REMARK  Name = No_2525-gen_results/8p0m/2024-11-27-11-27-31/
REMARK  7 active torsions:
REMARK  status: ('A' for Active; 'I' for Inactive)
REMARK    1  A    between atoms: C_2  and  O_7
REMARK    2  A    between atoms: O_7  and  C_8
REMARK    3  A    between atoms: C_9  and  O_31
REMARK    4  A    between atoms: C_11  and  C_28
REMARK    5  A    between atoms: N_21  and  C_22
REMARK    6  A    between atoms: O_31  and  C_32
REMARK    7  A    between atoms: C_32  and  C_33
REMARK                            x       y       z     vdW  Elec       q    Type
REMARK                         _______ _______ _______ _____ _____    ______ ____
ROOT
ATOM      1  C   UNL A   1     -12.414   1.509  39.746  0.00  0.00    +0.052 A 
ATOM      2  C   UNL A   1     -12.366   2.555  39.863  0.00  0.00    +0.147 A 
ATOM      3  C   UNL A   1     -12.177   0.700  40.952  0.00  0.00    +0.055 A 
ATOM      4  C   UNL A   1     -12.033   1.323  42.226  0.00  0.00    -0.004 A 
ATOM      5  C   UNL A   1     -12.291   3.438  41.059  0.00  0.00    +0.037 A 
ATOM      6  C   UNL A   1     -12.060   2.724  42.197  0.00  0.00    +0.000 A 
ATOM      7  C   UNL A   1     -11.825   0.570  43.422  0.00  0.00    +0.055 C 
ATOM      8  C   UNL A   1     -11.684  -0.726  43.462  0.00  0.00    -0.004 A 
ATOM      9  C   UNL A   1     -11.250  -1.424  44.681  0.00  0.00    -0.003 A 
ATOM     10  C   UNL A   1     -10.714  -2.680  44.584  0.00  0.00    -0.000 A 
ATOM     11  C   UNL A   1      -9.952  -2.957  43.353  0.00  0.00    +0.001 A 
ATOM     12  C   UNL A   1     -10.171  -2.155  42.183  0.00  0.00    +0.015 A 
ATOM     13  C   UNL A   1     -10.917  -1.111  42.261  0.00  0.00    +0.052 A 
ATOM     14  N   UNL A   1     -11.621  -0.608  40.931  0.00  0.00    -0.266 N 
ENDROOT
BRANCH  14  15
ATOM     15  C   UNL A   1     -11.535  -1.366  39.815  0.00  0.00    +0.056 A 
ATOM     16  C   UNL A   1     -12.410  -2.310  39.611  0.00  0.00    +0.015 A 
ATOM     17  C   UNL A   1     -10.753  -0.828  38.736  0.00  0.00    +0.015 A 
ATOM     18  C   UNL A   1     -10.680  -1.554  37.535  0.00  0.00    +0.001 A 
ATOM     19  C   UNL A   1     -11.517  -2.638  37.365  0.00  0.00    +0.000 A 
ATOM     20  C   UNL A   1     -12.370  -3.011  38.384  0.00  0.00    +0.001 A 
ENDBRANCH  14  15
BRANCH   2  21
ATOM     21  O   UNL A   1     -12.601   3.375  38.678  0.00  0.00    -0.450 OA
BRANCH  21  22
ATOM     22  C   UNL A   1     -12.115   2.934  37.567  0.00  0.00    +0.179 A 
ATOM     23  C   UNL A   1     -12.743   2.485  36.558  0.00  0.00    +0.174 A 
ATOM     24  C   UNL A   1     -12.228   1.898  35.381  0.00  0.00    +0.047 A 
ATOM     25  C   UNL A   1     -10.818   1.866  35.322  0.00  0.00    +0.083 A 
ATOM     26  C   UNL A   1     -10.638   2.782  37.470  0.00  0.00    +0.041 A 
ATOM     27  C   UNL A   1     -10.053   2.326  36.371  0.00  0.00    +0.010 A 
BRANCH  25  28
ATOM     28  C   UNL A   1     -10.186   1.358  34.049  0.00  0.00    +0.388 C 
ATOM     29  O   UNL A   1     -10.811   1.394  33.086  0.00  0.00    -0.241 OA
ATOM     30  O   UNL A   1      -9.135   0.654  34.162  0.00  0.00    -0.241 OA
ENDBRANCH  25  28
BRANCH  23  31
ATOM     31  O   UNL A   1     -14.121   2.467  36.654  0.00  0.00    -0.461 OA
BRANCH  31  32
ATOM     32  C   UNL A   1     -14.905   3.327  35.989  0.00  0.00    +0.319 C 
BRANCH  32  33
ATOM     33  C   UNL A   1     -15.963   3.704  36.883  0.00  0.00    +0.408 C 
ATOM     34  O   UNL A   1     -16.054   3.339  37.891  0.00  0.00    -0.241 OA
ATOM     35  O   UNL A   1     -16.902   4.535  36.297  0.00  0.00    -0.241 OA
ENDBRANCH  32  33
ENDBRANCH  31  32
ENDBRANCH  23  31
ENDBRANCH  21  22
ENDBRANCH   2  21
TORSDOF 7
ENDMDL
ENDMDL
