REMARK  Name = outputs/IAG933/test6/raw/output_2525_IAG933_linker_design_.xyz
REMARK  16 active torsions:
REMARK  status: ('A' for Active; 'I' for Inactive)
REMARK    1  A    between atoms: C_1  and  C_2
REMARK    2  A    between atoms: C_1  and  C_8
REMARK    3  A    between atoms: C_1  and  C_28
REMARK    4  A    between atoms: C_13  and  N_48
REMARK    5  A    between atoms: C_14  and  C_15
REMARK    6  A    between atoms: C_21  and  O_22
REMARK    7  A    between atoms: O_22  and  C_23
REMARK    8  A    between atoms: C_23  and  C_24
REMARK    9  A    between atoms: C_29  and  C_34
REMARK   10  A    between atoms: C_29  and  O_38
REMARK   11  A    between atoms: C_29  and  C_40
REMARK   12  A    between atoms: N_31  and  C_34
REMARK   13  A    between atoms: C_35  and  C_45
REMARK   14  A    between atoms: O_38  and  C_44
REMARK   15  A    between atoms: C_40  and  O_42
REMARK   16  A    between atoms: C_45  and  C_46
REMARK                            x       y       z     vdW  Elec       q    Type
REMARK                         _______ _______ _______ _____ _____    ______ ____
ROOT
ATOM      1  C   UNL A   1     -25.306  -0.206  29.248  0.00  0.00    +0.070 C 
ATOM      2  C   UNL A   1     -26.305   1.002  28.939  0.00  0.00    +0.179 C 
ATOM      3  C   UNL A   1     -24.552   0.385  28.204  0.00  0.00    +0.124 C 
ATOM      4  N   UNL A   1     -25.311   1.416  27.849  0.00  0.00    -0.240 NA
ENDROOT
BRANCH   4   5
ATOM      5  C   UNL A   1     -25.688   1.614  26.461  0.00  0.00    +0.130 C 
ATOM      6  C   UNL A   1     -26.250   2.920  26.395  0.00  0.00    +0.070 C 
ATOM      7  C   UNL A   1     -27.438   3.091  25.645  0.00  0.00    +0.103 C 
ATOM      8  N   UNL A   1     -28.075   2.089  25.003  0.00  0.00    -0.212 NA
ATOM      9  C   UNL A   1     -27.543   0.849  25.079  0.00  0.00    +0.235 C 
ATOM     10  C   UNL A   1     -26.354   0.576  25.777  0.00  0.00    +0.255 C 
ATOM     11  F   UNL A   1     -25.860  -0.681  25.795  0.00  0.00    -0.225 F 
BRANCH   6  12
ATOM     12  C   UNL A   1     -25.642   4.093  27.123  0.00  0.00    +0.264 C 
ATOM     13  N   UNL A   1     -25.614   5.252  26.449  0.00  0.00    -0.200 NA
ATOM     14  C   UNL A   1     -25.026   6.479  26.963  0.00  0.00    +0.139 C 
ATOM     15  O   UNL A   1     -25.143   3.966  28.243  0.00  0.00    -0.269 OA
ENDBRANCH   6  12
BRANCH   9  16
ATOM     16  O   UNL A   1     -28.193  -0.208  24.477  0.00  0.00    -0.459 OA
BRANCH  16  17
ATOM     17  C   UNL A   1     -29.460   0.005  23.866  0.00  0.00    +0.242 C 
BRANCH  17  18
ATOM     18  C   UNL A   1     -30.065  -1.377  23.573  0.00  0.00    +0.229 C 
ATOM     19  O   UNL A   1     -30.729  -1.878  24.721  0.00  0.00    -0.216 OA
ENDBRANCH  17  18
ENDBRANCH  16  17
ENDBRANCH   9  16
ENDBRANCH   4   5
BRANCH   3  20
ATOM     20  C   UNL A   1     -23.193   0.852  28.558  0.00  0.00    +0.195 C 
ATOM     21  O   UNL A   1     -22.582   0.501  29.602  0.00  0.00    -0.292 OA
BRANCH  20  23
ATOM     22  C   UNL A   1     -21.052   1.684  27.403  0.00  0.00    +0.044 C 
ATOM     23  C   UNL A   1     -22.575   1.835  27.566  0.00  0.00    +0.210 C 
ATOM     24  O   UNL A   1     -23.166   2.127  26.339  0.00  0.00    -0.215 OA
ENDBRANCH  20  23
ENDBRANCH   3  20
BRANCH   1  25
ATOM     25  C   UNL A   1     -24.855  -1.012  30.143  0.00  0.00    +0.044 C 
BRANCH  25  26
ATOM     26  C   UNL A   1     -24.973  -2.505  29.788  0.00  0.00    -0.021 C 
ATOM     27  C   UNL A   1     -23.906  -3.173  29.146  0.00  0.00    -0.004 C 
ATOM     28  C   UNL A   1     -23.989  -4.549  28.853  0.00  0.00    -0.000 C 
ATOM     29  C   UNL A   1     -25.137  -5.280  29.205  0.00  0.00    -0.000 C 
ATOM     30  C   UNL A   1     -26.232  -4.611  29.784  0.00  0.00    -0.000 C 
ATOM     31  C   UNL A   1     -26.155  -3.232  30.065  0.00  0.00    -0.004 C 
ENDBRANCH  25  26
BRANCH  25  32
ATOM     32  C   UNL A   1     -25.387  -0.679  31.571  0.00  0.00    +0.077 C 
ATOM     33  C   UNL A   1     -25.189   0.773  32.028  0.00  0.00    +0.019 C 
ATOM     34  C   UNL A   1     -25.336   0.684  33.544  0.00  0.00    +0.020 C 
ATOM     35  C   UNL A   1     -24.829  -0.715  33.905  0.00  0.00    +0.089 C 
ATOM     36  N   UNL A   1     -24.758  -1.481  32.646  0.00  0.00    -0.219 NA
ENDBRANCH  25  32
ENDBRANCH   1  25
BRANCH   2  37
ATOM     37  O   UNL A   1     -27.557   0.103  28.833  0.00  0.00    -0.339 OA
BRANCH  37  38
ATOM     38  C   UNL A   1     -28.819   0.565  29.229  0.00  0.00    +0.162 C 
BRANCH  38  39
ATOM     39  C   UNL A   1     -29.779   0.216  28.062  0.00  0.00    +0.105 C 
BRANCH  39  41
ATOM     40  C   UNL A   1     -32.682   0.193  27.415  0.00  0.00    +0.017 C 
ATOM     41  N   UNL A   1     -30.899   1.206  27.674  0.00  0.00    -0.272 NA
ATOM     42  C   UNL A   1     -31.670   0.905  26.786  0.00  0.00    +0.058 C 
ATOM     43  C   UNL A   1     -30.211   2.595  27.243  0.00  0.00    +0.072 C 
ATOM     44  C   UNL A   1     -32.169   2.039  25.934  0.00  0.00    +0.017 C 
ATOM     45  C   UNL A   1     -31.355   3.176  26.449  0.00  0.00    +0.019 C 
ENDBRANCH  39  41
ENDBRANCH  38  39
BRANCH  38  46
ATOM     46  C   UNL A   1     -28.869   2.053  29.561  0.00  0.00    +0.173 C 
BRANCH  46  48
ATOM     47  C   UNL A   1     -28.739   3.804  29.815  0.00  0.00    +0.174 C 
ATOM     48  O   UNL A   1     -28.429   2.583  30.366  0.00  0.00    -0.348 OA
ENDBRANCH  46  48
ENDBRANCH  38  46
ENDBRANCH  37  38
ENDBRANCH   2  37
TORSDOF 16
