MODEL 2526
MODEL 1
REMARK VINA RESULT:    -7.688      0.000      0.000
REMARK INTER + INTRA:          -7.688
REMARK INTER:                  -7.688
REMARK INTRA:                   0.000
REMARK UNBOUND:                 0.000
REMARK  Name = No_2526-gen_results/8p0m/2024-11-27-11-27-31/
REMARK  0 active torsions:
REMARK  status: ('A' for Active; 'I' for Inactive)
REMARK                            x       y       z     vdW  Elec       q    Type
REMARK                         _______ _______ _______ _____ _____    ______ ____
ROOT
ATOM      1  C   UNL A   1     -23.185   0.500  29.858  0.00  0.00    +0.003 A 
ATOM      2  C   UNL A   1     -24.026  -0.367  29.792  0.00  0.00    +0.035 A 
ATOM      3  C   UNL A   1     -25.162  -0.437  30.581  0.00  0.00    -0.019 A 
ATOM      4  C   UNL A   1     -25.364   0.616  31.522  0.00  0.00    -0.019 A 
ATOM      5  C   UNL A   1     -24.503   1.644  31.465  0.00  0.00    +0.051 A 
ATOM      6  C   UNL A   1     -23.483   1.645  30.656  0.00  0.00    +0.004 A 
ATOM      7  C   UNL A   1     -26.106  -1.610  30.557  0.00  0.00    +0.044 C 
ATOM      8  C   UNL A   1     -25.555  -2.727  30.052  0.00  0.00    -0.015 A 
ATOM      9  C   UNL A   1     -24.387  -2.732  29.235  0.00  0.00    +0.035 A 
ATOM     10  C   UNL A   1     -23.638  -1.681  29.131  0.00  0.00    +0.195 C 
ATOM     11  C   UNL A   1     -26.490  -3.960  29.915  0.00  0.00    -0.004 A 
ATOM     12  C   UNL A   1     -25.982  -5.191  29.452  0.00  0.00    -0.000 A 
ATOM     13  C   UNL A   1     -24.692  -5.195  28.817  0.00  0.00    +0.000 A 
ATOM     14  C   UNL A   1     -23.914  -3.990  28.707  0.00  0.00    +0.003 A 
ATOM     15  O   UNL A   1     -22.382  -1.824  28.876  0.00  0.00    -0.287 OA
ATOM     16  C   UNL A   1     -24.815   2.825  32.319  0.00  0.00    +0.265 C 
ATOM     17  O   UNL A   1     -24.337   3.791  32.283  0.00  0.00    -0.268 OA
ATOM     18  N   UNL A   1     -26.015   2.714  33.005  0.00  0.00    -0.201 NA
ATOM     19  C   UNL A   1     -27.379  -1.468  31.205  0.00  0.00    +0.009 C 
ATOM     20  C   UNL A   1     -26.977   1.779  33.058  0.00  0.00    +0.120 C 
ATOM     21  C   UNL A   1     -26.560   0.500  32.387  0.00  0.00    +0.050 C 
ENDROOT
TORSDOF 0
ENDMDL
ENDMDL
