MODEL 2528
MODEL 1
REMARK VINA RESULT:    -6.169      0.000      0.000
REMARK INTER + INTRA:          -6.626
REMARK INTER:                  -6.529
REMARK INTRA:                  -0.097
REMARK UNBOUND:                -0.097
REMARK  Name = No_2528-gen_results/8p0m/2024-11-27-11-27-31/
REMARK  1 active torsions:
REMARK  status: ('A' for Active; 'I' for Inactive)
REMARK    1  A    between atoms: C_3  and  C_7
REMARK                            x       y       z     vdW  Elec       q    Type
REMARK                         _______ _______ _______ _____ _____    ______ ____
ROOT
ATOM      1  C   UNL A   1     -23.894  -1.355  28.696  0.00  0.00    +0.118 C 
ATOM      2  C   UNL A   1     -24.340  -0.451  27.780  0.00  0.00    +0.248 C 
ATOM      3  N   UNL A   1     -23.565   0.618  27.558  0.00  0.00    -0.185 NA
ATOM      4  O   UNL A   1     -25.396  -0.647  27.070  0.00  0.00    -0.273 OA
ATOM      5  C   UNL A   1     -22.396   0.974  28.248  0.00  0.00    +0.204 C 
ATOM      6  C   UNL A   1     -22.654  -1.022  29.363  0.00  0.00    +0.104 C 
ATOM      7  N   UNL A   1     -21.989   0.081  29.094  0.00  0.00    -0.195 NA
ENDROOT
BRANCH   1  10
ATOM      8  C   UNL A   1     -26.444  -3.734  29.869  0.00  0.00    -0.000 A 
ATOM      9  C   UNL A   1     -25.875  -2.689  29.654  0.00  0.00    -0.004 A 
ATOM     10  C   UNL A   1     -24.645  -2.601  29.004  0.00  0.00    -0.012 A 
ATOM     11  C   UNL A   1     -23.966  -3.820  28.609  0.00  0.00    -0.004 A 
ATOM     12  C   UNL A   1     -24.686  -5.000  28.901  0.00  0.00    -0.000 A 
ATOM     13  C   UNL A   1     -25.837  -4.984  29.523  0.00  0.00    -0.000 A 
ENDBRANCH   1  10
TORSDOF 1
ENDMDL
ENDMDL
