MODEL 2529
MODEL 1
REMARK VINA RESULT:    -6.509      0.000      0.000
REMARK INTER + INTRA:          -7.689
REMARK INTER:                  -7.271
REMARK INTRA:                  -0.419
REMARK UNBOUND:                -0.419
REMARK  Name = No_2529-gen_results/8p0m/2024-11-27-11-27-31/
REMARK  2 active torsions:
REMARK  status: ('A' for Active; 'I' for Inactive)
REMARK    1  A    between atoms: C_3  and  C_7
REMARK    2  A    between atoms: C_6  and  C_13
REMARK                            x       y       z     vdW  Elec       q    Type
REMARK                         _______ _______ _______ _____ _____    ______ ____
ROOT
ATOM      1  C   UNL A   1     -29.375 -10.221  32.411  0.00  0.00    +0.007 A 
ATOM      2  C   UNL A   1     -29.749 -10.154  31.263  0.00  0.00    +0.000 A 
ATOM      3  C   UNL A   1     -29.307 -11.010  30.256  0.00  0.00    +0.000 A 
ATOM      4  C   UNL A   1     -28.300 -12.006  30.568  0.00  0.00    +0.000 A 
ATOM      5  C   UNL A   1     -27.882 -12.035  31.897  0.00  0.00    +0.007 A 
ATOM      6  C   UNL A   1     -28.346 -11.177  32.785  0.00  0.00    +0.080 A 
ENDROOT
BRANCH   3   7
ATOM      7  C   UNL A   1     -29.723 -10.998  28.817  0.00  0.00    +0.000 A 
ATOM      8  C   UNL A   1     -30.756 -10.316  28.410  0.00  0.00    +0.000 A 
ATOM      9  C   UNL A   1     -31.197 -10.380  27.054  0.00  0.00    +0.000 A 
ATOM     10  C   UNL A   1     -30.677 -11.279  26.153  0.00  0.00    +0.000 A 
ATOM     11  C   UNL A   1     -29.117 -11.943  27.867  0.00  0.00    +0.000 A 
ATOM     12  C   UNL A   1     -29.606 -12.030  26.542  0.00  0.00    +0.000 A 
ENDBRANCH   3   7
BRANCH   6  13
ATOM     13  C   UNL A   1     -27.794 -11.249  34.169  0.00  0.00    +0.388 C 
ATOM     14  O   UNL A   1     -27.868 -10.289  34.957  0.00  0.00    -0.241 OA
ATOM     15  O   UNL A   1     -27.288 -12.332  34.604  0.00  0.00    -0.241 OA
ENDBRANCH   6  13
TORSDOF 2
ENDMDL
ENDMDL
