MODEL 252
MODEL 1
REMARK VINA RESULT:    -6.339      0.000      0.000
REMARK INTER + INTRA:          -7.666
REMARK INTER:                  -7.080
REMARK INTRA:                  -0.586
REMARK UNBOUND:                -0.586
REMARK  Name = No_252-gen_results/8p0m/2024-11-27-11-27-31/
REMARK  2 active torsions:
REMARK  status: ('A' for Active; 'I' for Inactive)
REMARK    1  A    between atoms: C_2  and  C_15
REMARK    2  A    between atoms: C_4  and  C_7
REMARK                            x       y       z     vdW  Elec       q    Type
REMARK                         _______ _______ _______ _____ _____    ______ ____
ROOT
ATOM      1  C   UNL A   1      -9.441   0.441  35.425  0.00  0.00    +0.006 A 
ATOM      2  C   UNL A   1     -10.234   1.076  35.146  0.00  0.00    +0.080 A 
ATOM      3  C   UNL A   1      -9.513  -0.110  36.831  0.00  0.00    -0.004 A 
ATOM      4  C   UNL A   1     -10.666   0.127  37.608  0.00  0.00    -0.023 A 
ATOM      5  C   UNL A   1     -11.540   1.449  35.735  0.00  0.00    +0.006 A 
ATOM      6  C   UNL A   1     -11.646   0.954  37.027  0.00  0.00    -0.004 A 
ENDROOT
BRANCH   4   7
ATOM      7  C   UNL A   1     -10.782  -0.352  38.944  0.00  0.00    +0.019 C 
ATOM      8  C   UNL A   1      -9.599  -0.237  39.731  0.00  0.00    +0.004 C 
ATOM      9  C   UNL A   1      -9.412  -1.127  40.808  0.00  0.00    +0.000 C 
ATOM     10  C   UNL A   1     -10.418  -2.078  41.106  0.00  0.00    +0.000 C 
ATOM     11  C   UNL A   1     -11.278  -1.798  39.044  0.00  0.00    +0.004 C 
ATOM     12  C   UNL A   1     -11.331  -2.395  40.302  0.00  0.00    +0.000 C 
ATOM     13  C   UNL A   1     -11.865   0.462  39.732  0.00  0.00    +0.004 C 
ATOM     14  C   UNL A   1     -11.937  -2.370  37.962  0.00  0.00    +0.000 C 
ENDBRANCH   4   7
BRANCH   2  15
ATOM     15  C   UNL A   1     -10.150   1.681  33.654  0.00  0.00    +0.388 C 
ATOM     16  O   UNL A   1     -10.766   1.083  32.701  0.00  0.00    -0.241 OA
ATOM     17  O   UNL A   1      -9.299   2.538  33.388  0.00  0.00    -0.241 OA
ENDBRANCH   2  15
TORSDOF 2
ENDMDL
ENDMDL
