REMARK  Name = No_253-gen_results/8p0m/2024-11-27-11-27-31/
REMARK  2 active torsions:
REMARK  status: ('A' for Active; 'I' for Inactive)
REMARK    1  A    between atoms: C_2  and  C_11
REMARK    2  A    between atoms: C_3  and  C_7
REMARK                            x       y       z     vdW  Elec       q    Type
REMARK                         _______ _______ _______ _____ _____    ______ ____
ROOT
ATOM      1  C   UNL A   1     -28.016  -0.814  28.878  0.00  0.00    +0.008 A 
ATOM      2  C   UNL A   1     -28.469  -0.785  29.829  0.00  0.00    +0.054 A 
ATOM      3  C   UNL A   1     -27.136   0.236  28.535  0.00  0.00    +0.072 A 
ATOM      4  C   UNL A   1     -26.875   1.282  29.398  0.00  0.00    +0.004 A 
ATOM      5  C   UNL A   1     -28.361   0.199  30.924  0.00  0.00    +0.004 A 
ATOM      6  C   UNL A   1     -27.528   1.223  30.636  0.00  0.00    +0.000 A 
ENDROOT
BRANCH   2   7
ATOM      7  C   UNL A   1     -29.395  -2.022  30.318  0.00  0.00    +0.253 C 
ATOM      8  O   UNL A   1     -28.978  -3.087  30.384  0.00  0.00    -0.270 OA
ATOM      9  N   UNL A   1     -30.607  -1.758  30.684  0.00  0.00    -0.254 N 
ATOM     10  C   UNL A   1     -31.291  -0.538  30.580  0.00  0.00    +0.063 C 
ATOM     11  C   UNL A   1     -32.609  -0.647  31.000  0.00  0.00    -0.008 C 
ATOM     12  C   UNL A   1     -33.055  -1.772  31.346  0.00  0.00    +0.049 C 
ATOM     13  C   UNL A   1     -31.648  -2.603  31.283  0.00  0.00    +0.103 C 
ENDBRANCH   2   7
BRANCH   3  14
ATOM     14  C   UNL A   1     -26.388   0.291  27.233  0.00  0.00    +0.419 C 
ATOM     15  F   UNL A   1     -25.779  -0.523  27.034  0.00  0.00    -0.166 F 
ATOM     16  F   UNL A   1     -27.410   0.497  26.241  0.00  0.00    -0.166 F 
ATOM     17  F   UNL A   1     -25.663   1.501  26.997  0.00  0.00    -0.166 F 
ENDBRANCH   3  14
TORSDOF 2
