MODEL 2530
MODEL 1
REMARK VINA RESULT:    -6.684      0.000      0.000
REMARK INTER + INTRA:          -7.917
REMARK INTER:                  -7.466
REMARK INTRA:                  -0.452
REMARK UNBOUND:                -0.452
REMARK  Name = No_2530-gen_results/8p0m/2024-11-27-11-27-31/
REMARK  2 active torsions:
REMARK  status: ('A' for Active; 'I' for Inactive)
REMARK    1  A    between atoms: C_3  and  C_4
REMARK    2  A    between atoms: C_4  and  C_8
REMARK                            x       y       z     vdW  Elec       q    Type
REMARK                         _______ _______ _______ _____ _____    ______ ____
ROOT
ATOM      1  C   UNL A   1     -24.547  -1.185  29.002  0.00  0.00    +0.053 C 
ENDROOT
BRANCH   1   4
ATOM      2  C   UNL A   1     -23.863  -3.646  28.542  0.00  0.00    -0.004 A 
ATOM      3  C   UNL A   1     -24.185  -4.637  28.697  0.00  0.00    -0.000 A 
ATOM      4  C   UNL A   1     -24.816  -2.641  29.013  0.00  0.00    -0.018 A 
ATOM      5  C   UNL A   1     -25.368  -5.257  29.276  0.00  0.00    -0.000 A 
ATOM      6  C   UNL A   1     -26.298  -4.340  29.721  0.00  0.00    -0.000 A 
ATOM      7  C   UNL A   1     -26.025  -3.025  29.649  0.00  0.00    -0.004 A 
ENDBRANCH   1   4
BRANCH   1   8
ATOM      8  C   UNL A   1     -23.843  -0.499  28.384  0.00  0.00    -0.018 A 
ATOM      9  C   UNL A   1     -22.526  -0.230  28.993  0.00  0.00    -0.004 A 
ATOM     10  C   UNL A   1     -21.754   0.735  28.164  0.00  0.00    -0.000 A 
ATOM     11  C   UNL A   1     -21.987   1.467  27.476  0.00  0.00    -0.000 A 
ATOM     12  C   UNL A   1     -23.403   1.419  26.933  0.00  0.00    -0.000 A 
ATOM     13  C   UNL A   1     -24.256   0.423  27.439  0.00  0.00    -0.004 A 
ENDBRANCH   1   8
TORSDOF 2
ENDMDL
ENDMDL
