MODEL 2532
MODEL 1
REMARK VINA RESULT:    -8.021      0.000      0.000
REMARK INTER + INTRA:          -9.634
REMARK INTER:                  -8.959
REMARK INTRA:                  -0.674
REMARK UNBOUND:                -0.674
REMARK  Name = No_2532-gen_results/8p0m/2024-11-27-11-27-31/
REMARK  2 active torsions:
REMARK  status: ('A' for Active; 'I' for Inactive)
REMARK    1  A    between atoms: C_5  and  C_8
REMARK    2  A    between atoms: C_11  and  C_12
REMARK                            x       y       z     vdW  Elec       q    Type
REMARK                         _______ _______ _______ _____ _____    ______ ____
ROOT
ATOM      1 CL   UNL A   1      -9.584   2.373  38.899  0.00  0.00    -0.082 Cl
ATOM      2  C   UNL A   1     -10.934   2.571  38.431  0.00  0.00    +0.058 A 
ATOM      3  C   UNL A   1     -11.826   3.160  38.909  0.00  0.00    +0.011 A 
ATOM      4  C   UNL A   1     -13.194   3.361  38.393  0.00  0.00    -0.002 A 
ATOM      5  C   UNL A   1     -13.441   2.815  37.115  0.00  0.00    -0.006 A 
ATOM      6  C   UNL A   1     -12.429   2.141  36.519  0.00  0.00    -0.006 A 
ATOM      7  C   UNL A   1     -11.223   2.025  37.070  0.00  0.00    +0.010 A 
ATOM      8  C   UNL A   1     -10.148   1.295  36.329  0.00  0.00    -0.003 A 
ATOM      9  C   UNL A   1      -9.496   0.390  36.824  0.00  0.00    -0.000 A 
ATOM     10  C   UNL A   1      -9.956   1.902  34.966  0.00  0.00    -0.018 A 
ATOM     11  C   UNL A   1     -10.591   2.918  34.516  0.00  0.00    +0.052 C 
ATOM     12  C   UNL A   1      -8.853   1.376  34.264  0.00  0.00    -0.004 A 
ATOM     13  C   UNL A   1     -11.682   3.668  35.100  0.00  0.00    -0.026 C 
ATOM     14  C   UNL A   1      -8.652  -0.342  36.014  0.00  0.00    -0.000 A 
ATOM     15  C   UNL A   1      -8.208   0.237  34.792  0.00  0.00    -0.000 A 
ATOM     16  C   UNL A   1     -12.781   2.966  35.450  0.00  0.00    -0.026 C 
ATOM     17  C   UNL A   1     -13.612   2.655  34.295  0.00  0.00    +0.031 C 
ENDROOT
BRANCH   9  18
ATOM     18  C   UNL A   1      -9.899  -0.278  37.924  0.00  0.00    -0.000 A 
ATOM     19  C   UNL A   1     -11.109  -1.036  37.807  0.00  0.00    -0.000 A 
ATOM     20  C   UNL A   1     -11.630  -1.785  38.895  0.00  0.00    -0.000 A 
ATOM     21  C   UNL A   1     -10.894  -1.802  40.111  0.00  0.00    +0.000 A 
ATOM     22  C   UNL A   1     -11.352  -2.572  41.225  0.00  0.00    +0.000 A 
ATOM     23  C   UNL A   1      -9.681  -1.105  40.257  0.00  0.00    -0.000 A 
ATOM     24  C   UNL A   1      -9.254  -0.400  39.241  0.00  0.00    -0.000 A 
ATOM     25  C   UNL A   1     -10.778  -2.588  42.291  0.00  0.00    +0.000 A 
ATOM     26  C   UNL A   1      -9.500  -1.868  42.460  0.00  0.00    +0.000 A 
ATOM     27  C   UNL A   1      -8.978  -1.145  41.504  0.00  0.00    +0.000 A 
ENDBRANCH   9  18
BRANCH   5  28
ATOM     28  C   UNL A   1     -14.771   3.003  36.555  0.00  0.00    +0.121 C 
ATOM     29 CL   UNL A   1     -15.944   3.385  37.682  0.00  0.00    -0.108 Cl
ENDBRANCH   5  28
TORSDOF 2
ENDMDL
ENDMDL
