MODEL 2533
MODEL 1
REMARK VINA RESULT:    -4.785      0.000      0.000
REMARK INTER + INTRA:          -5.423
REMARK INTER:                  -5.344
REMARK INTRA:                  -0.079
REMARK UNBOUND:                -0.079
REMARK  Name = No_2533-gen_results/8p0m/2024-11-27-11-27-31/
REMARK  2 active torsions:
REMARK  status: ('A' for Active; 'I' for Inactive)
REMARK    1  A    between atoms: C_3  and  C_8
REMARK    2  A    between atoms: C_8  and  C_9
REMARK                            x       y       z     vdW  Elec       q    Type
REMARK                         _______ _______ _______ _____ _____    ______ ____
ROOT
ATOM      1  C   UNL A   1     -29.423 -11.294  29.146  0.00  0.00    +0.042 A 
ATOM      2  C   UNL A   1     -28.628 -11.892  29.833  0.00  0.00    -0.001 A 
ATOM      3  C   UNL A   1     -28.447 -11.648  31.194  0.00  0.00    -0.016 A 
ATOM      4  C   UNL A   1     -29.202 -10.583  31.827  0.00  0.00    -0.001 A 
ATOM      5  C   UNL A   1     -30.103  -9.923  30.961  0.00  0.00    +0.042 A 
ATOM      6  C   UNL A   1     -30.199 -10.219  29.690  0.00  0.00    +0.196 A 
ATOM      7  O   UNL A   1     -31.066  -9.479  28.937  0.00  0.00    -0.287 OA
ENDROOT
BRANCH   3   8
ATOM      8  C   UNL A   1     -27.486 -12.347  32.108  0.00  0.00    +0.075 C 
BRANCH   8   9
ATOM      9  C   UNL A   1     -27.023 -11.761  33.257  0.00  0.00    +0.100 C 
ATOM     10  N   UNL A   1     -27.363 -12.365  34.443  0.00  0.00    -0.151 NA
ENDBRANCH   8   9
ENDBRANCH   3   8
TORSDOF 2
ENDMDL
ENDMDL
