MODEL 2534
MODEL 1
REMARK VINA RESULT:    -7.029      0.000      0.000
REMARK INTER + INTRA:          -9.025
REMARK INTER:                  -8.262
REMARK INTRA:                  -0.763
REMARK UNBOUND:                -0.763
REMARK  Name = No_2534-gen_results/8p0m/2024-11-27-11-27-31/
REMARK  3 active torsions:
REMARK  status: ('A' for Active; 'I' for Inactive)
REMARK    1  A    between atoms: C_1  and  C_2
REMARK    2  A    between atoms: C_1  and  C_8
REMARK    3  A    between atoms: C_8  and  C_9
REMARK                            x       y       z     vdW  Elec       q    Type
REMARK                         _______ _______ _______ _____ _____    ______ ____
ROOT
ATOM      1  C   UNL A   1     -23.676  -0.579  29.142  0.00  0.00    +0.033 C 
ENDROOT
BRANCH   1   2
ATOM      2  C   UNL A   1     -23.359   0.256  28.279  0.00  0.00    +0.006 A 
ATOM      3  C   UNL A   1     -22.392   0.987  28.109  0.00  0.00    -0.002 A 
ATOM      4  C   UNL A   1     -22.105   1.969  27.021  0.00  0.00    -0.000 A 
ATOM      5  C   UNL A   1     -23.128   2.028  26.003  0.00  0.00    +0.002 A 
ATOM      6  C   UNL A   1     -24.181   1.149  26.074  0.00  0.00    +0.029 A 
ATOM      7  C   UNL A   1     -24.294   0.325  27.049  0.00  0.00    +0.136 A 
ATOM      8  F   UNL A   1     -25.090  -0.253  26.819  0.00  0.00    -0.204 F 
ENDBRANCH   1   2
BRANCH   1   9
ATOM      9  C   UNL A   1     -23.258  -2.004  28.957  0.00  0.00    +0.031 C 
BRANCH   9  10
ATOM     10  C   UNL A   1     -24.132  -2.800  29.211  0.00  0.00    -0.022 A 
ATOM     11  C   UNL A   1     -25.393  -2.436  29.684  0.00  0.00    -0.004 A 
ATOM     12  C   UNL A   1     -26.509  -3.337  30.030  0.00  0.00    -0.000 A 
ATOM     13  C   UNL A   1     -26.345  -4.704  29.651  0.00  0.00    -0.000 A 
ATOM     14  C   UNL A   1     -25.094  -5.067  29.094  0.00  0.00    -0.000 A 
ATOM     15  C   UNL A   1     -24.093  -4.210  28.883  0.00  0.00    -0.004 A 
ENDBRANCH   9  10
ENDBRANCH   1   9
TORSDOF 3
ENDMDL
ENDMDL
