REMARK  Name = No_2534-gen_results/8p0m/2024-11-27-11-27-31/
REMARK  3 active torsions:
REMARK  status: ('A' for Active; 'I' for Inactive)
REMARK    1  A    between atoms: C_1  and  C_2
REMARK    2  A    between atoms: C_1  and  C_8
REMARK    3  A    between atoms: C_8  and  C_9
REMARK                            x       y       z     vdW  Elec       q    Type
REMARK                         _______ _______ _______ _____ _____    ______ ____
ROOT
ATOM      1  C   UNL A   1     -28.642  -0.482  30.196  0.00  0.00    +0.033 C 
ENDROOT
BRANCH   1   2
ATOM      2  C   UNL A   1     -28.293   0.557  30.780  0.00  0.00    +0.006 A 
ATOM      3  C   UNL A   1     -28.646   1.123  31.806  0.00  0.00    -0.002 A 
ATOM      4  C   UNL A   1     -28.154   2.388  32.429  0.00  0.00    -0.000 A 
ATOM      5  C   UNL A   1     -27.069   3.011  31.706  0.00  0.00    +0.002 A 
ATOM      6  C   UNL A   1     -26.549   2.364  30.612  0.00  0.00    +0.029 A 
ATOM      7  C   UNL A   1     -27.043   1.257  30.197  0.00  0.00    +0.136 A 
ATOM      8  F   UNL A   1     -26.435   0.957  29.448  0.00  0.00    -0.204 F 
ENDBRANCH   1   2
BRANCH   1   9
ATOM      9  C   UNL A   1     -28.016  -0.814  28.878  0.00  0.00    +0.031 C 
BRANCH   9  10
ATOM     10  C   UNL A   1     -27.064  -0.119  28.608  0.00  0.00    -0.022 A 
ATOM     11  C   UNL A   1     -25.765  -0.390  29.036  0.00  0.00    -0.004 A 
ATOM     12  C   UNL A   1     -24.552   0.406  28.765  0.00  0.00    -0.000 A 
ATOM     13  C   UNL A   1     -24.696   1.448  27.799  0.00  0.00    -0.000 A 
ATOM     14  C   UNL A   1     -26.001   1.678  27.297  0.00  0.00    -0.000 A 
ATOM     15  C   UNL A   1     -27.074   0.968  27.650  0.00  0.00    -0.004 A 
ENDBRANCH   9  10
ENDBRANCH   1   9
TORSDOF 3
