MODEL 2535
MODEL 1
REMARK VINA RESULT:    -4.568      0.000      0.000
REMARK INTER + INTRA:          -4.568
REMARK INTER:                  -4.568
REMARK INTRA:                   0.000
REMARK UNBOUND:                 0.000
REMARK  Name = No_2535-gen_results/8p0m/2024-11-27-11-27-31/
REMARK  0 active torsions:
REMARK  status: ('A' for Active; 'I' for Inactive)
REMARK                            x       y       z     vdW  Elec       q    Type
REMARK                         _______ _______ _______ _____ _____    ______ ____
ROOT
ATOM      1  C   UNL A   1     -10.137  -9.762  18.218  0.00  0.00    +0.030 A 
ATOM      2  C   UNL A   1      -9.097 -10.347  18.021  0.00  0.00    +0.140 A 
ATOM      3  C   UNL A   1      -8.067 -10.382  18.905  0.00  0.00    +0.030 A 
ATOM      4  C   UNL A   1      -8.212  -9.698  20.127  0.00  0.00    +0.002 A 
ATOM      5  C   UNL A   1     -10.390  -9.122  19.484  0.00  0.00    +0.002 A 
ATOM      6  C   UNL A   1      -9.377  -9.104  20.395  0.00  0.00    +0.000 A 
ATOM      7  F   UNL A   1      -9.086 -11.084  16.880  0.00  0.00    -0.204 F 
ENDROOT
TORSDOF 0
ENDMDL
ENDMDL
