MODEL 2536
MODEL 1
REMARK VINA RESULT:    -7.643      0.000      0.000
REMARK INTER + INTRA:         -11.934
REMARK INTER:                 -10.324
REMARK INTRA:                  -1.610
REMARK UNBOUND:                -1.610
REMARK  Name = No_2536-gen_results/8p0m/2024-11-27-11-27-31/
REMARK  6 active torsions:
REMARK  status: ('A' for Active; 'I' for Inactive)
REMARK    1  A    between atoms: C_2  and  C_28
REMARK    2  A    between atoms: C_6  and  C_7
REMARK    3  A    between atoms: C_7  and  N_8
REMARK    4  A    between atoms: C_11  and  C_12
REMARK    5  A    between atoms: C_12  and  C_15
REMARK    6  A    between atoms: C_22  and  C_25
REMARK                            x       y       z     vdW  Elec       q    Type
REMARK                         _______ _______ _______ _____ _____    ______ ____
ROOT
ATOM      1  C   UNL A   1     -26.453   0.416  28.148  0.00  0.00    -0.005 A 
ATOM      2  C   UNL A   1     -27.576   0.549  27.721  0.00  0.00    +0.007 A 
ATOM      3  C   UNL A   1     -27.880   0.630  26.363  0.00  0.00    -0.002 A 
ATOM      4  C   UNL A   1     -26.800   0.615  25.395  0.00  0.00    -0.001 A 
ATOM      5  C   UNL A   1     -25.516   0.467  25.967  0.00  0.00    -0.003 A 
ATOM      6  C   UNL A   1     -25.328   0.405  27.261  0.00  0.00    -0.006 A 
ATOM      7  C   UNL A   1     -29.278   0.681  25.777  0.00  0.00    +0.006 A 
ATOM      8  C   UNL A   1     -29.483   0.836  24.463  0.00  0.00    +0.080 A 
ATOM      9  C   UNL A   1     -28.321   0.699  23.593  0.00  0.00    +0.007 A 
ATOM     10  C   UNL A   1     -27.044   0.667  24.033  0.00  0.00    +0.000 A 
ENDROOT
BRANCH   8  11
ATOM     11  C   UNL A   1     -30.809   0.807  23.892  0.00  0.00    +0.388 C 
ATOM     12  O   UNL A   1     -31.027   0.992  22.698  0.00  0.00    -0.241 OA
ATOM     13  O   UNL A   1     -31.847   1.100  24.747  0.00  0.00    -0.241 OA
ENDBRANCH   8  11
BRANCH   2  14
ATOM     14  C   UNL A   1     -28.803   0.506  28.643  0.00  0.00    +0.181 C 
ATOM     15 CL   UNL A   1     -29.405   1.906  29.139  0.00  0.00    -0.092 Cl
ATOM     16 CL   UNL A   1     -28.778  -0.756  29.865  0.00  0.00    -0.092 Cl
ENDBRANCH   2  14
BRANCH   6  17
ATOM     17  C   UNL A   1     -23.911   0.321  27.707  0.00  0.00    +0.099 C 
BRANCH  17  18
ATOM     18  N   UNL A   1     -23.720   0.321  28.885  0.00  0.00    -0.270 NA
ATOM     19  C   UNL A   1     -23.763   1.292  29.639  0.00  0.00    +0.072 C 
ATOM     20  C   UNL A   1     -23.465   1.099  31.096  0.00  0.00    +0.017 C 
ATOM     21  C   UNL A   1     -23.390  -1.014  29.596  0.00  0.00    +0.062 C 
ATOM     22  C   UNL A   1     -23.462  -0.972  30.934  0.00  0.00    +0.016 C 
ATOM     23  C   UNL A   1     -23.550  -0.062  31.502  0.00  0.00    +0.003 C 
BRANCH  21  24
ATOM     24  C   UNL A   1     -23.413  -2.186  28.788  0.00  0.00    +0.042 C 
BRANCH  24  25
ATOM     25  C   UNL A   1     -24.432  -3.041  28.984  0.00  0.00    -0.021 A 
ATOM     26  C   UNL A   1     -25.456  -2.672  29.404  0.00  0.00    -0.004 A 
ATOM     27  C   UNL A   1     -26.415  -3.570  29.801  0.00  0.00    -0.000 A 
ATOM     28  C   UNL A   1     -26.247  -4.895  29.656  0.00  0.00    -0.000 A 
ATOM     29  C   UNL A   1     -25.091  -5.304  29.103  0.00  0.00    -0.000 A 
ATOM     30  C   UNL A   1     -24.084  -4.422  28.823  0.00  0.00    -0.004 A 
ENDBRANCH  24  25
ENDBRANCH  21  24
ENDBRANCH  17  18
ENDBRANCH   6  17
TORSDOF 6
ENDMDL
ENDMDL
