REMARK  Name = No_2536-gen_results/8p0m/2024-11-27-11-27-31/
REMARK  6 active torsions:
REMARK  status: ('A' for Active; 'I' for Inactive)
REMARK    1  A    between atoms: C_2  and  C_28
REMARK    2  A    between atoms: C_6  and  C_7
REMARK    3  A    between atoms: C_7  and  N_8
REMARK    4  A    between atoms: C_11  and  C_12
REMARK    5  A    between atoms: C_12  and  C_15
REMARK    6  A    between atoms: C_22  and  C_25
REMARK                            x       y       z     vdW  Elec       q    Type
REMARK                         _______ _______ _______ _____ _____    ______ ____
ROOT
ATOM      1  C   UNL A   1     -28.016  -0.814  28.878  0.00  0.00    -0.005 A 
ATOM      2  C   UNL A   1     -27.064  -0.119  28.608  0.00  0.00    +0.007 A 
ATOM      3  C   UNL A   1     -25.765  -0.390  29.036  0.00  0.00    -0.002 A 
ATOM      4  C   UNL A   1     -25.530  -1.530  29.901  0.00  0.00    -0.001 A 
ATOM      5  C   UNL A   1     -26.689  -2.289  30.181  0.00  0.00    -0.003 A 
ATOM      6  C   UNL A   1     -27.873  -1.951  29.737  0.00  0.00    -0.006 A 
ATOM      7  C   UNL A   1     -24.526   0.385  28.630  0.00  0.00    +0.006 A 
ATOM      8  C   UNL A   1     -23.323   0.106  29.147  0.00  0.00    +0.080 A 
ATOM      9  C   UNL A   1     -23.206  -1.126  29.918  0.00  0.00    +0.007 A 
ATOM     10  C   UNL A   1     -24.258  -1.862  30.336  0.00  0.00    +0.000 A 
ENDROOT
BRANCH   8  11
ATOM     11  C   UNL A   1     -22.130   0.788  28.706  0.00  0.00    +0.388 C 
ATOM     12  O   UNL A   1     -22.085   1.462  27.681  0.00  0.00    -0.241 OA
ATOM     13  O   UNL A   1     -20.933   0.259  29.133  0.00  0.00    -0.241 OA
ENDBRANCH   8  11
BRANCH   2  14
ATOM     14  C   UNL A   1     -27.177   1.071  27.644  0.00  0.00    +0.181 C 
ATOM     15 CL   UNL A   1     -27.605   2.486  28.262  0.00  0.00    -0.092 Cl
ATOM     16 CL   UNL A   1     -27.897   0.704  26.083  0.00  0.00    -0.092 Cl
ENDBRANCH   2  14
BRANCH   6  17
ATOM     17  C   UNL A   1     -29.002  -2.814  30.179  0.00  0.00    +0.099 C 
BRANCH  17  18
ATOM     18  N   UNL A   1     -29.376  -2.671  31.304  0.00  0.00    -0.270 NA
ATOM     19  C   UNL A   1     -29.524  -1.607  31.902  0.00  0.00    +0.072 C 
ATOM     20  C   UNL A   1     -29.980  -1.630  33.331  0.00  0.00    +0.017 C 
ATOM     21  C   UNL A   1     -29.738  -3.921  32.143  0.00  0.00    +0.062 C 
ATOM     22  C   UNL A   1     -30.400  -3.663  33.279  0.00  0.00    +0.016 C 
ATOM     23  C   UNL A   1     -30.517  -2.678  33.696  0.00  0.00    +0.003 C 
BRANCH  21  24
ATOM     24  C   UNL A   1     -29.670  -5.176  31.474  0.00  0.00    +0.042 C 
BRANCH  24  25
ATOM     25  C   UNL A   1     -30.838  -5.759  31.153  0.00  0.00    -0.021 A 
ATOM     26  C   UNL A   1     -30.869  -6.814  30.656  0.00  0.00    -0.004 A 
ATOM     27  C   UNL A   1     -32.039  -7.311  30.139  0.00  0.00    -0.000 A 
ATOM     28  C   UNL A   1     -33.200  -6.645  30.247  0.00  0.00    -0.000 A 
ATOM     29  C   UNL A   1     -33.164  -5.462  30.887  0.00  0.00    -0.000 A 
ATOM     30  C   UNL A   1     -31.982  -4.907  31.292  0.00  0.00    -0.004 A 
ENDBRANCH  24  25
ENDBRANCH  21  24
ENDBRANCH  17  18
ENDBRANCH   6  17
TORSDOF 6
