MODEL 2538
MODEL 1
REMARK VINA RESULT:    -4.030      0.000      0.000
REMARK INTER + INTRA:          -4.394
REMARK INTER:                  -4.265
REMARK INTRA:                  -0.129
REMARK UNBOUND:                -0.129
REMARK  Name = No_2538-gen_results/8p0m/2024-11-27-11-27-31/
REMARK  1 active torsions:
REMARK  status: ('A' for Active; 'I' for Inactive)
REMARK    1  A    between atoms: C_3  and  C_4
REMARK                            x       y       z     vdW  Elec       q    Type
REMARK                         _______ _______ _______ _____ _____    ______ ____
ROOT
ATOM      1  C   UNL A   1      -9.745 -10.486  17.083  0.00  0.00    +0.090 C 
ATOM      2  C   UNL A   1      -8.948 -10.644  17.978  0.00  0.00    -0.085 C 
ATOM      3  C   UNL A   1      -8.847  -9.728  19.019  0.00  0.00    -0.064 C 
ENDROOT
BRANCH   3   4
ATOM      4  C   UNL A   1      -7.935  -9.804  20.172  0.00  0.00    +0.045 C 
ATOM      5  C   UNL A   1      -6.867  -8.864  20.223  0.00  0.00    -0.017 C 
ATOM      6  C   UNL A   1      -6.955  -7.813  19.236  0.00  0.00    +0.031 C 
ENDBRANCH   3   4
TORSDOF 1
ENDMDL
ENDMDL
