MODEL 2539
MODEL 1
REMARK VINA RESULT:    -7.292      0.000      0.000
REMARK INTER + INTRA:         -11.668
REMARK INTER:                 -10.702
REMARK INTRA:                  -0.965
REMARK UNBOUND:                -0.965
REMARK  Name = No_2539-gen_results/8p0m/2024-11-27-11-27-31/
REMARK  8 active torsions:
REMARK  status: ('A' for Active; 'I' for Inactive)
REMARK    1  A    between atoms: C_6  and  O_18
REMARK    2  A    between atoms: C_14  and  C_15
REMARK    3  A    between atoms: O_18  and  C_19
REMARK    4  A    between atoms: C_19  and  C_20
REMARK    5  A    between atoms: C_20  and  C_21
REMARK    6  A    between atoms: C_20  and  N_22
REMARK    7  A    between atoms: C_21  and  O_23
REMARK    8  A    between atoms: O_23  and  C_25
REMARK                            x       y       z     vdW  Elec       q    Type
REMARK                         _______ _______ _______ _____ _____    ______ ____
ROOT
ATOM      1  C   UNL A   1     -30.881 -11.029  26.688  0.00  0.00    +0.033 A 
ATOM      2  C   UNL A   1     -30.757 -10.812  27.871  0.00  0.00    -0.019 A 
ATOM      3  C   UNL A   1     -29.725 -11.388  28.602  0.00  0.00    -0.004 A 
ATOM      4  C   UNL A   1     -29.472 -11.209  30.061  0.00  0.00    -0.004 A 
ATOM      5  C   UNL A   1     -28.408 -11.829  30.805  0.00  0.00    -0.000 A 
ATOM      6  C   UNL A   1     -30.054 -12.056  26.035  0.00  0.00    +0.138 A 
ATOM      7  C   UNL A   1     -28.973 -12.622  26.644  0.00  0.00    +0.037 A 
ATOM      8  C   UNL A   1     -28.759 -12.298  27.994  0.00  0.00    +0.003 A 
ATOM      9  C   UNL A   1     -28.301 -11.554  32.137  0.00  0.00    -0.000 A 
ATOM     10  C   UNL A   1     -28.909 -10.559  32.833  0.00  0.00    -0.000 A 
ATOM     11  C   UNL A   1     -29.822  -9.999  30.798  0.00  0.00    -0.022 A 
ATOM     12  C   UNL A   1     -30.822  -9.150  30.086  0.00  0.00    +0.031 C 
ATOM     13  C   UNL A   1     -29.689  -9.711  32.108  0.00  0.00    -0.004 A 
ATOM     14  C   UNL A   1     -31.373  -9.606  28.590  0.00  0.00    +0.027 C 
ENDROOT
BRANCH  14  15
ATOM     15  C   UNL A   1     -32.415  -8.892  28.001  0.00  0.00    +0.004 C 
ATOM     16  C   UNL A   1     -32.194  -7.665  27.638  0.00  0.00    +0.000 C 
ATOM     17  C   UNL A   1     -33.607  -8.998  28.940  0.00  0.00    +0.000 C 
ENDBRANCH  14  15
BRANCH   6  18
ATOM     18  O   UNL A   1     -30.315 -12.351  24.734  0.00  0.00    -0.474 OA
BRANCH  18  19
ATOM     19  C   UNL A   1     -31.026 -13.434  24.423  0.00  0.00    +0.225 C 
BRANCH  19  20
ATOM     20  C   UNL A   1     -30.484 -14.147  23.323  0.00  0.00    +0.146 C 
BRANCH  20  21
ATOM     21  N   UNL A   1     -29.918 -13.258  22.245  0.00  0.00    -0.268 NA
ATOM     22  C   UNL A   1     -30.452 -12.540  21.606  0.00  0.00    +0.072 C 
ATOM     23  C   UNL A   1     -29.725 -11.795  20.616  0.00  0.00    +0.017 C 
ATOM     24  C   UNL A   1     -28.738 -13.760  21.525  0.00  0.00    +0.072 C 
ATOM     25  C   UNL A   1     -28.040 -13.070  20.666  0.00  0.00    +0.017 C 
ATOM     26  C   UNL A   1     -28.671 -12.117  20.002  0.00  0.00    +0.003 C 
ENDBRANCH  20  21
BRANCH  20  27
ATOM     27  C   UNL A   1     -31.274 -15.077  22.758  0.00  0.00    +0.226 C 
BRANCH  27  28
ATOM     28  O   UNL A   1     -32.479 -14.814  22.648  0.00  0.00    -0.462 OA
BRANCH  28  29
ATOM     29  C   UNL A   1     -33.364 -15.204  21.636  0.00  0.00    +0.259 C 
ATOM     30  C   UNL A   1     -33.685 -14.388  20.772  0.00  0.00    +0.175 C 
ATOM     31  O   UNL A   1     -33.822 -13.211  21.062  0.00  0.00    -0.228 OA
ENDBRANCH  28  29
ENDBRANCH  27  28
ENDBRANCH  20  27
ENDBRANCH  19  20
ENDBRANCH  18  19
ENDBRANCH   6  18
TORSDOF 8
ENDMDL
ENDMDL
