MODEL 2540
MODEL 1
REMARK VINA RESULT:    -7.679      0.000      0.000
REMARK INTER + INTRA:          -8.404
REMARK INTER:                  -8.128
REMARK INTRA:                  -0.277
REMARK UNBOUND:                -0.277
REMARK  Name = No_2540-gen_results/8p0m/2024-11-27-11-27-31/
REMARK  1 active torsions:
REMARK  status: ('A' for Active; 'I' for Inactive)
REMARK    1  A    between atoms: C_11  and  C_12
REMARK                            x       y       z     vdW  Elec       q    Type
REMARK                         _______ _______ _______ _____ _____    ______ ____
ROOT
ATOM      1  O   UNL A   1     -27.897  -0.586  30.729  0.00  0.00    -0.273 OA
ATOM      2  C   UNL A   1     -27.003  -1.219  30.374  0.00  0.00    +0.246 C 
ATOM      3  C   UNL A   1     -27.066  -2.598  30.335  0.00  0.00    +0.113 C 
ATOM      4  N   UNL A   1     -25.674  -0.655  30.073  0.00  0.00    -0.198 NA
ATOM      5  C   UNL A   1     -26.079  -3.296  29.658  0.00  0.00    -0.015 A 
ATOM      6  C   UNL A   1     -26.032  -4.729  29.659  0.00  0.00    -0.004 A 
ATOM      7  C   UNL A   1     -24.890  -5.460  29.182  0.00  0.00    -0.000 A 
ATOM      8  C   UNL A   1     -24.196  -4.875  28.569  0.00  0.00    -0.000 A 
ATOM      9  C   UNL A   1     -24.103  -3.516  28.258  0.00  0.00    -0.003 A 
ATOM     10  C   UNL A   1     -25.082  -2.705  28.911  0.00  0.00    -0.002 A 
ATOM     11  C   UNL A   1     -24.849  -1.380  29.219  0.00  0.00    +0.139 C 
ENDROOT
BRANCH  11  12
ATOM     12  C   UNL A   1     -23.669  -0.612  28.730  0.00  0.00    +0.002 A 
ATOM     13  C   UNL A   1     -23.801   0.355  28.070  0.00  0.00    -0.002 A 
ATOM     14  C   UNL A   1     -22.683   1.181  27.663  0.00  0.00    -0.000 A 
ATOM     15  C   UNL A   1     -21.392   0.787  28.061  0.00  0.00    -0.000 A 
ATOM     16  C   UNL A   1     -21.256  -0.284  28.885  0.00  0.00    -0.000 A 
ATOM     17  C   UNL A   1     -22.391  -1.014  29.323  0.00  0.00    -0.002 A 
ENDBRANCH  11  12
TORSDOF 1
ENDMDL
ENDMDL
