REMARK  Name = No_2541-gen_results/8p0m/2024-11-27-11-27-31/
REMARK  1 active torsions:
REMARK  status: ('A' for Active; 'I' for Inactive)
REMARK    1  A    between atoms: C_4  and  C_7
REMARK                            x       y       z     vdW  Elec       q    Type
REMARK                         _______ _______ _______ _____ _____    ______ ____
ROOT
ATOM      1  C   UNL A   1     -28.016  -0.814  28.878  0.00  0.00    +0.011 A 
ATOM      2  C   UNL A   1     -28.469  -0.785  29.829  0.00  0.00    +0.058 A 
ATOM      3  C   UNL A   1     -26.504  -0.778  28.877  0.00  0.00    +0.001 A 
ATOM      4  C   UNL A   1     -25.810  -0.853  30.103  0.00  0.00    -0.004 A 
ATOM      5  C   UNL A   1     -27.991  -0.892  31.226  0.00  0.00    +0.011 A 
ATOM      6  C   UNL A   1     -26.604  -0.868  31.265  0.00  0.00    +0.001 A 
ATOM      7 CL   UNL A   1     -30.313  -0.767  29.816  0.00  0.00    -0.082 Cl
ENDROOT
BRANCH   4   8
ATOM      8  C   UNL A   1     -24.389  -0.805  30.164  0.00  0.00    -0.026 C 
ATOM      9  C   UNL A   1     -23.635  -0.862  29.147  0.00  0.00    -0.030 C 
ATOM     10  C   UNL A   1     -22.175  -0.673  29.213  0.00  0.00    +0.026 C 
ATOM     11  C   UNL A   1     -23.671   0.198  30.974  0.00  0.00    +0.026 C 
ATOM     12  C   UNL A   1     -22.183   0.098  30.371  0.00  0.00    +0.009 C 
ENDBRANCH   4   8
TORSDOF 1
