MODEL 2542
MODEL 1
REMARK VINA RESULT:    -6.400      0.000      0.000
REMARK INTER + INTRA:         -12.110
REMARK INTER:                 -10.516
REMARK INTRA:                  -1.594
REMARK UNBOUND:                -1.594
REMARK  Name = No_2542-gen_results/8p0m/2024-11-27-11-27-31/
REMARK  11 active torsions:
REMARK  status: ('A' for Active; 'I' for Inactive)
REMARK    1  A    between atoms: C_1  and  C_8
REMARK    2  A    between atoms: C_4  and  C_14
REMARK    3  A    between atoms: C_5  and  C_11
REMARK    4  A    between atoms: C_8  and  O_9
REMARK    5  A    between atoms: O_9  and  C_20
REMARK    6  A    between atoms: C_11  and  O_13
REMARK    7  A    between atoms: C_14  and  C_16
REMARK    8  A    between atoms: C_20  and  C_21
REMARK    9  A    between atoms: C_21  and  O_22
REMARK   10  A    between atoms: O_22  and  C_23
REMARK   11  A    between atoms: C_27  and  C_29
REMARK                            x       y       z     vdW  Elec       q    Type
REMARK                         _______ _______ _______ _____ _____    ______ ____
ROOT
ATOM      1  C   UNL A   1     -24.695  -0.207  26.845  0.00  0.00    +0.073 C 
ATOM      2  C   UNL A   1     -25.710   0.138  26.285  0.00  0.00    -0.038 C 
ATOM      3  C   UNL A   1     -26.845   0.478  26.825  0.00  0.00    +0.025 C 
ATOM      4  C   UNL A   1     -28.069   0.902  26.102  0.00  0.00    +0.041 C 
ATOM      5  C   UNL A   1     -27.969   0.984  24.684  0.00  0.00    +0.101 C 
ATOM      6  C   UNL A   1     -26.758   0.684  24.115  0.00  0.00    +0.015 C 
ATOM      7  C   UNL A   1     -25.658   0.316  24.813  0.00  0.00    +0.023 C 
ENDROOT
BRANCH   1   8
ATOM      8  C   UNL A   1     -23.789   0.900  27.402  0.00  0.00    +0.341 C 
ATOM      9  O   UNL A   1     -23.750   1.990  26.833  0.00  0.00    -0.245 OA
BRANCH   8  10
ATOM     10  O   UNL A   1     -23.405   0.786  28.622  0.00  0.00    -0.443 OA
BRANCH  10  11
ATOM     11  C   UNL A   1     -22.295   0.039  28.865  0.00  0.00    +0.241 C 
BRANCH  11  12
ATOM     12  C   UNL A   1     -22.754  -1.274  29.539  0.00  0.00    +0.189 C 
BRANCH  12  13
ATOM     13  O   UNL A   1     -22.900  -2.229  28.916  0.00  0.00    -0.352 OA
BRANCH  13  14
ATOM     14  C   UNL A   1     -24.057  -2.905  29.206  0.00  0.00    +0.116 C 
ATOM     15  C   UNL A   1     -24.016  -4.174  28.520  0.00  0.00    +0.030 C 
ATOM     16  C   UNL A   1     -24.794  -5.160  29.245  0.00  0.00    +0.003 C 
ATOM     17  C   UNL A   1     -25.974  -4.895  29.335  0.00  0.00    +0.008 C 
ATOM     18  C   UNL A   1     -26.296  -3.563  29.976  0.00  0.00    +0.067 C 
ATOM     19  C   UNL A   1     -25.211  -2.607  29.832  0.00  0.00    +0.037 C 
BRANCH  18  20
ATOM     20  C   UNL A   1     -27.568  -3.185  30.515  0.00  0.00    +0.207 C 
ATOM     21  O   UNL A   1     -28.277  -2.448  29.956  0.00  0.00    -0.288 OA
ENDBRANCH  18  20
ENDBRANCH  13  14
ENDBRANCH  12  13
ENDBRANCH  11  12
ENDBRANCH  10  11
ENDBRANCH   8  10
ENDBRANCH   1   8
BRANCH   5  22
ATOM     22  C   UNL A   1     -29.090   1.408  23.869  0.00  0.00    +0.317 C 
ATOM     23  O   UNL A   1     -29.255   2.458  23.457  0.00  0.00    -0.250 OA
BRANCH  22  24
ATOM     24  O   UNL A   1     -29.951   0.396  23.426  0.00  0.00    -0.444 OA
ATOM     25  C   UNL A   1     -31.203   0.718  23.081  0.00  0.00    +0.256 C 
ENDBRANCH  22  24
ENDBRANCH   5  22
BRANCH   4  26
ATOM     26  C   UNL A   1     -29.332   1.267  26.776  0.00  0.00    +0.183 C 
ATOM     27 CL   UNL A   1     -29.478   2.343  27.950  0.00  0.00    -0.103 Cl
BRANCH  26  28
ATOM     28  C   UNL A   1     -30.140   0.091  27.199  0.00  0.00    +0.379 C 
ATOM     29  O   UNL A   1     -30.768  -0.454  26.495  0.00  0.00    -0.244 OA
ATOM     30  O   UNL A   1     -30.089  -0.188  28.491  0.00  0.00    -0.244 OA
ENDBRANCH  26  28
ENDBRANCH   4  26
TORSDOF 11
ENDMDL
ENDMDL
