MODEL 2544
MODEL 1
REMARK VINA RESULT:    -4.263      0.000      0.000
REMARK INTER + INTRA:          -4.263
REMARK INTER:                  -4.263
REMARK INTRA:                   0.000
REMARK UNBOUND:                 0.000
REMARK  Name = No_2544-gen_results/8p0m/2024-11-27-11-27-31/
REMARK  0 active torsions:
REMARK  status: ('A' for Active; 'I' for Inactive)
REMARK                            x       y       z     vdW  Elec       q    Type
REMARK                         _______ _______ _______ _____ _____    ______ ____
ROOT
ATOM      1  C   UNL A   1     -24.044  -4.645  28.590  0.00  0.00    +0.000 A 
ATOM      2  C   UNL A   1     -24.969  -5.301  29.011  0.00  0.00    +0.000 A 
ATOM      3  C   UNL A   1     -26.104  -4.814  29.630  0.00  0.00    +0.000 A 
ATOM      4  C   UNL A   1     -26.242  -3.370  29.826  0.00  0.00    +0.000 A 
ATOM      5  C   UNL A   1     -25.127  -2.631  29.290  0.00  0.00    +0.000 A 
ATOM      6  C   UNL A   1     -24.088  -3.210  28.727  0.00  0.00    +0.000 A 
ENDROOT
TORSDOF 0
ENDMDL
ENDMDL
