REMARK  Name = outputs/IAG933/test6/raw/output_2546_IAG933_linker_design_.xyz
REMARK  10 active torsions:
REMARK  status: ('A' for Active; 'I' for Inactive)
REMARK    1  A    between atoms: C_1  and  C_2
REMARK    2  A    between atoms: C_14  and  C_15
REMARK    3  A    between atoms: C_15  and  O_18
REMARK    4  A    between atoms: O_18  and  C_28
REMARK    5  A    between atoms: C_21  and  O_22
REMARK    6  A    between atoms: O_22  and  C_23
REMARK    7  A    between atoms: C_23  and  C_24
REMARK    8  A    between atoms: C_28  and  C_35
REMARK    9  A    between atoms: C_28  and  C_41
REMARK   10  A    between atoms: O_32  and  N_37
REMARK                            x       y       z     vdW  Elec       q    Type
REMARK                         _______ _______ _______ _____ _____    ______ ____
ROOT
ATOM      1  C   UNL A   1     -25.673   3.729  29.565  0.00  0.00    +0.219 C 
ENDROOT
BRANCH   1  15
ATOM      2  C   UNL A   1     -24.855  -1.012  30.143  0.00  0.00    +0.057 C 
ATOM      3  C   UNL A   1     -25.387  -0.679  31.571  0.00  0.00    +0.078 C 
ATOM      4  C   UNL A   1     -25.189   0.773  32.028  0.00  0.00    +0.018 C 
ATOM      5  C   UNL A   1     -25.336   0.684  33.544  0.00  0.00    +0.020 C 
ATOM      6  C   UNL A   1     -24.829  -0.715  33.905  0.00  0.00    +0.089 C 
ATOM      7  N   UNL A   1     -24.758  -1.481  32.646  0.00  0.00    -0.219 NA
ATOM      8  C   UNL A   1     -23.464  -0.609  29.675  0.00  0.00    +0.108 C 
ATOM      9  O   UNL A   1     -21.985   0.657  28.474  0.00  0.00    -0.261 OA
ATOM     10  C   UNL A   1     -22.143   1.519  27.494  0.00  0.00    +0.259 C 
ATOM     11  C   UNL A   1     -23.846   1.807  29.087  0.00  0.00    +0.162 C 
ATOM     12  C   UNL A   1     -25.251   2.086  31.313  0.00  0.00    +0.008 C 
ATOM     13  N   UNL A   1     -23.198   0.641  29.210  0.00  0.00    -0.149 NA
ATOM     14  N   UNL A   1     -23.185   2.369  27.933  0.00  0.00    -0.170 NA
ATOM     15  C   UNL A   1     -24.958   2.456  30.027  0.00  0.00    +0.078 C 
BRANCH   2  16
ATOM     16  C   UNL A   1     -24.973  -2.505  29.788  0.00  0.00    -0.020 C 
ATOM     17  C   UNL A   1     -23.906  -3.173  29.146  0.00  0.00    -0.004 C 
ATOM     18  C   UNL A   1     -23.989  -4.549  28.853  0.00  0.00    -0.000 C 
ATOM     19  C   UNL A   1     -25.137  -5.280  29.205  0.00  0.00    -0.000 C 
ATOM     20  C   UNL A   1     -26.232  -4.611  29.784  0.00  0.00    -0.000 C 
ATOM     21  C   UNL A   1     -26.155  -3.232  30.065  0.00  0.00    -0.004 C 
ENDBRANCH   2  16
ENDBRANCH   1  15
BRANCH   1  23
ATOM     22  O   UNL A   1     -27.701   3.541  30.747  0.00  0.00    -0.234 OA
ATOM     23  C   UNL A   1     -27.100   3.759  29.905  0.00  0.00    +0.290 C 
ATOM     24  N   UNL A   1     -28.144   4.048  29.440  0.00  0.00    -0.017 NA
BRANCH  24  25
ATOM     25  O   UNL A   1     -28.615   3.776  28.368  0.00  0.00    -0.254 OA
ATOM     26  C   UNL A   1     -29.655   3.097  28.959  0.00  0.00    +0.203 C 
ENDBRANCH  24  25
ENDBRANCH   1  23
BRANCH   1  27
ATOM     27  O   UNL A   1     -25.143   3.966  28.243  0.00  0.00    -0.460 OA
BRANCH  27  28
ATOM     28  C   UNL A   1     -25.642   4.093  27.123  0.00  0.00    +0.222 C 
ATOM     29  N   UNL A   1     -25.614   5.252  26.449  0.00  0.00    -0.236 NA
ATOM     30  C   UNL A   1     -25.026   6.479  26.963  0.00  0.00    +0.155 C 
BRANCH  28  32
ATOM     31  C   UNL A   1     -25.688   1.614  26.461  0.00  0.00    +0.041 C 
ATOM     32  C   UNL A   1     -26.250   2.920  26.395  0.00  0.00    +0.074 C 
ATOM     33  C   UNL A   1     -27.438   3.091  25.645  0.00  0.00    +0.107 C 
ATOM     34  N   UNL A   1     -28.075   2.089  25.003  0.00  0.00    -0.208 NA
ATOM     35  C   UNL A   1     -27.543   0.849  25.079  0.00  0.00    +0.253 C 
ATOM     36  C   UNL A   1     -26.354   0.576  25.777  0.00  0.00    +0.193 C 
ATOM     37  F   UNL A   1     -25.860  -0.681  25.795  0.00  0.00    -0.199 F 
BRANCH  35  38
ATOM     38  O   UNL A   1     -28.193  -0.208  24.477  0.00  0.00    -0.456 OA
BRANCH  38  39
ATOM     39  C   UNL A   1     -29.460   0.005  23.866  0.00  0.00    +0.243 C 
BRANCH  39  40
ATOM     40  C   UNL A   1     -30.065  -1.377  23.573  0.00  0.00    +0.229 C 
ATOM     41  O   UNL A   1     -30.729  -1.878  24.721  0.00  0.00    -0.216 OA
ENDBRANCH  39  40
ENDBRANCH  38  39
ENDBRANCH  35  38
ENDBRANCH  28  32
ENDBRANCH  27  28
ENDBRANCH   1  27
TORSDOF 10
