MODEL 2546
MODEL 1
REMARK VINA RESULT:    -8.380      0.000      0.000
REMARK INTER + INTRA:         -12.602
REMARK INTER:                 -11.319
REMARK INTRA:                  -1.283
REMARK UNBOUND:                -1.283
REMARK  Name = No_2546-gen_results/8p0m/2024-11-27-11-27-31/
REMARK  6 active torsions:
REMARK  status: ('A' for Active; 'I' for Inactive)
REMARK    1  A    between atoms: C_2  and  O_7
REMARK    2  A    between atoms: C_4  and  C_14
REMARK    3  A    between atoms: O_7  and  C_8
REMARK    4  A    between atoms: C_14  and  C_15
REMARK    5  A    between atoms: C_19  and  C_21
REMARK    6  A    between atoms: C_21  and  C_22
REMARK                            x       y       z     vdW  Elec       q    Type
REMARK                         _______ _______ _______ _____ _____    ______ ____
ROOT
ATOM      1  C   UNL A   1     -23.886   2.295  27.144  0.00  0.00    +0.053 C 
ENDROOT
BRANCH   1   5
ATOM      2  C   UNL A   1     -25.668   0.060  24.562  0.00  0.00    +0.037 A 
ATOM      3  C   UNL A   1     -26.643   0.203  24.937  0.00  0.00    +0.145 A 
ATOM      4  C   UNL A   1     -24.580   0.835  25.270  0.00  0.00    -0.001 A 
ATOM      5  C   UNL A   1     -24.896   1.563  26.436  0.00  0.00    -0.018 A 
ATOM      6  C   UNL A   1     -27.226   0.861  26.128  0.00  0.00    +0.037 A 
ATOM      7  C   UNL A   1     -26.253   1.579  26.808  0.00  0.00    -0.001 A 
BRANCH   3   8
ATOM      8  O   UNL A   1     -27.706  -0.548  24.252  0.00  0.00    -0.454 OA
BRANCH   8   9
ATOM      9  C   UNL A   1     -28.683   0.138  23.779  0.00  0.00    +0.145 A 
ATOM     10  C   UNL A   1     -28.653   1.416  23.492  0.00  0.00    +0.037 A 
ATOM     11  C   UNL A   1     -29.732   2.231  23.087  0.00  0.00    +0.003 A 
ATOM     12  C   UNL A   1     -30.962   1.549  22.942  0.00  0.00    +0.000 A 
ATOM     13  C   UNL A   1     -31.072   0.219  23.253  0.00  0.00    +0.003 A 
ATOM     14  C   UNL A   1     -29.974  -0.505  23.712  0.00  0.00    +0.037 A 
ENDBRANCH   8   9
ENDBRANCH   3   8
ENDBRANCH   1   5
BRANCH   1  15
ATOM     15  C   UNL A   1     -22.970   1.711  27.919  0.00  0.00    -0.018 A 
ATOM     16  C   UNL A   1     -21.677   1.312  27.388  0.00  0.00    -0.004 A 
ATOM     17  C   UNL A   1     -20.818   0.561  28.193  0.00  0.00    -0.001 A 
ATOM     18  C   UNL A   1     -21.476  -0.399  29.057  0.00  0.00    -0.004 A 
ATOM     19  C   UNL A   1     -22.871  -0.247  29.390  0.00  0.00    -0.018 A 
ATOM     20  C   UNL A   1     -23.563   0.725  28.757  0.00  0.00    -0.008 A 
BRANCH  19  21
ATOM     21  C   UNL A   1     -23.410  -1.210  30.337  0.00  0.00    +0.053 C 
BRANCH  21  22
ATOM     22  C   UNL A   1     -24.232  -2.079  30.020  0.00  0.00    -0.018 A 
ATOM     23  C   UNL A   1     -25.612  -2.002  30.365  0.00  0.00    -0.004 A 
ATOM     24  C   UNL A   1     -26.450  -3.055  30.196  0.00  0.00    -0.000 A 
ATOM     25  C   UNL A   1     -26.098  -4.150  29.353  0.00  0.00    -0.000 A 
ATOM     26  C   UNL A   1     -24.832  -4.273  28.887  0.00  0.00    -0.000 A 
ATOM     27  C   UNL A   1     -23.848  -3.344  29.227  0.00  0.00    -0.004 A 
ENDBRANCH  21  22
ENDBRANCH  19  21
ENDBRANCH   1  15
TORSDOF 6
ENDMDL
ENDMDL
