REMARK  Name = No_2547-gen_results/8p0m/2024-11-27-11-27-31/
REMARK  1 active torsions:
REMARK  status: ('A' for Active; 'I' for Inactive)
REMARK    1  A    between atoms: C_14  and  C_15
REMARK                            x       y       z     vdW  Elec       q    Type
REMARK                         _______ _______ _______ _____ _____    ______ ____
ROOT
ATOM      1  N   UNL A   1     -28.054  -1.050  28.725  0.00  0.00    -0.225 NA
ATOM      2  C   UNL A   1     -26.966  -0.472  28.771  0.00  0.00    +0.162 A 
ATOM      3  C   UNL A   1     -25.929  -1.020  29.506  0.00  0.00    +0.039 A 
ATOM      4  C   UNL A   1     -25.937  -1.915  29.971  0.00  0.00    +0.005 A 
ATOM      5  C   UNL A   1     -27.124  -2.758  30.076  0.00  0.00    +0.021 A 
ATOM      6  C   UNL A   1     -28.166  -2.216  29.473  0.00  0.00    +0.101 A 
ATOM      7  N   UNL A   1     -26.857   0.780  28.092  0.00  0.00    -0.227 NA
ATOM      8  C   UNL A   1     -25.669   1.401  27.956  0.00  0.00    +0.083 A 
ATOM      9  C   UNL A   1     -25.498   2.631  27.282  0.00  0.00    +0.019 A 
ATOM     10  C   UNL A   1     -24.209   3.207  27.049  0.00  0.00    +0.002 A 
ATOM     11  C   UNL A   1     -23.078   2.474  27.419  0.00  0.00    +0.000 A 
ATOM     12  C   UNL A   1     -23.208   1.214  28.065  0.00  0.00    +0.002 A 
ATOM     13  C   UNL A   1     -24.422   0.680  28.292  0.00  0.00    +0.021 A 
ATOM     14  C   UNL A   1     -24.573  -0.264  29.163  0.00  0.00    +0.047 A 
ENDROOT
BRANCH  14  15
ATOM     15  C   UNL A   1     -23.359  -0.974  29.722  0.00  0.00    +0.234 C 
ATOM     16  O   UNL A   1     -22.673  -1.676  28.978  0.00  0.00    -0.283 OA
ENDBRANCH  14  15
TORSDOF 1
