MODEL 2547
MODEL 1
REMARK VINA RESULT:    -5.974      0.000      0.000
REMARK INTER + INTRA:          -6.195
REMARK INTER:                  -6.323
REMARK INTRA:                   0.128
REMARK UNBOUND:                 0.128
REMARK  Name = No_2547-gen_results/8p0m/2024-11-27-11-27-31/
REMARK  1 active torsions:
REMARK  status: ('A' for Active; 'I' for Inactive)
REMARK    1  A    between atoms: C_14  and  C_15
REMARK                            x       y       z     vdW  Elec       q    Type
REMARK                         _______ _______ _______ _____ _____    ______ ____
ROOT
ATOM      1  N   UNL A   1     -26.006   0.451  31.954  0.00  0.00    -0.225 NA
ATOM      2  C   UNL A   1     -25.594  -0.339  31.103  0.00  0.00    +0.162 A 
ATOM      3  C   UNL A   1     -24.546   0.028  30.276  0.00  0.00    +0.039 A 
ATOM      4  C   UNL A   1     -24.008   0.878  30.340  0.00  0.00    +0.005 A 
ATOM      5  C   UNL A   1     -24.333   1.972  31.249  0.00  0.00    +0.021 A 
ATOM      6  C   UNL A   1     -25.396   1.700  31.984  0.00  0.00    +0.101 A 
ATOM      7  N   UNL A   1     -26.272  -1.591  30.985  0.00  0.00    -0.227 NA
ATOM      8  C   UNL A   1     -25.794  -2.574  30.196  0.00  0.00    +0.083 A 
ATOM      9  C   UNL A   1     -26.411  -3.836  30.053  0.00  0.00    +0.019 A 
ATOM     10  C   UNL A   1     -25.818  -4.902  29.304  0.00  0.00    +0.002 A 
ATOM     11  C   UNL A   1     -24.537  -4.710  28.779  0.00  0.00    +0.000 A 
ATOM     12  C   UNL A   1     -23.866  -3.467  28.935  0.00  0.00    +0.002 A 
ATOM     13  C   UNL A   1     -24.431  -2.464  29.632  0.00  0.00    +0.021 A 
ATOM     14  C   UNL A   1     -24.011  -1.248  29.493  0.00  0.00    +0.047 A 
ENDROOT
BRANCH  14  15
ATOM     15  C   UNL A   1     -22.705  -0.980  28.777  0.00  0.00    +0.234 C 
ATOM     16  O   UNL A   1     -21.641  -1.163  29.370  0.00  0.00    -0.283 OA
ENDBRANCH  14  15
TORSDOF 1
ENDMDL
ENDMDL
