MODEL 2548
MODEL 1
REMARK VINA RESULT:    -4.822      0.000      0.000
REMARK INTER + INTRA:          -4.822
REMARK INTER:                  -4.822
REMARK INTRA:                   0.000
REMARK UNBOUND:                 0.000
REMARK  Name = No_2548-gen_results/8p0m/2024-11-27-11-27-31/
REMARK  0 active torsions:
REMARK  status: ('A' for Active; 'I' for Inactive)
REMARK                            x       y       z     vdW  Elec       q    Type
REMARK                         _______ _______ _______ _____ _____    ______ ____
ROOT
ATOM      1  C   UNL A   1      -8.142 -10.462  18.709  0.00  0.00    +0.041 A 
ATOM      2  C   UNL A   1      -9.110 -10.452  17.984  0.00  0.00    +0.141 A 
ATOM      3  C   UNL A   1     -10.261  -9.755  18.334  0.00  0.00    +0.030 A 
ATOM      4  C   UNL A   1     -10.354  -9.061  19.592  0.00  0.00    +0.003 A 
ATOM      5  C   UNL A   1      -9.198  -9.145  20.379  0.00  0.00    +0.011 A 
ATOM      6  C   UNL A   1      -8.141  -9.831  20.010  0.00  0.00    +0.060 A 
ATOM      7  F   UNL A   1      -9.180 -11.103  16.822  0.00  0.00    -0.204 F 
ATOM      8 CL   UNL A   1      -6.810  -9.895  21.087  0.00  0.00    -0.082 Cl
ENDROOT
TORSDOF 0
ENDMDL
ENDMDL
