MODEL 2549
MODEL 1
REMARK VINA RESULT:    -4.533      0.000      0.000
REMARK INTER + INTRA:          -4.920
REMARK INTER:                  -4.798
REMARK INTRA:                  -0.122
REMARK UNBOUND:                -0.122
REMARK  Name = No_2549-gen_results/8p0m/2024-11-27-11-27-31/
REMARK  1 active torsions:
REMARK  status: ('A' for Active; 'I' for Inactive)
REMARK    1  A    between atoms: C_3  and  C_5
REMARK                            x       y       z     vdW  Elec       q    Type
REMARK                         _______ _______ _______ _____ _____    ______ ____
ROOT
ATOM      1  O   UNL A   1     -26.745  -2.154  30.230  0.00  0.00    -0.273 OA
ATOM      2  C   UNL A   1     -25.928  -2.761  29.690  0.00  0.00    +0.245 C 
ATOM      3  C   UNL A   1     -24.995  -2.630  29.153  0.00  0.00    +0.100 C 
ATOM      4  N   UNL A   1     -26.252  -4.269  29.699  0.00  0.00    -0.205 NA
ATOM      5  C   UNL A   1     -25.395  -5.239  29.259  0.00  0.00    +0.115 C 
ATOM      6  C   UNL A   1     -24.241  -4.802  28.655  0.00  0.00    +0.024 C 
ATOM      7  C   UNL A   1     -23.923  -3.577  28.606  0.00  0.00    +0.015 C 
ENDROOT
BRANCH   3   8
ATOM      8  C   UNL A   1     -24.336  -1.372  28.949  0.00  0.00    -0.022 C 
ATOM      9  C   UNL A   1     -24.249  -0.586  28.178  0.00  0.00    -0.030 C 
ATOM     10  C   UNL A   1     -25.358  -0.516  27.160  0.00  0.00    +0.030 C 
ENDBRANCH   3   8
TORSDOF 1
ENDMDL
ENDMDL
