REMARK  Name = No_2550-gen_results/8p0m/2024-11-27-11-27-31/
REMARK  7 active torsions:
REMARK  status: ('A' for Active; 'I' for Inactive)
REMARK    1  A    between atoms: C_3  and  C_4
REMARK    2  A    between atoms: C_10  and  C_13
REMARK    3  A    between atoms: N_14  and  CA_16
REMARK    4  A    between atoms: CA_16  and  C_17
REMARK    5  A    between atoms: CA_16  and  C_18
REMARK    6  A    between atoms: C_21  and  C_22
REMARK    7  A    between atoms: C_26  and  C_34
REMARK                            x       y       z     vdW  Elec       q    Type
REMARK                         _______ _______ _______ _____ _____    ______ ____
ROOT
ATOM      1  CA  UNL A   1     -31.401  -2.632  30.596  0.00  0.00    +0.220 C 
ENDROOT
BRANCH   1   3
ATOM      2  C   UNL A   1     -29.122  -2.686  30.252  0.00  0.00    +0.266 C 
ATOM      3  N   UNL A   1     -30.268  -2.185  30.249  0.00  0.00    -0.187 NA
ATOM      4  O   UNL A   1     -28.972  -3.972  30.392  0.00  0.00    -0.268 OA
BRANCH   2   8
ATOM      5  C   UNL A   1     -28.016  -0.814  28.878  0.00  0.00    +0.005 A 
ATOM      6  C   UNL A   1     -27.064  -0.119  28.608  0.00  0.00    +0.000 A 
ATOM      7  C   UNL A   1     -25.792  -0.430  29.076  0.00  0.00    +0.000 A 
ATOM      8  C   UNL A   1     -27.947  -1.882  29.871  0.00  0.00    +0.055 A 
ATOM      9  C   UNL A   1     -26.716  -2.329  30.306  0.00  0.00    +0.005 A 
ATOM     10  C   UNL A   1     -25.592  -1.564  29.967  0.00  0.00    +0.000 A 
BRANCH   7  11
ATOM     11  C   UNL A   1     -24.546   0.349  28.823  0.00  0.00    +0.001 A 
ATOM     12  C   UNL A   1     -24.659   1.420  27.888  0.00  0.00    +0.011 A 
ATOM     13  C   UNL A   1     -23.540   2.179  27.550  0.00  0.00    +0.058 A 
ATOM     14  C   UNL A   1     -22.293   1.743  28.047  0.00  0.00    +0.011 A 
ATOM     15  C   UNL A   1     -22.171   0.708  28.928  0.00  0.00    +0.001 A 
ATOM     16  C   UNL A   1     -23.334  -0.062  29.308  0.00  0.00    +0.000 A 
ATOM     17 CL   UNL A   1     -23.683   3.442  26.443  0.00  0.00    -0.082 Cl
ENDBRANCH   7  11
ENDBRANCH   2   8
ENDBRANCH   1   3
BRANCH   1  18
ATOM     18  C   UNL A   1     -32.329  -2.570  29.367  0.00  0.00    +0.388 C 
ATOM     19  O   UNL A   1     -32.316  -1.628  28.617  0.00  0.00    -0.243 OA
ATOM     20  OXT UNL A   1     -32.991  -3.653  28.982  0.00  0.00    -0.243 OA
ENDBRANCH   1  18
BRANCH   1  21
ATOM     21  C   UNL A   1     -31.701  -3.442  31.334  0.00  0.00    +0.006 C 
ATOM     22  C   UNL A   1     -32.020  -2.915  32.674  0.00  0.00    -0.002 C 
BRANCH  22  23
ATOM     23  C   UNL A   1     -32.066  -1.544  32.853  0.00  0.00    -0.000 A 
ATOM     24  C   UNL A   1     -32.084  -0.664  31.953  0.00  0.00    -0.000 A 
ATOM     25  C   UNL A   1     -32.069   0.802  32.366  0.00  0.00    +0.000 A 
ATOM     26  C   UNL A   1     -32.150   1.045  33.703  0.00  0.00    +0.005 A 
ATOM     27  C   UNL A   1     -32.197   0.100  34.642  0.00  0.00    +0.042 A 
ATOM     28  C   UNL A   1     -32.111  -1.204  34.286  0.00  0.00    +0.003 A 
ATOM     29  C   UNL A   1     -32.031   1.816  31.297  0.00  0.00    +0.002 A 
ATOM     30  C   UNL A   1     -32.274   2.957  31.617  0.00  0.00    +0.030 A 
ATOM     31  C   UNL A   1     -32.348   3.368  33.021  0.00  0.00    +0.140 A 
ATOM     32  C   UNL A   1     -32.303   2.489  33.993  0.00  0.00    +0.030 A 
ATOM     33  F   UNL A   1     -32.461   4.696  33.279  0.00  0.00    -0.204 F 
BRANCH  27  34
ATOM     34  C   UNL A   1     -32.229   0.467  36.078  0.00  0.00    +0.234 C 
ATOM     35  O   UNL A   1     -32.873  -0.131  36.800  0.00  0.00    -0.283 OA
ENDBRANCH  27  34
ENDBRANCH  22  23
ENDBRANCH   1  21
TORSDOF 7
