MODEL 2550
MODEL 1
REMARK VINA RESULT:    -8.001      0.000      0.000
REMARK INTER + INTRA:         -12.345
REMARK INTER:                 -11.275
REMARK INTRA:                  -1.069
REMARK UNBOUND:                -1.069
REMARK  Name = No_2550-gen_results/8p0m/2024-11-27-11-27-31/
REMARK  7 active torsions:
REMARK  status: ('A' for Active; 'I' for Inactive)
REMARK    1  A    between atoms: C_3  and  C_4
REMARK    2  A    between atoms: C_10  and  C_13
REMARK    3  A    between atoms: N_14  and  CA_16
REMARK    4  A    between atoms: CA_16  and  C_17
REMARK    5  A    between atoms: CA_16  and  C_18
REMARK    6  A    between atoms: C_21  and  C_22
REMARK    7  A    between atoms: C_26  and  C_34
REMARK                            x       y       z     vdW  Elec       q    Type
REMARK                         _______ _______ _______ _____ _____    ______ ____
ROOT
ATOM      1  CA  UNL A   1     -30.511 -12.942  22.251  0.00  0.00    +0.220 C 
ENDROOT
BRANCH   1   3
ATOM      2  C   UNL A   1     -30.483 -13.358  24.519  0.00  0.00    +0.266 C 
ATOM      3  N   UNL A   1     -30.297 -12.694  23.475  0.00  0.00    -0.187 NA
ATOM      4  O   UNL A   1     -30.712 -14.638  24.447  0.00  0.00    -0.268 OA
BRANCH   2   8
ATOM      5  C   UNL A   1     -30.302 -11.331  26.092  0.00  0.00    +0.005 A 
ATOM      6  C   UNL A   1     -30.142 -10.854  27.191  0.00  0.00    +0.000 A 
ATOM      7  C   UNL A   1     -29.666 -11.626  28.246  0.00  0.00    +0.000 A 
ATOM      8  C   UNL A   1     -30.221 -12.767  25.843  0.00  0.00    +0.055 A 
ATOM      9  C   UNL A   1     -29.657 -13.592  26.795  0.00  0.00    +0.005 A 
ATOM     10  C   UNL A   1     -29.420 -13.049  28.065  0.00  0.00    +0.000 A 
BRANCH   7  11
ATOM     11  C   UNL A   1     -29.437 -11.160  29.644  0.00  0.00    +0.001 A 
ATOM     12  C   UNL A   1     -28.493 -11.911  30.405  0.00  0.00    +0.011 A 
ATOM     13  C   UNL A   1     -28.243 -11.583  31.736  0.00  0.00    +0.058 A 
ATOM     14  C   UNL A   1     -29.066 -10.597  32.321  0.00  0.00    +0.011 A 
ATOM     15  C   UNL A   1     -29.985  -9.884  31.607  0.00  0.00    +0.001 A 
ATOM     16  C   UNL A   1     -30.225 -10.198  30.216  0.00  0.00    +0.000 A 
ATOM     17 CL   UNL A   1     -27.127 -12.477  32.628  0.00  0.00    -0.082 Cl
ENDBRANCH   7  11
ENDBRANCH   2   8
ENDBRANCH   1   3
BRANCH   1  18
ATOM     18  C   UNL A   1     -32.037 -12.969  22.036  0.00  0.00    +0.388 C 
ATOM     19  O   UNL A   1     -32.632 -12.003  21.633  0.00  0.00    -0.243 OA
ATOM     20  OXT UNL A   1     -32.690 -14.124  22.068  0.00  0.00    -0.243 OA
ENDBRANCH   1  18
BRANCH   1  21
ATOM     21  C   UNL A   1     -29.939 -12.660  21.311  0.00  0.00    +0.006 C 
ATOM     22  C   UNL A   1     -29.009 -13.713  20.863  0.00  0.00    -0.002 C 
BRANCH  22  23
ATOM     23  C   UNL A   1     -29.031 -14.936  21.509  0.00  0.00    -0.000 A 
ATOM     24  C   UNL A   1     -29.863 -15.865  21.342  0.00  0.00    -0.000 A 
ATOM     25  C   UNL A   1     -29.747 -17.114  22.207  0.00  0.00    +0.000 A 
ATOM     26  C   UNL A   1     -28.665 -17.169  23.031  0.00  0.00    +0.005 A 
ATOM     27  C   UNL A   1     -27.754 -16.202  23.149  0.00  0.00    +0.042 A 
ATOM     28  C   UNL A   1     -27.906 -15.049  22.455  0.00  0.00    +0.003 A 
ATOM     29  C   UNL A   1     -30.766 -18.165  22.036  0.00  0.00    +0.002 A 
ATOM     30  C   UNL A   1     -30.528 -19.242  22.531  0.00  0.00    +0.030 A 
ATOM     31  C   UNL A   1     -29.420 -19.435  23.469  0.00  0.00    +0.140 A 
ATOM     32  C   UNL A   1     -28.546 -18.485  23.698  0.00  0.00    +0.030 A 
ATOM     33  F   UNL A   1     -29.334 -20.636  24.097  0.00  0.00    -0.204 F 
BRANCH  27  34
ATOM     34  C   UNL A   1     -26.639 -16.334  24.117  0.00  0.00    +0.234 C 
ATOM     35  O   UNL A   1     -26.080 -15.406  24.464  0.00  0.00    -0.283 OA
ENDBRANCH  27  34
ENDBRANCH  22  23
ENDBRANCH   1  21
TORSDOF 7
ENDMDL
ENDMDL
