MODEL 2551
MODEL 1
REMARK VINA RESULT:    -7.208      0.000      0.000
REMARK INTER + INTRA:         -10.098
REMARK INTER:                  -8.472
REMARK INTRA:                  -1.626
REMARK UNBOUND:                -1.626
REMARK  Name = No_2551-gen_results/8p0m/2024-11-27-11-27-31/
REMARK  3 active torsions:
REMARK  status: ('A' for Active; 'I' for Inactive)
REMARK    1  A    between atoms: C_3  and  C_4
REMARK    2  A    between atoms: C_4  and  C_8
REMARK    3  A    between atoms: C_7  and  C_22
REMARK                            x       y       z     vdW  Elec       q    Type
REMARK                         _______ _______ _______ _____ _____    ______ ____
ROOT
ATOM      1  C   UNL A   1     -10.941   1.572  37.377  0.00  0.00    +0.048 C 
ATOM      2  C   UNL A   1     -12.023   2.239  37.140  0.00  0.00    -0.017 A 
ATOM      3  C   UNL A   1      -9.873   1.516  36.382  0.00  0.00    -0.026 C 
ATOM      4  C   UNL A   1     -12.895   2.757  38.191  0.00  0.00    -0.004 A 
ATOM      5  C   UNL A   1     -14.185   3.052  37.929  0.00  0.00    -0.001 A 
ATOM      6  C   UNL A   1     -14.573   3.300  36.578  0.00  0.00    -0.002 A 
ATOM      7  C   UNL A   1     -12.570   2.278  35.825  0.00  0.00    +0.008 A 
ATOM      8  C   UNL A   1     -13.689   2.735  35.688  0.00  0.00    +0.003 A 
ATOM      9  C   UNL A   1      -9.999   1.132  35.077  0.00  0.00    -0.025 C 
ATOM     10  C   UNL A   1     -11.072   1.423  34.248  0.00  0.00    +0.061 C 
ATOM     11  C   UNL A   1     -11.958   1.872  34.644  0.00  0.00    +0.057 C 
ATOM     12  N   UNL A   1     -12.901   2.173  33.558  0.00  0.00    -0.270 NA
ATOM     13  C   UNL A   1     -14.056   2.693  34.281  0.00  0.00    +0.151 C 
ATOM     14  C   UNL A   1     -10.691   1.085  32.872  0.00  0.00    +0.011 C 
ENDROOT
BRANCH   1  15
ATOM     15  C   UNL A   1     -10.788   0.848  38.563  0.00  0.00    +0.035 C 
BRANCH  15  18
ATOM     16  C   UNL A   1     -11.279  -1.548  37.579  0.00  0.00    -0.004 A 
ATOM     17  C   UNL A   1     -11.787  -2.442  37.807  0.00  0.00    -0.000 A 
ATOM     18  C   UNL A   1     -11.280  -0.502  38.673  0.00  0.00    -0.022 A 
ATOM     19  C   UNL A   1     -12.321  -2.972  39.069  0.00  0.00    -0.000 A 
ATOM     20  C   UNL A   1     -12.332  -2.084  40.123  0.00  0.00    -0.001 A 
ATOM     21  C   UNL A   1     -11.788  -0.834  39.981  0.00  0.00    -0.008 A 
BRANCH  21  22
ATOM     22  C   UNL A   1     -11.887   0.130  40.914  0.00  0.00    -0.022 C 
ATOM     23  C   UNL A   1     -13.134   0.768  41.192  0.00  0.00    -0.005 C 
ATOM     24  C   UNL A   1     -10.828   0.321  41.873  0.00  0.00    +0.031 C 
ENDBRANCH  21  22
ENDBRANCH  15  18
ENDBRANCH   1  15
TORSDOF 3
ENDMDL
ENDMDL
