REMARK  Name = No_2551-gen_results/8p0m/2024-11-27-11-27-31/
REMARK  3 active torsions:
REMARK  status: ('A' for Active; 'I' for Inactive)
REMARK    1  A    between atoms: C_3  and  C_4
REMARK    2  A    between atoms: C_4  and  C_8
REMARK    3  A    between atoms: C_7  and  C_22
REMARK                            x       y       z     vdW  Elec       q    Type
REMARK                         _______ _______ _______ _____ _____    ______ ____
ROOT
ATOM      1  C   UNL A   1     -25.899   0.315  26.747  0.00  0.00    +0.048 C 
ATOM      2  C   UNL A   1     -25.639   1.561  26.974  0.00  0.00    -0.017 A 
ATOM      3  C   UNL A   1     -26.508  -0.096  25.484  0.00  0.00    -0.026 C 
ATOM      4  C   UNL A   1     -24.631   2.011  27.930  0.00  0.00    -0.004 A 
ATOM      5  C   UNL A   1     -24.683   3.255  28.448  0.00  0.00    -0.001 A 
ATOM      6  C   UNL A   1     -25.413   4.262  27.747  0.00  0.00    -0.002 A 
ATOM      7  C   UNL A   1     -26.515   2.577  26.494  0.00  0.00    +0.008 A 
ATOM      8  C   UNL A   1     -26.350   3.710  26.905  0.00  0.00    +0.003 A 
ATOM      9  C   UNL A   1     -27.662   0.395  24.942  0.00  0.00    -0.025 C 
ATOM     10  C   UNL A   1     -28.071   1.720  24.976  0.00  0.00    +0.061 C 
ATOM     11  C   UNL A   1     -27.545   2.436  25.570  0.00  0.00    +0.057 C 
ATOM     12  N   UNL A   1     -28.105   3.778  25.359  0.00  0.00    -0.270 NA
ATOM     13  C   UNL A   1     -27.333   4.591  26.292  0.00  0.00    +0.151 C 
ATOM     14  C   UNL A   1     -29.197   1.874  24.047  0.00  0.00    +0.011 C 
ENDROOT
BRANCH   1  15
ATOM     15  C   UNL A   1     -25.654  -0.660  27.719  0.00  0.00    +0.035 C 
BRANCH  15  18
ATOM     16  C   UNL A   1     -28.016  -0.814  28.878  0.00  0.00    -0.004 A 
ATOM     17  C   UNL A   1     -28.469  -0.785  29.829  0.00  0.00    -0.000 A 
ATOM     18  C   UNL A   1     -26.504  -0.778  28.877  0.00  0.00    -0.022 A 
ATOM     19  C   UNL A   1     -27.918  -0.937  31.182  0.00  0.00    -0.000 A 
ATOM     20  C   UNL A   1     -26.542  -0.940  31.261  0.00  0.00    -0.001 A 
ATOM     21  C   UNL A   1     -25.783  -0.893  30.120  0.00  0.00    -0.008 A 
BRANCH  21  22
ATOM     22  C   UNL A   1     -24.445  -0.751  30.123  0.00  0.00    -0.022 C 
ATOM     23  C   UNL A   1     -23.815   0.321  30.825  0.00  0.00    -0.005 C 
ATOM     24  C   UNL A   1     -23.601  -1.839  29.698  0.00  0.00    +0.031 C 
ENDBRANCH  21  22
ENDBRANCH  15  18
ENDBRANCH   1  15
TORSDOF 3
