MODEL 2553
MODEL 1
REMARK VINA RESULT:    -6.807      0.000      0.000
REMARK INTER + INTRA:          -7.546
REMARK INTER:                  -7.205
REMARK INTRA:                  -0.341
REMARK UNBOUND:                -0.341
REMARK  Name = No_2553-gen_results/8p0m/2024-11-27-11-27-31/
REMARK  1 active torsions:
REMARK  status: ('A' for Active; 'I' for Inactive)
REMARK    1  A    between atoms: C_2  and  C_7
REMARK                            x       y       z     vdW  Elec       q    Type
REMARK                         _______ _______ _______ _____ _____    ______ ____
ROOT
ATOM      1  C   UNL A   1     -24.307  -0.412  27.820  0.00  0.00    +0.011 A 
ATOM      2  C   UNL A   1     -23.938  -1.173  28.684  0.00  0.00    +0.001 A 
ATOM      3  C   UNL A   1     -22.665  -1.074  29.234  0.00  0.00    +0.000 A 
ATOM      4  C   UNL A   1     -21.915  -0.032  29.022  0.00  0.00    +0.001 A 
ATOM      5  C   UNL A   1     -22.308   0.886  27.987  0.00  0.00    +0.011 A 
ATOM      6  C   UNL A   1     -23.465   0.670  27.398  0.00  0.00    +0.058 A 
ATOM      7 CL   UNL A   1     -23.879   1.747  26.103  0.00  0.00    -0.082 Cl
ENDROOT
BRANCH   2   8
ATOM      8  C   UNL A   1     -24.712  -2.409  29.099  0.00  0.00    +0.000 A 
ATOM      9  C   UNL A   1     -25.774  -2.591  29.564  0.00  0.00    +0.000 A 
ATOM     10  C   UNL A   1     -23.945  -3.637  28.662  0.00  0.00    +0.000 A 
ATOM     11  C   UNL A   1     -26.455  -3.845  29.820  0.00  0.00    +0.000 A 
ATOM     12  C   UNL A   1     -24.498  -4.915  28.883  0.00  0.00    +0.000 A 
ATOM     13  C   UNL A   1     -25.769  -4.992  29.484  0.00  0.00    +0.000 A 
ENDBRANCH   2   8
TORSDOF 1
ENDMDL
ENDMDL
