MODEL 2554
MODEL 1
REMARK VINA RESULT:    -4.448      0.000      0.000
REMARK INTER + INTRA:          -4.448
REMARK INTER:                  -4.448
REMARK INTRA:                   0.000
REMARK UNBOUND:                 0.000
REMARK  Name = No_2554-gen_results/8p0m/2024-11-27-11-27-31/
REMARK  0 active torsions:
REMARK  status: ('A' for Active; 'I' for Inactive)
REMARK                            x       y       z     vdW  Elec       q    Type
REMARK                         _______ _______ _______ _____ _____    ______ ____
ROOT
ATOM      1  C   UNL A   1     -10.210  -9.753  18.301  0.00  0.00    +0.030 A 
ATOM      2  C   UNL A   1      -9.247 -10.435  18.040  0.00  0.00    +0.140 A 
ATOM      3  C   UNL A   1      -8.133 -10.503  18.812  0.00  0.00    +0.030 A 
ATOM      4  C   UNL A   1      -8.089  -9.733  19.991  0.00  0.00    +0.002 A 
ATOM      5  C   UNL A   1     -10.273  -9.015  19.538  0.00  0.00    +0.002 A 
ATOM      6  C   UNL A   1      -9.168  -9.027  20.335  0.00  0.00    +0.000 A 
ATOM      7  F   UNL A   1      -9.215 -11.203  16.920  0.00  0.00    -0.204 F 
ENDROOT
TORSDOF 0
ENDMDL
ENDMDL
