MODEL 2556
MODEL 1
REMARK VINA RESULT:    -4.720      0.000      0.000
REMARK INTER + INTRA:          -5.388
REMARK INTER:                  -5.271
REMARK INTRA:                  -0.117
REMARK UNBOUND:                -0.117
REMARK  Name = No_2556-gen_results/8p0m/2024-11-27-11-27-31/
REMARK  2 active torsions:
REMARK  status: ('A' for Active; 'I' for Inactive)
REMARK    1  A    between atoms: C_4  and  C_5
REMARK    2  A    between atoms: C_5  and  C_10
REMARK                            x       y       z     vdW  Elec       q    Type
REMARK                         _______ _______ _______ _____ _____    ______ ____
ROOT
ATOM      1  C   UNL A   1     -25.392   0.459  25.106  0.00  0.00    +0.052 C 
ATOM      2  C   UNL A   1     -24.579   0.691  25.970  0.00  0.00    +0.059 A 
ATOM      3  N   UNL A   1     -24.370  -0.093  27.038  0.00  0.00    -0.254 NA
ATOM      4  C   UNL A   1     -23.433   0.084  28.042  0.00  0.00    +0.066 A 
ATOM      5  C   UNL A   1     -23.640   1.802  25.838  0.00  0.00    +0.015 A 
ATOM      6  C   UNL A   1     -22.589   2.071  26.766  0.00  0.00    +0.002 A 
ATOM      7  C   UNL A   1     -22.439   1.135  27.960  0.00  0.00    +0.015 A 
ENDROOT
BRANCH   4   8
ATOM      8  C   UNL A   1     -23.208  -0.863  29.135  0.00  0.00    +0.105 C 
ATOM      9  C   UNL A   1     -23.706  -2.126  29.085  0.00  0.00    +0.015 C 
BRANCH   8  10
ATOM     10  C   UNL A   1     -22.445  -0.445  30.258  0.00  0.00    +0.213 C 
ATOM     11  O   UNL A   1     -22.710  -0.798  31.425  0.00  0.00    -0.288 OA
ENDBRANCH   8  10
ENDBRANCH   4   8
TORSDOF 2
ENDMDL
ENDMDL
