REMARK  Name = No_2556-gen_results/8p0m/2024-11-27-11-27-31/
REMARK  2 active torsions:
REMARK  status: ('A' for Active; 'I' for Inactive)
REMARK    1  A    between atoms: C_4  and  C_5
REMARK    2  A    between atoms: C_5  and  C_10
REMARK                            x       y       z     vdW  Elec       q    Type
REMARK                         _______ _______ _______ _____ _____    ______ ____
ROOT
ATOM      1  C   UNL A   1     -28.016  -0.814  28.878  0.00  0.00    +0.052 C 
ATOM      2  C   UNL A   1     -27.064  -0.119  28.608  0.00  0.00    +0.059 A 
ATOM      3  N   UNL A   1     -25.818  -0.343  29.049  0.00  0.00    -0.254 NA
ATOM      4  C   UNL A   1     -24.676   0.381  28.750  0.00  0.00    +0.066 A 
ATOM      5  C   UNL A   1     -27.181   0.968  27.639  0.00  0.00    +0.015 A 
ATOM      6  C   UNL A   1     -26.079   1.760  27.195  0.00  0.00    +0.002 A 
ATOM      7  C   UNL A   1     -24.701   1.443  27.765  0.00  0.00    +0.015 A 
ENDROOT
BRANCH   4   8
ATOM      8  C   UNL A   1     -23.332   0.023  29.205  0.00  0.00    +0.105 C 
ATOM      9  C   UNL A   1     -23.141  -0.913  30.171  0.00  0.00    +0.015 C 
BRANCH   8  10
ATOM     10  C   UNL A   1     -22.213   0.667  28.610  0.00  0.00    +0.213 C 
ATOM     11  O   UNL A   1     -22.328   1.568  27.755  0.00  0.00    -0.288 OA
ENDBRANCH   8  10
ENDBRANCH   4   8
TORSDOF 2
