MODEL 2557
MODEL 1
REMARK VINA RESULT:    -5.727      0.000      0.000
REMARK INTER + INTRA:          -6.180
REMARK INTER:                  -6.062
REMARK INTRA:                  -0.118
REMARK UNBOUND:                -0.118
REMARK  Name = No_2557-gen_results/8p0m/2024-11-27-11-27-31/
REMARK  1 active torsions:
REMARK  status: ('A' for Active; 'I' for Inactive)
REMARK    1  A    between atoms: C_5  and  C_11
REMARK                            x       y       z     vdW  Elec       q    Type
REMARK                         _______ _______ _______ _____ _____    ______ ____
ROOT
ATOM      1  C   UNL A   1     -22.377   1.294  28.147  0.00  0.00    +0.021 A 
ATOM      2  C   UNL A   1     -23.010   0.275  28.300  0.00  0.00    +0.003 A 
ATOM      3  C   UNL A   1     -24.203   0.026  27.702  0.00  0.00    +0.019 A 
ATOM      4  C   UNL A   1     -24.988  -1.217  27.877  0.00  0.00    -0.001 A 
ATOM      5  C   UNL A   1     -24.424  -2.227  28.723  0.00  0.00    -0.005 A 
ATOM      6  C   UNL A   1     -23.149  -1.960  29.269  0.00  0.00    -0.003 A 
ATOM      7  C   UNL A   1     -22.478  -0.782  29.063  0.00  0.00    -0.000 A 
ATOM      8  C   UNL A   1     -22.427   1.934  26.759  0.00  0.00    +0.099 A 
ATOM      9  N   UNL A   1     -23.645   2.189  26.328  0.00  0.00    -0.242 NA
ATOM     10  C   UNL A   1     -24.507   0.947  26.470  0.00  0.00    +0.099 A 
ENDROOT
BRANCH   5  11
ATOM     11  C   UNL A   1     -25.116  -3.432  29.042  0.00  0.00    +0.114 C 
ATOM     12  N   UNL A   1     -26.100  -3.645  29.617  0.00  0.00    -0.128 NA
ATOM     13  C   UNL A   1     -24.299  -4.715  28.703  0.00  0.00    +0.025 C 
ENDBRANCH   5  11
TORSDOF 1
ENDMDL
ENDMDL
