MODEL 2558
MODEL 1
REMARK VINA RESULT:    -4.306      0.000      0.000
REMARK INTER + INTRA:          -4.306
REMARK INTER:                  -4.306
REMARK INTRA:                   0.000
REMARK UNBOUND:                 0.000
REMARK  Name = No_2558-gen_results/8p0m/2024-11-27-11-27-31/
REMARK  0 active torsions:
REMARK  status: ('A' for Active; 'I' for Inactive)
REMARK                            x       y       z     vdW  Elec       q    Type
REMARK                         _______ _______ _______ _____ _____    ______ ____
ROOT
ATOM      1  C   UNL A   1     -24.920  -5.420  28.975  0.00  0.00    +0.000 A 
ATOM      2  C   UNL A   1     -24.153  -4.755  28.692  0.00  0.00    +0.000 A 
ATOM      3  C   UNL A   1     -26.074  -4.757  29.583  0.00  0.00    +0.000 A 
ATOM      4  C   UNL A   1     -26.135  -3.394  29.739  0.00  0.00    +0.000 A 
ATOM      5  C   UNL A   1     -23.948  -3.308  28.729  0.00  0.00    +0.000 A 
ATOM      6  C   UNL A   1     -25.059  -2.657  29.316  0.00  0.00    +0.000 A 
ENDROOT
TORSDOF 0
ENDMDL
ENDMDL
