MODEL 2559
MODEL 1
REMARK VINA RESULT:    -7.672      0.000      0.000
REMARK INTER + INTRA:         -10.969
REMARK INTER:                  -9.018
REMARK INTRA:                  -1.951
REMARK UNBOUND:                -1.951
REMARK  Name = No_2559-gen_results/8p0m/2024-11-27-11-27-31/
REMARK  3 active torsions:
REMARK  status: ('A' for Active; 'I' for Inactive)
REMARK    1  A    between atoms: C_3  and  C_8
REMARK    2  A    between atoms: C_8  and  C_9
REMARK    3  A    between atoms: C_10  and  C_11
REMARK                            x       y       z     vdW  Elec       q    Type
REMARK                         _______ _______ _______ _____ _____    ______ ____
ROOT
ATOM      1  C   UNL A   1     -23.765  -0.281  28.592  0.00  0.00    -0.022 A 
ATOM      2  C   UNL A   1     -24.636  -1.173  28.319  0.00  0.00    -0.004 A 
ATOM      3  C   UNL A   1     -25.433  -0.913  26.980  0.00  0.00    -0.000 A 
ATOM      4  C   UNL A   1     -25.053   0.255  26.275  0.00  0.00    -0.000 A 
ATOM      5  C   UNL A   1     -23.657   0.939  27.769  0.00  0.00    -0.004 A 
ATOM      6  C   UNL A   1     -24.466   1.293  26.793  0.00  0.00    -0.000 A 
ENDROOT
BRANCH   2   7
ATOM      7  C   UNL A   1     -24.753  -2.423  28.946  0.00  0.00    -0.000 A 
ATOM      8  C   UNL A   1     -25.738  -2.659  29.438  0.00  0.00    -0.000 A 
ATOM      9  C   UNL A   1     -26.337  -3.554  29.684  0.00  0.00    -0.000 A 
ATOM     10  C   UNL A   1     -25.629  -4.866  29.595  0.00  0.00    -0.000 A 
ATOM     11  C   UNL A   1     -24.389  -4.821  28.932  0.00  0.00    -0.000 A 
ATOM     12  C   UNL A   1     -23.987  -3.590  28.431  0.00  0.00    -0.000 A 
ENDBRANCH   2   7
BRANCH   1  13
ATOM     13  C   UNL A   1     -22.846  -0.324  29.647  0.00  0.00    +0.022 C 
ATOM     14  C   UNL A   1     -21.537  -0.687  29.354  0.00  0.00    +0.005 C 
BRANCH  13  17
ATOM     15  C   UNL A   1     -24.686   0.513  31.358  0.00  0.00    +0.008 C 
ATOM     16  C   UNL A   1     -24.783   0.799  32.367  0.00  0.00    +0.065 C 
ATOM     17  C   UNL A   1     -23.423  -0.246  31.016  0.00  0.00    +0.005 C 
ATOM     18  C   UNL A   1     -23.095  -1.346  31.793  0.00  0.00    +0.008 C 
ATOM     19  C   UNL A   1     -24.771  -0.278  33.510  0.00  0.00    +0.151 C 
ATOM     20  C   UNL A   1     -23.532  -1.120  33.314  0.00  0.00    +0.065 C 
ATOM     21  O   UNL A   1     -25.518  -0.524  34.443  0.00  0.00    -0.296 OA
ENDBRANCH  13  17
ENDBRANCH   1  13
TORSDOF 3
ENDMDL
ENDMDL
