MODEL 255
MODEL 1
REMARK VINA RESULT:    -7.628      0.000      0.000
REMARK INTER + INTRA:         -14.789
REMARK INTER:                 -11.641
REMARK INTRA:                  -3.148
REMARK UNBOUND:                -3.148
REMARK  Name = No_255-gen_results/8p0m/2024-11-27-11-27-31/
REMARK  9 active torsions:
REMARK  status: ('A' for Active; 'I' for Inactive)
REMARK    1  A    between atoms: C_3  and  C_4
REMARK    2  A    between atoms: C_6  and  C_29
REMARK    3  A    between atoms: C_8  and  C_19
REMARK    4  A    between atoms: C_11  and  C_12
REMARK    5  A    between atoms: C_19  and  C_20
REMARK    6  A    between atoms: C_20  and  C_22
REMARK    7  A    between atoms: C_22  and  C_23
REMARK    8  A    between atoms: N_30  and  C_32
REMARK    9  A    between atoms: C_32  and  C_33
REMARK                            x       y       z     vdW  Elec       q    Type
REMARK                         _______ _______ _______ _____ _____    ______ ____
ROOT
ATOM      1  C   UNL A   1     -26.236   0.116  28.546  0.00  0.00    -0.015 C 
ATOM      2  C   UNL A   1     -26.620   0.812  29.392  0.00  0.00    -0.025 C 
ATOM      3  C   UNL A   1     -26.167   0.852  30.780  0.00  0.00    -0.008 C 
ATOM      4  C   UNL A   1     -25.471  -0.323  31.214  0.00  0.00    -0.015 C 
ATOM      5  C   UNL A   1     -25.357  -0.873  29.328  0.00  0.00    +0.101 C 
ENDROOT
BRANCH   5   6
ATOM      6  C   UNL A   1     -24.613  -2.033  29.532  0.00  0.00    +0.134 A 
ATOM      7  C   UNL A   1     -23.902  -2.657  28.922  0.00  0.00    +0.034 A 
ATOM      8  C   UNL A   1     -24.021  -4.075  28.886  0.00  0.00    +0.009 A 
ATOM      9  C   UNL A   1     -25.035  -4.672  28.975  0.00  0.00    +0.082 A 
ATOM     10  C   UNL A   1     -26.189  -4.108  29.581  0.00  0.00    +0.346 A 
ATOM     11  O   UNL A   1     -25.735  -2.903  30.052  0.00  0.00    -0.425 OA
ATOM     12  O   UNL A   1     -27.246  -4.567  29.941  0.00  0.00    -0.244 OA
ENDBRANCH   5   6
BRANCH   1  15
ATOM     13  C   UNL A   1     -25.341  -0.296  26.146  0.00  0.00    -0.000 A 
ATOM     14  C   UNL A   1     -25.653  -0.328  25.140  0.00  0.00    +0.000 A 
ATOM     15  C   UNL A   1     -26.399   0.099  27.075  0.00  0.00    -0.003 A 
ATOM     16  C   UNL A   1     -26.905  -0.070  24.442  0.00  0.00    +0.005 A 
ATOM     17  C   UNL A   1     -27.926   0.318  25.284  0.00  0.00    +0.055 A 
ATOM     18  C   UNL A   1     -27.715   0.360  26.612  0.00  0.00    +0.004 A 
BRANCH  17  19
ATOM     19  C   UNL A   1     -29.271   0.633  24.699  0.00  0.00    +0.265 C 
ATOM     20  N   UNL A   1     -29.743   1.784  24.516  0.00  0.00    -0.197 NA
ATOM     21  O   UNL A   1     -29.985  -0.419  24.342  0.00  0.00    -0.268 OA
BRANCH  20  22
ATOM     22  C   UNL A   1     -31.056   2.077  23.878  0.00  0.00    +0.141 C 
BRANCH  22  23
ATOM     23  C   UNL A   1     -30.899   2.675  22.590  0.00  0.00    -0.007 C 
ATOM     24  C   UNL A   1     -31.606   2.299  21.761  0.00  0.00    -0.029 C 
ATOM     25  C   UNL A   1     -32.551   1.121  21.826  0.00  0.00    +0.030 C 
ENDBRANCH  22  23
ENDBRANCH  20  22
ENDBRANCH  17  19
ENDBRANCH   1  15
BRANCH   2  26
ATOM     26  C   UNL A   1     -27.198   2.082  28.944  0.00  0.00    +0.038 C 
BRANCH  26  27
ATOM     27  C   UNL A   1     -26.166   3.303  29.059  0.00  0.00    +0.066 C 
ATOM     28 BR   UNL A   1     -25.984   4.115  30.409  0.00  0.00    -0.081 Br
BRANCH  27  29
ATOM     29  C   UNL A   1     -25.610   3.705  27.780  0.00  0.00    +0.038 C 
BRANCH  29  30
ATOM     30  C   UNL A   1     -24.481   3.153  27.294  0.00  0.00    -0.021 A 
ATOM     31  C   UNL A   1     -24.089   3.340  25.950  0.00  0.00    -0.004 A 
ATOM     32  C   UNL A   1     -23.052   2.476  25.412  0.00  0.00    -0.000 A 
ATOM     33  C   UNL A   1     -22.198   1.800  26.385  0.00  0.00    -0.000 A 
ATOM     34  C   UNL A   1     -22.489   1.758  27.752  0.00  0.00    -0.000 A 
ATOM     35  C   UNL A   1     -23.654   2.329  28.233  0.00  0.00    -0.004 A 
ENDBRANCH  29  30
ENDBRANCH  27  29
ENDBRANCH  26  27
ENDBRANCH   2  26
TORSDOF 9
ENDMDL
ENDMDL
