REMARK  Name = outputs/IAG933/test6/raw/output_256_IAG933_linker_design_.xyz
REMARK  13 active torsions:
REMARK  status: ('A' for Active; 'I' for Inactive)
REMARK    1  A    between atoms: C_1  and  C_2
REMARK    2  A    between atoms: C_1  and  C_8
REMARK    3  A    between atoms: C_1  and  N_29
REMARK    4  A    between atoms: C_13  and  C_38
REMARK    5  A    between atoms: C_14  and  C_15
REMARK    6  A    between atoms: C_21  and  O_22
REMARK    7  A    between atoms: O_22  and  C_23
REMARK    8  A    between atoms: C_23  and  C_24
REMARK    9  A    between atoms: C_28  and  C_30
REMARK   10  A    between atoms: C_28  and  O_34
REMARK   11  A    between atoms: C_33  and  N_41
REMARK   12  A    between atoms: C_35  and  C_37
REMARK   13  A    between atoms: C_39  and  N_41
REMARK                            x       y       z     vdW  Elec       q    Type
REMARK                         _______ _______ _______ _____ _____    ______ ____
ROOT
ATOM      1  N   UNL A   1     -24.559   0.072  29.286  0.00  0.00    -0.312 N 
ATOM      2  C   UNL A   1     -23.465   1.284  28.031  0.00  0.00    +0.105 A 
ATOM      3  C   UNL A   1     -23.291   0.343  28.922  0.00  0.00    +0.148 A 
ATOM      4  C   UNL A   1     -25.646   0.986  28.766  0.00  0.00    +0.065 A 
ATOM      5  C   UNL A   1     -24.998   1.362  27.735  0.00  0.00    +0.008 A 
ENDROOT
BRANCH   5   6
ATOM      6  C   UNL A   1     -25.688   1.614  26.461  0.00  0.00    +0.094 C 
ATOM      7  C   UNL A   1     -26.250   2.920  26.395  0.00  0.00    +0.059 C 
ATOM      8  C   UNL A   1     -27.438   3.091  25.645  0.00  0.00    +0.102 C 
ATOM      9  N   UNL A   1     -28.075   2.089  25.003  0.00  0.00    -0.212 NA
ATOM     10  C   UNL A   1     -27.543   0.849  25.079  0.00  0.00    +0.234 C 
ATOM     11  C   UNL A   1     -26.354   0.576  25.777  0.00  0.00    +0.244 C 
ATOM     12  F   UNL A   1     -25.860  -0.681  25.795  0.00  0.00    -0.227 F 
BRANCH   7  13
ATOM     13  C   UNL A   1     -25.642   4.093  27.123  0.00  0.00    +0.263 C 
ATOM     14  N   UNL A   1     -25.614   5.252  26.449  0.00  0.00    -0.200 NA
ATOM     15  C   UNL A   1     -25.026   6.479  26.963  0.00  0.00    +0.139 C 
ATOM     16  O   UNL A   1     -25.143   3.966  28.243  0.00  0.00    -0.269 OA
ENDBRANCH   7  13
BRANCH  10  17
ATOM     17  O   UNL A   1     -28.193  -0.208  24.477  0.00  0.00    -0.459 OA
BRANCH  17  18
ATOM     18  C   UNL A   1     -29.460   0.005  23.866  0.00  0.00    +0.242 C 
BRANCH  18  19
ATOM     19  C   UNL A   1     -30.065  -1.377  23.573  0.00  0.00    +0.229 C 
ATOM     20  O   UNL A   1     -30.729  -1.878  24.721  0.00  0.00    -0.216 OA
ENDBRANCH  18  19
ENDBRANCH  17  18
ENDBRANCH  10  17
ENDBRANCH   5   6
BRANCH   4  23
ATOM     21  O   UNL A   1     -27.510  -0.158  28.666  0.00  0.00    -0.217 OA
ATOM     22  C   UNL A   1     -27.813   2.008  29.784  0.00  0.00    +0.042 C 
ATOM     23  C   UNL A   1     -26.936   0.951  29.068  0.00  0.00    +0.190 C 
ENDBRANCH   4  23
BRANCH   2  24
ATOM     24  C   UNL A   1     -22.538   2.179  27.631  0.00  0.00    +0.344 C 
ATOM     25  O   UNL A   1     -21.346   2.529  28.211  0.00  0.00    -0.245 OA
BRANCH  24  27
ATOM     26  C   UNL A   1     -23.120   2.328  25.279  0.00  0.00    +0.256 C 
ATOM     27  O   UNL A   1     -22.677   2.897  26.417  0.00  0.00    -0.441 OA
ENDBRANCH  24  27
ENDBRANCH   2  24
BRANCH   1  28
ATOM     28  C   UNL A   1     -24.855  -1.012  30.143  0.00  0.00    +0.125 C 
BRANCH  28  29
ATOM     29  C   UNL A   1     -24.973  -2.505  29.788  0.00  0.00    -0.000 C 
ATOM     30  C   UNL A   1     -23.906  -3.173  29.146  0.00  0.00    -0.002 C 
ATOM     31  C   UNL A   1     -23.989  -4.549  28.853  0.00  0.00    -0.000 C 
ATOM     32  C   UNL A   1     -25.137  -5.280  29.205  0.00  0.00    -0.000 C 
ATOM     33  C   UNL A   1     -26.232  -4.611  29.784  0.00  0.00    -0.000 C 
ATOM     34  C   UNL A   1     -26.155  -3.232  30.065  0.00  0.00    -0.002 C 
ENDBRANCH  28  29
BRANCH  28  35
ATOM     35  C   UNL A   1     -25.387  -0.679  31.571  0.00  0.00    +0.098 C 
ATOM     36  C   UNL A   1     -25.189   0.773  32.028  0.00  0.00    +0.021 C 
ATOM     37  C   UNL A   1     -25.336   0.684  33.544  0.00  0.00    +0.020 C 
ATOM     38  C   UNL A   1     -24.829  -0.715  33.905  0.00  0.00    +0.089 C 
ATOM     39  N   UNL A   1     -24.758  -1.481  32.646  0.00  0.00    -0.217 NA
ENDBRANCH  28  35
ENDBRANCH   1  28
BRANCH   3  40
ATOM     40  N   UNL A   1     -22.168  -0.258  29.392  0.00  0.00    -0.145 NA
BRANCH  40  41
ATOM     41  C   UNL A   1     -21.147  -0.118  28.741  0.00  0.00    +0.038 C 
ATOM     42  C   UNL A   1     -20.498   0.187  27.957  0.00  0.00    +0.009 C 
ENDBRANCH  40  41
ENDBRANCH   3  40
TORSDOF 13
