MODEL 2560
MODEL 1
REMARK VINA RESULT:    -6.779      0.000      0.000
REMARK INTER + INTRA:          -8.020
REMARK INTER:                  -7.571
REMARK INTRA:                  -0.448
REMARK UNBOUND:                -0.448
REMARK  Name = No_2560-gen_results/8p0m/2024-11-27-11-27-31/
REMARK  2 active torsions:
REMARK  status: ('A' for Active; 'I' for Inactive)
REMARK    1  A    between atoms: C_4  and  C_8
REMARK    2  A    between atoms: C_8  and  C_9
REMARK                            x       y       z     vdW  Elec       q    Type
REMARK                         _______ _______ _______ _____ _____    ______ ____
ROOT
ATOM      1  C   UNL A   1     -22.717   1.561  27.167  0.00  0.00    +0.029 A 
ATOM      2  C   UNL A   1     -23.549   1.581  26.520  0.00  0.00    +0.140 A 
ATOM      3  C   UNL A   1     -22.755   0.497  28.241  0.00  0.00    -0.002 A 
ATOM      4  C   UNL A   1     -23.789  -0.463  28.227  0.00  0.00    -0.018 A 
ATOM      5  C   UNL A   1     -24.712   0.699  26.274  0.00  0.00    +0.029 A 
ATOM      6  C   UNL A   1     -24.777  -0.296  27.239  0.00  0.00    -0.002 A 
ATOM      7  F   UNL A   1     -23.432   2.707  25.596  0.00  0.00    -0.204 F 
ENDROOT
BRANCH   4   8
ATOM      8  C   UNL A   1     -23.862  -1.492  29.218  0.00  0.00    +0.053 C 
BRANCH   8   9
ATOM      9  C   UNL A   1     -24.627  -2.601  29.061  0.00  0.00    -0.018 A 
ATOM     10  C   UNL A   1     -25.765  -2.831  29.934  0.00  0.00    -0.004 A 
ATOM     11  C   UNL A   1     -26.507  -4.017  29.764  0.00  0.00    -0.000 A 
ATOM     12  C   UNL A   1     -25.703  -5.097  29.456  0.00  0.00    -0.000 A 
ATOM     13  C   UNL A   1     -24.480  -5.066  28.796  0.00  0.00    -0.000 A 
ATOM     14  C   UNL A   1     -23.892  -3.817  28.760  0.00  0.00    -0.004 A 
ENDBRANCH   8   9
ENDBRANCH   4   8
TORSDOF 2
ENDMDL
ENDMDL
