MODEL 2561
MODEL 1
REMARK VINA RESULT:    -5.713      0.000      0.000
REMARK INTER + INTRA:          -7.362
REMARK INTER:                  -7.049
REMARK INTRA:                  -0.312
REMARK UNBOUND:                -0.312
REMARK  Name = No_2561-gen_results/8p0m/2024-11-27-11-27-31/
REMARK  4 active torsions:
REMARK  status: ('A' for Active; 'I' for Inactive)
REMARK    1  A    between atoms: C_2  and  C_11
REMARK    2  A    between atoms: C_4  and  C_6
REMARK    3  A    between atoms: C_6  and  O_9
REMARK    4  A    between atoms: N_13  and  C_14
REMARK                            x       y       z     vdW  Elec       q    Type
REMARK                         _______ _______ _______ _____ _____    ______ ____
ROOT
ATOM      1  C   UNL A   1     -28.493 -11.984  30.426  0.00  0.00    +0.005 A 
ATOM      2  C   UNL A   1     -29.182 -11.196  30.304  0.00  0.00    +0.055 A 
ATOM      3  C   UNL A   1     -27.815 -12.071  31.728  0.00  0.00    +0.007 A 
ATOM      4  C   UNL A   1     -28.191 -11.211  32.801  0.00  0.00    +0.076 A 
ATOM      5  C   UNL A   1     -29.784 -10.222  31.255  0.00  0.00    +0.005 A 
ATOM      6  C   UNL A   1     -29.191 -10.285  32.506  0.00  0.00    +0.007 A 
ENDROOT
BRANCH   2   7
ATOM      7  C   UNL A   1     -29.736 -11.149  28.790  0.00  0.00    +0.269 C 
ATOM      8  O   UNL A   1     -30.327 -10.290  28.474  0.00  0.00    -0.268 OA
ATOM      9  N   UNL A   1     -29.121 -12.081  27.879  0.00  0.00    -0.174 NA
BRANCH   9  10
ATOM     10  C   UNL A   1     -29.519 -12.013  26.518  0.00  0.00    +0.084 C 
ATOM     11  C   UNL A   1     -30.053 -12.710  25.868  0.00  0.00    -0.008 C 
ATOM     12  C   UNL A   1     -30.400 -12.563  24.479  0.00  0.00    +0.032 C 
ENDBRANCH   9  10
ENDBRANCH   2   7
BRANCH   4  13
ATOM     13  C   UNL A   1     -27.581 -11.245  34.066  0.00  0.00    +0.341 C 
ATOM     14  O   UNL A   1     -27.258 -12.168  34.464  0.00  0.00    -0.245 OA
BRANCH  13  15
ATOM     15  O   UNL A   1     -27.764 -10.147  34.832  0.00  0.00    -0.441 OA
ATOM     16  C   UNL A   1     -26.884  -9.273  35.106  0.00  0.00    +0.256 C 
ENDBRANCH  13  15
ENDBRANCH   4  13
TORSDOF 4
ENDMDL
ENDMDL
