MODEL 2562
MODEL 1
REMARK VINA RESULT:    -6.946      0.000      0.000
REMARK INTER + INTRA:          -9.326
REMARK INTER:                  -8.570
REMARK INTRA:                  -0.756
REMARK UNBOUND:                -0.756
REMARK  Name = No_2562-gen_results/8p0m/2024-11-27-11-27-31/
REMARK  4 active torsions:
REMARK  status: ('A' for Active; 'I' for Inactive)
REMARK    1  A    between atoms: C_3  and  C_7
REMARK    2  A    between atoms: C_6  and  C_14
REMARK    3  A    between atoms: C_14  and  O_16
REMARK    4  A    between atoms: O_16  and  C_17
REMARK                            x       y       z     vdW  Elec       q    Type
REMARK                         _______ _______ _______ _____ _____    ______ ____
ROOT
ATOM      1  C   UNL A   1     -22.573  -1.472  29.047  0.00  0.00    +0.030 A 
ATOM      2  C   UNL A   1     -22.026  -0.581  28.916  0.00  0.00    +0.140 A 
ATOM      3  C   UNL A   1     -24.013  -1.311  28.848  0.00  0.00    +0.002 A 
ATOM      4  C   UNL A   1     -24.478  -0.336  28.434  0.00  0.00    +0.007 A 
ATOM      5  C   UNL A   1     -22.362   0.749  28.444  0.00  0.00    +0.036 A 
ATOM      6  C   UNL A   1     -23.762   0.845  28.215  0.00  0.00    +0.078 A 
ATOM      7  F   UNL A   1     -20.570  -0.618  29.050  0.00  0.00    -0.204 F 
ENDROOT
BRANCH   3   8
ATOM      8  C   UNL A   1     -24.868  -2.582  29.020  0.00  0.00    +0.000 A 
ATOM      9  C   UNL A   1     -24.201  -3.731  28.712  0.00  0.00    +0.000 A 
ATOM     10  C   UNL A   1     -24.697  -4.886  29.069  0.00  0.00    +0.000 A 
ATOM     11  C   UNL A   1     -26.055  -4.935  29.581  0.00  0.00    +0.000 A 
ATOM     12  C   UNL A   1     -26.052  -2.777  29.632  0.00  0.00    +0.000 A 
ATOM     13  C   UNL A   1     -26.667  -3.852  29.892  0.00  0.00    +0.000 A 
ENDBRANCH   3   8
BRANCH   6  14
ATOM     14  C   UNL A   1     -24.364   2.142  27.774  0.00  0.00    +0.341 C 
ATOM     15  O   UNL A   1     -24.456   2.975  28.348  0.00  0.00    -0.245 OA
BRANCH  14  16
ATOM     16  O   UNL A   1     -24.573   2.179  26.359  0.00  0.00    -0.445 OA
BRANCH  16  17
ATOM     17  C   UNL A   1     -23.785   2.972  25.724  0.00  0.00    +0.209 C 
ATOM     18  C   UNL A   1     -22.695   2.434  25.110  0.00  0.00    +0.051 C 
ENDBRANCH  16  17
ENDBRANCH  14  16
ENDBRANCH   6  14
TORSDOF 4
ENDMDL
ENDMDL
