REMARK  Name = No_2562-gen_results/8p0m/2024-11-27-11-27-31/
REMARK  4 active torsions:
REMARK  status: ('A' for Active; 'I' for Inactive)
REMARK    1  A    between atoms: C_3  and  C_7
REMARK    2  A    between atoms: C_6  and  C_14
REMARK    3  A    between atoms: C_14  and  O_16
REMARK    4  A    between atoms: O_16  and  C_17
REMARK                            x       y       z     vdW  Elec       q    Type
REMARK                         _______ _______ _______ _____ _____    ______ ____
ROOT
ATOM      1  C   UNL A   1     -28.016  -0.814  28.878  0.00  0.00    +0.030 A 
ATOM      2  C   UNL A   1     -28.469  -0.785  29.829  0.00  0.00    +0.140 A 
ATOM      3  C   UNL A   1     -27.087   0.290  28.638  0.00  0.00    +0.002 A 
ATOM      4  C   UNL A   1     -26.768   1.027  29.472  0.00  0.00    +0.007 A 
ATOM      5  C   UNL A   1     -28.276   0.027  31.015  0.00  0.00    +0.036 A 
ATOM      6  C   UNL A   1     -27.329   1.054  30.753  0.00  0.00    +0.078 A 
ATOM      7  F   UNL A   1     -29.391  -1.857  30.205  0.00  0.00    -0.204 F 
ENDROOT
BRANCH   3   8
ATOM      8  C   UNL A   1     -26.386   0.301  27.266  0.00  0.00    +0.000 A 
ATOM      9  C   UNL A   1     -26.005   1.546  26.860  0.00  0.00    +0.000 A 
ATOM     10  C   UNL A   1     -25.167   1.678  25.866  0.00  0.00    +0.000 A 
ATOM     11  C   UNL A   1     -24.838   0.509  25.070  0.00  0.00    +0.000 A 
ATOM     12  C   UNL A   1     -25.880  -0.702  26.521  0.00  0.00    +0.000 A 
ATOM     13  C   UNL A   1     -25.177  -0.661  25.470  0.00  0.00    +0.000 A 
ENDBRANCH   3   8
BRANCH   6  14
ATOM     14  C   UNL A   1     -26.999   2.060  31.810  0.00  0.00    +0.341 C 
ATOM     15  O   UNL A   1     -26.209   2.698  31.790  0.00  0.00    -0.245 OA
BRANCH  14  16
ATOM     16  O   UNL A   1     -28.066   2.216  32.751  0.00  0.00    -0.445 OA
BRANCH  16  17
ATOM     17  C   UNL A   1     -27.782   2.959  33.761  0.00  0.00    +0.209 C 
ATOM     18  C   UNL A   1     -27.176   4.155  33.525  0.00  0.00    +0.051 C 
ENDBRANCH  16  17
ENDBRANCH  14  16
ENDBRANCH   6  14
TORSDOF 4
