MODEL 2563
MODEL 1
REMARK VINA RESULT:    -6.653      0.000      0.000
REMARK INTER + INTRA:          -7.675
REMARK INTER:                  -7.819
REMARK INTRA:                   0.144
REMARK UNBOUND:                 0.144
REMARK  Name = No_2563-gen_results/8p0m/2024-11-27-11-27-31/
REMARK  4 active torsions:
REMARK  status: ('A' for Active; 'I' for Inactive)
REMARK    1  A    between atoms: C_2  and  C_15
REMARK    2  A    between atoms: C_11  and  C_12
REMARK    3  A    between atoms: C_15  and  N_16
REMARK    4  A    between atoms: C_15  and  C_17
REMARK                            x       y       z     vdW  Elec       q    Type
REMARK                         _______ _______ _______ _____ _____    ______ ____
ROOT
ATOM      1  C   UNL A   1     -24.249  -0.393  27.787  0.00  0.00    -0.020 A 
ATOM      2  C   UNL A   1     -24.673  -0.656  28.716  0.00  0.00    -0.009 A 
ATOM      3  C   UNL A   1     -25.133   0.222  26.839  0.00  0.00    -0.026 A 
ATOM      4  C   UNL A   1     -26.453   0.317  27.028  0.00  0.00    -0.005 A 
ATOM      5  C   UNL A   1     -26.069  -0.661  29.129  0.00  0.00    -0.003 A 
ATOM      6  C   UNL A   1     -26.903  -0.116  28.254  0.00  0.00    -0.001 A 
ATOM      7  C   UNL A   1     -24.522   0.713  25.520  0.00  0.00    +0.031 C 
ATOM      8  C   UNL A   1     -23.501   1.743  25.583  0.00  0.00    +0.030 C 
ATOM      9  C   UNL A   1     -22.910   2.107  26.759  0.00  0.00    -0.030 C 
ATOM     10  C   UNL A   1     -22.936   1.907  27.744  0.00  0.00    -0.021 C 
ATOM     11  C   UNL A   1     -23.199   0.445  28.215  0.00  0.00    +0.110 C 
ENDROOT
BRANCH  11  12
ATOM     12  C   UNL A   1     -22.139  -0.198  29.088  0.00  0.00    +0.326 C 
ATOM     13  F   UNL A   1     -21.374  -0.958  28.560  0.00  0.00    -0.198 F 
ATOM     14  F   UNL A   1     -22.003   0.313  30.205  0.00  0.00    -0.198 F 
ENDBRANCH  11  12
BRANCH   2  15
ATOM     15  C   UNL A   1     -24.191  -1.877  29.583  0.00  0.00    +0.111 C 
BRANCH  15  16
ATOM     16  N   UNL A   1     -24.100  -3.079  29.034  0.00  0.00    -0.212 NA
ATOM     17  C   UNL A   1     -24.048  -4.316  28.554  0.00  0.00    +0.108 C 
ENDBRANCH  15  16
BRANCH  15  18
ATOM     18  C   UNL A   1     -24.254  -1.781  31.038  0.00  0.00    +0.117 C 
ATOM     19 CL   UNL A   1     -24.920  -2.398  30.244  0.00  0.00    -0.112 Cl
ENDBRANCH  15  18
ENDBRANCH   2  15
TORSDOF 4
ENDMDL
ENDMDL
