REMARK  Name = No_2563-gen_results/8p0m/2024-11-27-11-27-31/
REMARK  4 active torsions:
REMARK  status: ('A' for Active; 'I' for Inactive)
REMARK    1  A    between atoms: C_2  and  C_15
REMARK    2  A    between atoms: C_11  and  C_12
REMARK    3  A    between atoms: C_15  and  N_16
REMARK    4  A    between atoms: C_15  and  C_17
REMARK                            x       y       z     vdW  Elec       q    Type
REMARK                         _______ _______ _______ _____ _____    ______ ____
ROOT
ATOM      1  C   UNL A   1     -28.016  -0.814  28.878  0.00  0.00    -0.020 A 
ATOM      2  C   UNL A   1     -28.469  -0.785  29.829  0.00  0.00    -0.009 A 
ATOM      3  C   UNL A   1     -28.196   0.348  28.055  0.00  0.00    -0.026 A 
ATOM      4  C   UNL A   1     -29.019   1.350  28.378  0.00  0.00    -0.005 A 
ATOM      5  C   UNL A   1     -29.411   0.180  30.378  0.00  0.00    -0.003 A 
ATOM      6  C   UNL A   1     -29.606   1.250  29.619  0.00  0.00    -0.001 A 
ATOM      7  C   UNL A   1     -27.460   0.380  26.709  0.00  0.00    +0.031 C 
ATOM      8  C   UNL A   1     -26.009   0.332  26.724  0.00  0.00    +0.030 C 
ATOM      9  C   UNL A   1     -25.305   0.024  27.853  0.00  0.00    -0.030 C 
ATOM     10  C   UNL A   1     -25.440  -0.199  28.824  0.00  0.00    -0.021 C 
ATOM     11  C   UNL A   1     -26.675  -1.052  29.243  0.00  0.00    +0.110 C 
ENDROOT
BRANCH  11  12
ATOM     12  C   UNL A   1     -26.398  -2.352  29.972  0.00  0.00    +0.326 C 
ATOM     13  F   UNL A   1     -27.160  -2.671  30.844  0.00  0.00    -0.198 F 
ATOM     14  F   UNL A   1     -25.562  -3.085  29.432  0.00  0.00    -0.198 F 
ENDBRANCH  11  12
BRANCH   2  15
ATOM     15  C   UNL A   1     -29.009  -2.058  30.580  0.00  0.00    +0.111 C 
BRANCH  15  16
ATOM     16  N   UNL A   1     -29.561  -3.044  29.890  0.00  0.00    -0.212 NA
ATOM     17  C   UNL A   1     -30.140  -4.067  29.273  0.00  0.00    +0.108 C 
ENDBRANCH  15  16
BRANCH  15  18
ATOM     18  C   UNL A   1     -29.284  -1.972  32.011  0.00  0.00    +0.117 C 
ATOM     19 CL   UNL A   1     -29.866  -2.528  31.113  0.00  0.00    -0.112 Cl
ENDBRANCH  15  18
ENDBRANCH   2  15
TORSDOF 4
