REMARK  Name = No_2564-gen_results/8p0m/2024-11-27-11-27-31/
REMARK  9 active torsions:
REMARK  status: ('A' for Active; 'I' for Inactive)
REMARK    1  A    between atoms: C_2  and  C_11
REMARK    2  A    between atoms: C_3  and  C_7
REMARK    3  A    between atoms: C_6  and  C_14
REMARK    4  A    between atoms: C_16  and  C_20
REMARK    5  A    between atoms: C_18  and  C_23
REMARK    6  A    between atoms: C_20  and  O_22
REMARK    7  A    between atoms: O_22  and  C_31
REMARK    8  A    between atoms: C_31  and  C_32
REMARK    9  A    between atoms: C_33  and  C_34
REMARK                            x       y       z     vdW  Elec       q    Type
REMARK                         _______ _______ _______ _____ _____    ______ ____
ROOT
ATOM      1  C   UNL A   1     -27.276   2.167  31.856  0.00  0.00    +0.000 A 
ATOM      2  C   UNL A   1     -26.436   2.968  31.795  0.00  0.00    +0.006 A 
ATOM      3  C   UNL A   1     -26.140   4.046  32.817  0.00  0.00    +0.076 A 
ATOM      4  C   UNL A   1     -26.922   3.970  33.965  0.00  0.00    +0.006 A 
ATOM      5  C   UNL A   1     -27.882   2.991  34.049  0.00  0.00    +0.000 A 
ATOM      6  C   UNL A   1     -28.094   2.073  33.068  0.00  0.00    +0.000 A 
ENDROOT
BRANCH   5   7
ATOM      7  C   UNL A   1     -28.677   2.930  35.339  0.00  0.00    +0.002 A 
ATOM      8  C   UNL A   1     -29.501   2.075  35.544  0.00  0.00    +0.011 A 
ATOM      9  C   UNL A   1     -30.359   2.036  36.714  0.00  0.00    +0.059 A 
ATOM     10  C   UNL A   1     -30.130   3.042  37.675  0.00  0.00    +0.023 A 
ATOM     11  C   UNL A   1     -29.173   3.993  37.498  0.00  0.00    +0.059 A 
ATOM     12  C   UNL A   1     -28.414   4.016  36.352  0.00  0.00    +0.011 A 
ATOM     13 CL   UNL A   1     -28.885   5.199  38.683  0.00  0.00    -0.082 Cl
ATOM     14 CL   UNL A   1     -31.490   0.841  36.903  0.00  0.00    -0.082 Cl
ENDBRANCH   5   7
BRANCH   1  20
ATOM     15  C   UNL A   1     -28.016  -0.814  28.878  0.00  0.00    +0.010 A 
ATOM     16  C   UNL A   1     -28.469  -0.785  29.829  0.00  0.00    +0.080 A 
ATOM     17  C   UNL A   1     -27.087   0.290  28.638  0.00  0.00    +0.072 A 
ATOM     18  C   UNL A   1     -26.832   1.249  29.587  0.00  0.00    +0.004 A 
ATOM     19  C   UNL A   1     -28.391   0.080  31.006  0.00  0.00    +0.007 A 
ATOM     20  C   UNL A   1     -27.494   1.152  30.784  0.00  0.00    +0.000 A 
BRANCH  17  21
ATOM     21  C   UNL A   1     -26.317   0.399  27.365  0.00  0.00    +0.419 C 
ATOM     22  F   UNL A   1     -25.845   1.547  27.381  0.00  0.00    -0.166 F 
ATOM     23  F   UNL A   1     -27.189   0.336  26.337  0.00  0.00    -0.166 F 
ATOM     24  F   UNL A   1     -25.365  -0.530  27.290  0.00  0.00    -0.166 F 
ENDBRANCH  17  21
BRANCH  16  25
ATOM     25  C   UNL A   1     -29.451  -2.014  30.242  0.00  0.00    +0.388 C 
ATOM     26  O   UNL A   1     -30.503  -1.918  29.882  0.00  0.00    -0.241 OA
ATOM     27  O   UNL A   1     -28.969  -3.040  30.903  0.00  0.00    -0.241 OA
ENDBRANCH  16  25
ENDBRANCH   1  20
BRANCH   3  28
ATOM     28  C   UNL A   1     -25.074   5.029  32.621  0.00  0.00    +0.342 C 
ATOM     29  O   UNL A   1     -24.667   5.235  31.623  0.00  0.00    -0.245 OA
BRANCH  28  30
ATOM     30  O   UNL A   1     -24.523   5.472  33.803  0.00  0.00    -0.440 OA
BRANCH  30  31
ATOM     31  C   UNL A   1     -24.478   6.922  33.907  0.00  0.00    +0.235 C 
BRANCH  31  32
ATOM     32  C   UNL A   1     -25.499   7.569  34.053  0.00  0.00    +0.021 C 
ATOM     33  C   UNL A   1     -26.473   7.141  34.798  0.00  0.00    -0.001 C 
BRANCH  33  34
ATOM     34  C   UNL A   1     -27.713   7.888  35.133  0.00  0.00    -0.000 C 
ATOM     35  C   UNL A   1     -27.946   8.929  34.390  0.00  0.00    -0.000 C 
ENDBRANCH  33  34
ENDBRANCH  31  32
ENDBRANCH  30  31
ENDBRANCH  28  30
ENDBRANCH   3  28
TORSDOF 9
