MODEL 2566
MODEL 1
REMARK VINA RESULT:    -7.448      0.000      0.000
REMARK INTER + INTRA:          -8.949
REMARK INTER:                  -8.319
REMARK INTRA:                  -0.630
REMARK UNBOUND:                -0.630
REMARK  Name = No_2566-gen_results/8p0m/2024-11-27-11-27-31/
REMARK  2 active torsions:
REMARK  status: ('A' for Active; 'I' for Inactive)
REMARK    1  A    between atoms: C_7  and  C_15
REMARK    2  A    between atoms: C_8  and  C_21
REMARK                            x       y       z     vdW  Elec       q    Type
REMARK                         _______ _______ _______ _____ _____    ______ ____
ROOT
ATOM      1  C   UNL A   1     -11.901   1.404  36.704  0.00  0.00    +0.007 A 
ATOM      2  C   UNL A   1     -10.797   1.039  36.372  0.00  0.00    +0.000 A 
ATOM      3  C   UNL A   1      -9.972   1.854  35.604  0.00  0.00    +0.000 A 
ATOM      4  C   UNL A   1      -8.602   1.516  35.124  0.00  0.00    +0.003 A 
ATOM      5  C   UNL A   1      -8.041   0.309  35.637  0.00  0.00    +0.019 A 
ATOM      6  C   UNL A   1      -8.873  -0.473  36.463  0.00  0.00    +0.002 A 
ATOM      7  C   UNL A   1     -10.122  -0.139  36.818  0.00  0.00    +0.000 A 
ATOM      8  C   UNL A   1     -12.651   2.412  35.884  0.00  0.00    +0.080 A 
ATOM      9  C   UNL A   1     -11.829   3.349  35.159  0.00  0.00    +0.007 A 
ATOM     10  C   UNL A   1     -10.496   3.031  34.907  0.00  0.00    +0.000 A 
ATOM     11  C   UNL A   1      -6.660  -0.044  35.269  0.00  0.00    +0.099 A 
ATOM     12  N   UNL A   1      -5.906   0.833  34.624  0.00  0.00    -0.242 NA
ATOM     13  C   UNL A   1      -6.415   1.998  34.153  0.00  0.00    +0.099 A 
ATOM     14  C   UNL A   1      -7.731   2.415  34.449  0.00  0.00    +0.021 A 
ENDROOT
BRANCH   7  15
ATOM     15  C   UNL A   1     -10.876  -1.023  37.756  0.00  0.00    +0.000 A 
ATOM     16  C   UNL A   1     -11.489  -1.848  37.597  0.00  0.00    +0.000 A 
ATOM     17  C   UNL A   1     -12.155  -2.712  38.551  0.00  0.00    +0.000 A 
ATOM     18  C   UNL A   1     -10.614  -0.582  39.194  0.00  0.00    +0.000 A 
ATOM     19  C   UNL A   1     -11.268  -1.273  40.210  0.00  0.00    +0.000 A 
ATOM     20  C   UNL A   1     -12.073  -2.323  39.872  0.00  0.00    +0.000 A 
ENDBRANCH   7  15
BRANCH   8  21
ATOM     21  C   UNL A   1     -14.031   2.736  36.220  0.00  0.00    +0.388 C 
ATOM     22  O   UNL A   1     -14.741   3.219  35.508  0.00  0.00    -0.241 OA
ATOM     23  O   UNL A   1     -14.372   2.595  37.452  0.00  0.00    -0.241 OA
ENDBRANCH   8  21
TORSDOF 2
ENDMDL
ENDMDL
