REMARK  Name = outputs/IAG933/test6/raw/output_2567_IAG933_linker_design_.xyz
REMARK  8 active torsions:
REMARK  status: ('A' for Active; 'I' for Inactive)
REMARK    1  A    between atoms: C_1  and  C_2
REMARK    2  A    between atoms: C_1  and  C_8
REMARK    3  A    between atoms: C_1  and  N_35
REMARK    4  A    between atoms: C_13  and  C_28
REMARK    5  A    between atoms: C_14  and  C_15
REMARK    6  A    between atoms: C_21  and  O_22
REMARK    7  A    between atoms: O_22  and  C_23
REMARK    8  A    between atoms: C_23  and  C_24
REMARK                            x       y       z     vdW  Elec       q    Type
REMARK                         _______ _______ _______ _____ _____    ______ ____
ROOT
ATOM      1  C   UNL A   1     -24.324   1.504  26.680  0.00  0.00    +0.096 C 
ATOM      2  C   UNL A   1     -23.260   1.897  25.820  0.00  0.00    +0.275 C 
ATOM      3  C   UNL A   1     -21.938   1.587  26.274  0.00  0.00    +0.136 C 
ATOM      4  F   UNL A   1     -23.406   1.280  24.575  0.00  0.00    -0.203 F 
ATOM      5  O   UNL A   1     -22.543   0.743  30.938  0.00  0.00    -0.195 OA
ATOM      6  O   UNL A   1     -20.551   0.734  27.822  0.00  0.00    -0.291 OA
ATOM      7  C   UNL A   1     -25.091   0.481  28.726  0.00  0.00    +0.247 C 
ATOM      8  N   UNL A   1     -24.093  -0.239  29.619  0.00  0.00    -0.245 N 
ATOM      9  C   UNL A   1     -22.844   0.695  28.400  0.00  0.00    +0.062 C 
ATOM     10  O   UNL A   1     -26.321   0.292  28.629  0.00  0.00    -0.270 OA
ATOM     11  F   UNL A   1     -23.421   3.172  25.412  0.00  0.00    -0.203 F 
ATOM     12  C   UNL A   1     -24.079   0.840  27.915  0.00  0.00    +0.040 C 
ATOM     13  C   UNL A   1     -21.759   0.985  27.525  0.00  0.00    +0.178 C 
ATOM     14  C   UNL A   1     -22.811   0.135  29.690  0.00  0.00    +0.256 C 
ENDROOT
BRANCH   1  15
ATOM     15  C   UNL A   1     -25.688   1.614  26.461  0.00  0.00    +0.080 C 
ATOM     16  C   UNL A   1     -26.250   2.920  26.395  0.00  0.00    +0.055 C 
ATOM     17  C   UNL A   1     -27.438   3.091  25.645  0.00  0.00    +0.102 C 
ATOM     18  N   UNL A   1     -28.075   2.089  25.003  0.00  0.00    -0.212 NA
ATOM     19  C   UNL A   1     -27.543   0.849  25.079  0.00  0.00    +0.234 C 
ATOM     20  C   UNL A   1     -26.354   0.576  25.777  0.00  0.00    +0.240 C 
ATOM     21  F   UNL A   1     -25.860  -0.681  25.795  0.00  0.00    -0.227 F 
BRANCH  16  22
ATOM     22  C   UNL A   1     -25.642   4.093  27.123  0.00  0.00    +0.263 C 
ATOM     23  N   UNL A   1     -25.614   5.252  26.449  0.00  0.00    -0.200 NA
ATOM     24  C   UNL A   1     -25.026   6.479  26.963  0.00  0.00    +0.139 C 
ATOM     25  O   UNL A   1     -25.143   3.966  28.243  0.00  0.00    -0.269 OA
ENDBRANCH  16  22
BRANCH  19  26
ATOM     26  O   UNL A   1     -28.193  -0.208  24.477  0.00  0.00    -0.459 OA
BRANCH  26  27
ATOM     27  C   UNL A   1     -29.460   0.005  23.866  0.00  0.00    +0.242 C 
BRANCH  27  28
ATOM     28  C   UNL A   1     -30.065  -1.377  23.573  0.00  0.00    +0.229 C 
ATOM     29  O   UNL A   1     -30.729  -1.878  24.721  0.00  0.00    -0.216 OA
ENDBRANCH  27  28
ENDBRANCH  26  27
ENDBRANCH  19  26
ENDBRANCH   1  15
BRANCH   8  30
ATOM     30  C   UNL A   1     -24.855  -1.012  30.143  0.00  0.00    +0.117 C 
BRANCH  30  31
ATOM     31  C   UNL A   1     -24.973  -2.505  29.788  0.00  0.00    -0.003 C 
ATOM     32  C   UNL A   1     -23.906  -3.173  29.146  0.00  0.00    -0.003 C 
ATOM     33  C   UNL A   1     -23.989  -4.549  28.853  0.00  0.00    -0.000 C 
ATOM     34  C   UNL A   1     -25.137  -5.280  29.205  0.00  0.00    -0.000 C 
ATOM     35  C   UNL A   1     -26.232  -4.611  29.784  0.00  0.00    -0.000 C 
ATOM     36  C   UNL A   1     -26.155  -3.232  30.065  0.00  0.00    -0.003 C 
ENDBRANCH  30  31
BRANCH  30  37
ATOM     37  C   UNL A   1     -25.387  -0.679  31.571  0.00  0.00    +0.095 C 
ATOM     38  C   UNL A   1     -25.189   0.773  32.028  0.00  0.00    +0.021 C 
ATOM     39  C   UNL A   1     -25.336   0.684  33.544  0.00  0.00    +0.020 C 
ATOM     40  C   UNL A   1     -24.829  -0.715  33.905  0.00  0.00    +0.089 C 
ATOM     41  N   UNL A   1     -24.758  -1.481  32.646  0.00  0.00    -0.217 NA
ENDBRANCH  30  37
ENDBRANCH   8  30
TORSDOF 8
