MODEL 256
MODEL 1
REMARK VINA RESULT:    -7.001      0.000      0.000
REMARK INTER + INTRA:         -11.962
REMARK INTER:                 -10.275
REMARK INTRA:                  -1.687
REMARK UNBOUND:                -1.687
REMARK  Name = No_256-gen_results/8p0m/2024-11-27-11-27-31/
REMARK  8 active torsions:
REMARK  status: ('A' for Active; 'I' for Inactive)
REMARK    1  A    between atoms: C_1  and  C_2
REMARK    2  A    between atoms: C_1  and  C_8
REMARK    3  A    between atoms: C_5  and  C_15
REMARK    4  A    between atoms: C_8  and  C_9
REMARK    5  A    between atoms: C_10  and  O_18
REMARK    6  A    between atoms: O_18  and  C_19
REMARK    7  A    between atoms: C_19  and  C_20
REMARK    8  A    between atoms: C_20  and  C_21
REMARK                            x       y       z     vdW  Elec       q    Type
REMARK                         _______ _______ _______ _____ _____    ______ ____
ROOT
ATOM      1  C   UNL A   1     -22.544  -0.228  28.967  0.00  0.00    +0.012 A 
ATOM      2  C   UNL A   1     -23.333   0.718  28.409  0.00  0.00    +0.135 A 
ATOM      3  C   UNL A   1     -22.707   1.703  27.633  0.00  0.00    +0.037 A 
ATOM      4  C   UNL A   1     -21.370   1.642  27.388  0.00  0.00    +0.003 A 
ATOM      5  C   UNL A   1     -20.607   0.687  27.998  0.00  0.00    -0.000 A 
ATOM      6  C   UNL A   1     -21.206  -0.304  28.808  0.00  0.00    -0.001 A 
ENDROOT
BRANCH   1   7
ATOM      7  C   UNL A   1     -23.197  -1.260  29.683  0.00  0.00    +0.034 C 
BRANCH   7   8
ATOM      8  C   UNL A   1     -23.641  -2.580  29.011  0.00  0.00    +0.031 C 
BRANCH   8   9
ATOM      9  C   UNL A   1     -24.723  -3.041  29.293  0.00  0.00    -0.022 A 
ATOM     10  C   UNL A   1     -25.017  -4.366  29.252  0.00  0.00    -0.004 A 
ATOM     11  C   UNL A   1     -26.334  -4.946  29.595  0.00  0.00    +0.004 A 
ATOM     12  C   UNL A   1     -27.354  -4.033  30.021  0.00  0.00    +0.057 A 
ATOM     13  C   UNL A   1     -26.987  -2.672  30.120  0.00  0.00    +0.004 A 
ATOM     14  C   UNL A   1     -25.743  -2.205  29.784  0.00  0.00    -0.004 A 
BRANCH  12  15
ATOM     15  C   UNL A   1     -28.672  -4.469  30.392  0.00  0.00    +0.284 C 
ATOM     16  N   UNL A   1     -29.656  -4.767  29.827  0.00  0.00    -0.084 NA
ATOM     17  O   UNL A   1     -28.697  -4.726  31.766  0.00  0.00    -0.267 OA
ENDBRANCH  12  15
ENDBRANCH   8   9
ENDBRANCH   7   8
ENDBRANCH   1   7
BRANCH   2  18
ATOM     18  O   UNL A   1     -24.670   0.715  28.509  0.00  0.00    -0.475 OA
BRANCH  18  19
ATOM     19  C   UNL A   1     -25.593   0.961  27.458  0.00  0.00    +0.214 C 
BRANCH  19  20
ATOM     20  C   UNL A   1     -25.503  -0.287  26.569  0.00  0.00    +0.150 C 
BRANCH  20  21
ATOM     21  C   UNL A   1     -25.386   0.270  25.218  0.00  0.00    +0.401 C 
ATOM     22  F   UNL A   1     -24.316   0.165  24.593  0.00  0.00    -0.170 F 
ATOM     23  F   UNL A   1     -25.691   1.640  25.181  0.00  0.00    -0.170 F 
ATOM     24  F   UNL A   1     -26.401  -0.162  24.403  0.00  0.00    -0.170 F 
ENDBRANCH  20  21
ENDBRANCH  19  20
ENDBRANCH  18  19
ENDBRANCH   2  18
TORSDOF 8
ENDMDL
ENDMDL
