MODEL 2570
MODEL 1
REMARK VINA RESULT:    -7.353      0.000      0.000
REMARK INTER + INTRA:         -12.545
REMARK INTER:                 -11.221
REMARK INTRA:                  -1.324
REMARK UNBOUND:                -1.324
REMARK  Name = No_2570-gen_results/8p0m/2024-11-27-11-27-31/
REMARK  9 active torsions:
REMARK  status: ('A' for Active; 'I' for Inactive)
REMARK    1  A    between atoms: C_2  and  C_7
REMARK    2  A    between atoms: C_4  and  O_27
REMARK    3  A    between atoms: C_7  and  C_8
REMARK    4  A    between atoms: C_7  and  C_20
REMARK    5  A    between atoms: C_9  and  C_10
REMARK    6  A    between atoms: O_27  and  C_28
REMARK    7  A    between atoms: C_28  and  C_29
REMARK    8  A    between atoms: C_30  and  C_31
REMARK    9  A    between atoms: C_32  and  C_33
REMARK                            x       y       z     vdW  Elec       q    Type
REMARK                         _______ _______ _______ _____ _____    ______ ____
ROOT
ATOM      1  C   UNL A   1     -25.885  -0.782  29.752  0.00  0.00    +0.064 C 
ENDROOT
BRANCH   1   3
ATOM      2  C   UNL A   1     -24.240   0.334  28.626  0.00  0.00    +0.008 A 
ATOM      3  C   UNL A   1     -25.346  -0.133  28.478  0.00  0.00    -0.011 A 
ATOM      4  C   UNL A   1     -26.048  -0.194  27.383  0.00  0.00    +0.033 A 
ATOM      5  C   UNL A   1     -25.485   0.358  26.193  0.00  0.00    +0.140 A 
ATOM      6  C   UNL A   1     -23.556   0.809  27.438  0.00  0.00    +0.060 A 
ATOM      7  C   UNL A   1     -24.212   0.800  26.277  0.00  0.00    +0.048 A 
ATOM      8 CL   UNL A   1     -21.953   1.445  27.544  0.00  0.00    -0.082 Cl
BRANCH   5   9
ATOM      9  O   UNL A   1     -26.167   0.324  24.984  0.00  0.00    -0.471 OA
BRANCH   9  10
ATOM     10  C   UNL A   1     -27.090   0.910  24.505  0.00  0.00    +0.232 C 
BRANCH  10  11
ATOM     11  C   UNL A   1     -28.239   0.327  24.043  0.00  0.00    +0.021 C 
ATOM     12  C   UNL A   1     -29.212   0.932  23.874  0.00  0.00    -0.001 C 
BRANCH  12  13
ATOM     13  C   UNL A   1     -30.490   0.266  23.477  0.00  0.00    -0.000 C 
ATOM     14  C   UNL A   1     -31.476   0.911  22.756  0.00  0.00    -0.000 C 
BRANCH  14  15
ATOM     15  C   UNL A   1     -31.291   2.248  22.423  0.00  0.00    -0.000 C 
ATOM     16  C   UNL A   1     -31.657   2.739  21.197  0.00  0.00    -0.000 C 
ENDBRANCH  14  15
ENDBRANCH  12  13
ENDBRANCH  10  11
ENDBRANCH   9  10
ENDBRANCH   5   9
ENDBRANCH   1   3
BRANCH   1  17
ATOM     17  C   UNL A   1     -25.617  -2.302  29.525  0.00  0.00    -0.015 A 
ATOM     18  C   UNL A   1     -24.852  -2.972  29.144  0.00  0.00    -0.008 A 
ATOM     19  C   UNL A   1     -24.995  -4.496  28.961  0.00  0.00    -0.022 A 
ATOM     20  C   UNL A   1     -26.835  -3.015  30.075  0.00  0.00    -0.004 A 
ATOM     21  C   UNL A   1     -23.906  -5.240  28.375  0.00  0.00    +0.031 C 
ATOM     22  C   UNL A   1     -26.183  -4.882  29.508  0.00  0.00    -0.004 A 
ATOM     23  C   UNL A   1     -27.077  -4.158  30.061  0.00  0.00    -0.001 A 
ENDBRANCH   1  17
BRANCH   1  24
ATOM     24  C   UNL A   1     -25.158  -0.278  31.043  0.00  0.00    -0.020 C 
ATOM     25  C   UNL A   1     -25.532   0.473  31.685  0.00  0.00    +0.007 C 
ATOM     26  C   UNL A   1     -25.013   0.341  33.135  0.00  0.00    +0.116 C 
ATOM     27  C   UNL A   1     -24.178  -1.360  31.461  0.00  0.00    +0.112 C 
ATOM     28  N   UNL A   1     -24.162  -0.672  33.247  0.00  0.00    -0.209 NA
BRANCH  25  29
ATOM     29  C   UNL A   1     -26.842   1.154  31.558  0.00  0.00    +0.078 A 
ATOM     30  C   UNL A   1     -27.366   1.651  32.888  0.00  0.00    +0.019 A 
ATOM     31  C   UNL A   1     -27.795   2.804  32.930  0.00  0.00    +0.003 A 
ATOM     32  C   UNL A   1     -26.985   3.742  32.292  0.00  0.00    +0.021 A 
ATOM     33  C   UNL A   1     -25.745   3.595  31.655  0.00  0.00    +0.099 A 
ATOM     34  N   UNL A   1     -26.141   2.413  31.078  0.00  0.00    -0.244 NA
ENDBRANCH  25  29
ENDBRANCH   1  24
TORSDOF 9
ENDMDL
ENDMDL
