MODEL 2571
MODEL 1
REMARK VINA RESULT:    -8.526      0.000      0.000
REMARK INTER + INTRA:          -9.636
REMARK INTER:                  -9.025
REMARK INTRA:                  -0.612
REMARK UNBOUND:                -0.612
REMARK  Name = No_2571-gen_results/8p0m/2024-11-27-11-27-31/
REMARK  1 active torsions:
REMARK  status: ('A' for Active; 'I' for Inactive)
REMARK    1  A    between atoms: C_3  and  C_7
REMARK                            x       y       z     vdW  Elec       q    Type
REMARK                         _______ _______ _______ _____ _____    ______ ____
ROOT
ATOM      1  C   UNL A   1     -22.989  -0.406  29.330  0.00  0.00    -0.000 A 
ATOM      2  C   UNL A   1     -23.102  -0.093  28.330  0.00  0.00    -0.004 A 
ATOM      3  C   UNL A   1     -23.790   0.374  30.281  0.00  0.00    +0.000 A 
ATOM      4  C   UNL A   1     -24.446   1.480  29.927  0.00  0.00    +0.004 A 
ATOM      5  C   UNL A   1     -23.723   1.057  27.720  0.00  0.00    -0.013 A 
ATOM      6  C   UNL A   1     -24.442   1.783  28.623  0.00  0.00    +0.052 A 
ATOM      7  C   UNL A   1     -25.191   3.040  28.168  0.00  0.00    +0.269 C 
ATOM      8  N   UNL A   1     -25.810   3.161  27.214  0.00  0.00    -0.175 NA
ATOM      9  O   UNL A   1     -25.142   3.985  29.071  0.00  0.00    -0.268 OA
ATOM     10  C   UNL A   1     -26.040   2.124  26.203  0.00  0.00    +0.074 A 
ATOM     11  C   UNL A   1     -26.867   1.825  25.603  0.00  0.00    +0.017 A 
ATOM     12  C   UNL A   1     -26.979   0.727  24.582  0.00  0.00    +0.001 A 
ATOM     13  C   UNL A   1     -25.853  -0.110  24.479  0.00  0.00    +0.000 A 
ATOM     14  C   UNL A   1     -24.825   0.182  25.287  0.00  0.00    +0.001 A 
ATOM     15  C   UNL A   1     -24.869   1.206  26.133  0.00  0.00    +0.015 A 
ATOM     16  C   UNL A   1     -23.740   2.230  25.422  0.00  0.00    -0.003 C 
ATOM     17  C   UNL A   1     -22.560   1.932  27.085  0.00  0.00    +0.052 C 
ATOM     18  C   UNL A   1     -22.633   2.179  25.901  0.00  0.00    -0.021 C 
ENDROOT
BRANCH   3  19
ATOM     19  C   UNL A   1     -23.757  -0.111  31.732  0.00  0.00    +0.000 A 
ATOM     20  C   UNL A   1     -23.076  -0.909  32.190  0.00  0.00    +0.000 A 
ATOM     21  C   UNL A   1     -23.145  -1.508  33.055  0.00  0.00    +0.000 A 
ATOM     22  C   UNL A   1     -24.217  -1.172  34.109  0.00  0.00    +0.000 A 
ATOM     23  C   UNL A   1     -25.035  -0.153  33.747  0.00  0.00    +0.000 A 
ATOM     24  C   UNL A   1     -24.920   0.367  32.519  0.00  0.00    +0.000 A 
ENDBRANCH   3  19
TORSDOF 1
ENDMDL
ENDMDL
