MODEL 2572
MODEL 1
REMARK VINA RESULT:    -7.050      0.000      0.000
REMARK INTER + INTRA:          -9.418
REMARK INTER:                  -8.698
REMARK INTRA:                  -0.719
REMARK UNBOUND:                -0.719
REMARK  Name = No_2572-gen_results/8p0m/2024-11-27-11-27-31/
REMARK  4 active torsions:
REMARK  status: ('A' for Active; 'I' for Inactive)
REMARK    1  A    between atoms: C_3  and  C_4
REMARK    2  A    between atoms: C_4  and  C_9
REMARK    3  A    between atoms: C_9  and  C_10
REMARK    4  A    between atoms: C_9  and  C_16
REMARK                            x       y       z     vdW  Elec       q    Type
REMARK                         _______ _______ _______ _____ _____    ______ ____
ROOT
ATOM      1  C   UNL A   1     -24.277  -1.313  29.856  0.00  0.00    +0.087 C 
ENDROOT
BRANCH   1   2
ATOM      2  C   UNL A   1     -24.642  -2.639  29.663  0.00  0.00    +0.026 A 
ATOM      3  C   UNL A   1     -25.867  -3.017  30.104  0.00  0.00    +0.192 A 
ATOM      4  C   UNL A   1     -26.204  -4.451  29.703  0.00  0.00    +0.042 A 
ATOM      5  C   UNL A   1     -25.250  -5.175  29.061  0.00  0.00    +0.003 A 
ATOM      6  C   UNL A   1     -23.856  -3.465  28.870  0.00  0.00    -0.000 A 
ATOM      7  C   UNL A   1     -24.133  -4.695  28.544  0.00  0.00    -0.000 A 
ATOM      8  O   UNL A   1     -26.910  -2.528  30.568  0.00  0.00    -0.287 OA
ENDBRANCH   1   2
BRANCH   1   9
ATOM      9  C   UNL A   1     -24.914  -0.168  29.301  0.00  0.00    +0.062 C 
ATOM     10  N   UNL A   1     -25.641   0.530  29.955  0.00  0.00    -0.272 NA
ATOM     11  C   UNL A   1     -26.260   1.743  29.363  0.00  0.00    +0.151 C 
BRANCH   9  14
ATOM     12  C   UNL A   1     -25.590  -0.374  26.805  0.00  0.00    +0.001 A 
ATOM     13  C   UNL A   1     -25.368   0.018  25.852  0.00  0.00    +0.000 A 
ATOM     14  C   UNL A   1     -24.732   0.149  27.867  0.00  0.00    +0.014 A 
ATOM     15  C   UNL A   1     -24.396   0.969  25.331  0.00  0.00    +0.000 A 
ATOM     16  C   UNL A   1     -23.558   1.476  26.302  0.00  0.00    +0.000 A 
ATOM     17  C   UNL A   1     -23.737   1.123  27.588  0.00  0.00    +0.001 A 
ENDBRANCH   9  14
ENDBRANCH   1   9
BRANCH   1  18
ATOM     18  C   UNL A   1     -23.148  -0.926  30.710  0.00  0.00    -0.016 C 
ATOM     19  C   UNL A   1     -23.152  -1.096  32.063  0.00  0.00    -0.004 C 
ENDBRANCH   1  18
TORSDOF 4
ENDMDL
ENDMDL
