REMARK  Name = No_2572-gen_results/8p0m/2024-11-27-11-27-31/
REMARK  4 active torsions:
REMARK  status: ('A' for Active; 'I' for Inactive)
REMARK    1  A    between atoms: C_3  and  C_4
REMARK    2  A    between atoms: C_4  and  C_9
REMARK    3  A    between atoms: C_9  and  C_10
REMARK    4  A    between atoms: C_9  and  C_16
REMARK                            x       y       z     vdW  Elec       q    Type
REMARK                         _______ _______ _______ _____ _____    ______ ____
ROOT
ATOM      1  C   UNL A   1     -26.872   0.638  26.162  0.00  0.00    +0.087 C 
ENDROOT
BRANCH   1   2
ATOM      2  C   UNL A   1     -28.229   0.828  25.929  0.00  0.00    +0.026 A 
ATOM      3  C   UNL A   1     -29.017   1.067  27.006  0.00  0.00    +0.192 A 
ATOM      4  C   UNL A   1     -30.451   1.402  26.604  0.00  0.00    +0.042 A 
ATOM      5  C   UNL A   1     -30.776   1.337  25.286  0.00  0.00    +0.003 A 
ATOM      6  C   UNL A   1     -28.694   0.966  24.628  0.00  0.00    -0.000 A 
ATOM      7  C   UNL A   1     -29.922   1.232  24.284  0.00  0.00    -0.000 A 
ATOM      8  O   UNL A   1     -28.930   1.298  28.223  0.00  0.00    -0.287 OA
ENDBRANCH   1   2
BRANCH   1   9
ATOM      9  C   UNL A   1     -26.252   0.411  27.422  0.00  0.00    +0.062 C 
ATOM     10  N   UNL A   1     -25.064   0.267  27.526  0.00  0.00    -0.272 NA
ATOM     11  C   UNL A   1     -24.438   0.074  28.858  0.00  0.00    +0.151 C 
BRANCH   9  14
ATOM     12  C   UNL A   1     -28.016  -0.814  28.878  0.00  0.00    +0.001 A 
ATOM     13  C   UNL A   1     -28.469  -0.785  29.829  0.00  0.00    +0.000 A 
ATOM     14  C   UNL A   1     -27.087   0.290  28.638  0.00  0.00    +0.014 A 
ATOM     15  C   UNL A   1     -28.391   0.104  30.980  0.00  0.00    +0.000 A 
ATOM     16  C   UNL A   1     -27.533   1.167  30.787  0.00  0.00    +0.000 A 
ATOM     17  C   UNL A   1     -26.828   1.256  29.645  0.00  0.00    +0.001 A 
ENDBRANCH   9  14
ENDBRANCH   1   9
BRANCH   1  18
ATOM     18  C   UNL A   1     -25.883   0.632  25.078  0.00  0.00    -0.016 C 
ATOM     19  C   UNL A   1     -24.546   0.479  25.297  0.00  0.00    -0.004 C 
ENDBRANCH   1  18
TORSDOF 4
