MODEL 2574
MODEL 1
REMARK VINA RESULT:    -9.258      0.000      0.000
REMARK INTER + INTRA:         -13.207
REMARK INTER:                 -12.506
REMARK INTRA:                  -0.701
REMARK UNBOUND:                -0.701
REMARK  Name = No_2574-gen_results/8p0m/2024-11-27-11-27-31/
REMARK  6 active torsions:
REMARK  status: ('A' for Active; 'I' for Inactive)
REMARK    1  A    between atoms: C_1  and  C_2
REMARK    2  A    between atoms: C_1  and  C_8
REMARK    3  A    between atoms: C_4  and  C_20
REMARK    4  A    between atoms: C_5  and  C_10
REMARK    5  A    between atoms: C_10  and  C_12
REMARK    6  A    between atoms: C_12  and  N_13
REMARK                            x       y       z     vdW  Elec       q    Type
REMARK                         _______ _______ _______ _____ _____    ______ ____
ROOT
ATOM      1  C   UNL A   1     -25.074   0.444  25.881  0.00  0.00    -0.018 A 
ATOM      2  C   UNL A   1     -25.535  -0.387  26.773  0.00  0.00    +0.001 A 
ATOM      3  C   UNL A   1     -25.119  -0.467  28.195  0.00  0.00    +0.054 A 
ATOM      4  C   UNL A   1     -24.084   0.422  28.602  0.00  0.00    +0.020 A 
ATOM      5  C   UNL A   1     -23.545   1.259  27.620  0.00  0.00    +0.001 A 
ATOM      6  C   UNL A   1     -23.969   1.276  26.330  0.00  0.00    -0.004 A 
ENDROOT
BRANCH   3   7
ATOM      7  C   UNL A   1     -25.662  -1.392  29.148  0.00  0.00    +0.249 C 
ATOM      8  N   UNL A   1     -25.214  -2.598  29.006  0.00  0.00    -0.276 N 
ATOM      9  C   UNL A   1     -24.286  -3.119  28.620  0.00  0.00    +0.094 C 
ATOM     10  C   UNL A   1     -24.108  -4.496  28.485  0.00  0.00    +0.022 C 
ATOM     11  C   UNL A   1     -25.979  -3.617  29.845  0.00  0.00    +0.094 C 
ATOM     12  C   UNL A   1     -26.027  -4.909  29.661  0.00  0.00    +0.022 C 
ATOM     13  C   UNL A   1     -24.897  -5.417  29.060  0.00  0.00    +0.004 C 
ATOM     14  O   UNL A   1     -26.268  -0.891  30.126  0.00  0.00    -0.270 OA
ENDBRANCH   3   7
BRANCH   4  15
ATOM     15  C   UNL A   1     -23.372   0.402  29.797  0.00  0.00    +0.087 C 
ATOM     16  N   UNL A   1     -22.302  -0.109  30.004  0.00  0.00    -0.270 NA
ATOM     17  C   UNL A   1     -21.826  -0.807  28.859  0.00  0.00    +0.151 C 
BRANCH  15  18
ATOM     18  C   UNL A   1     -23.867   1.164  30.991  0.00  0.00    +0.191 C 
ATOM     19  N   UNL A   1     -23.977   2.518  30.915  0.00  0.00    -0.108 NA
BRANCH  18  20
ATOM     20  N   UNL A   1     -24.092   0.556  32.139  0.00  0.00    -0.254 NA
ATOM     21  C   UNL A   1     -23.904  -0.574  32.803  0.00  0.00    +0.074 C 
ATOM     22  C   UNL A   1     -24.731  -0.887  33.897  0.00  0.00    +0.017 C 
ATOM     23  C   UNL A   1     -26.027  -0.263  33.795  0.00  0.00    +0.003 C 
ATOM     24  C   UNL A   1     -25.770   1.061  33.246  0.00  0.00    +0.017 C 
ATOM     25  C   UNL A   1     -25.187   1.574  32.659  0.00  0.00    +0.074 C 
ATOM     26  C   UNL A   1     -26.838  -0.510  35.057  0.00  0.00    +0.000 C 
ENDBRANCH  18  20
ENDBRANCH  15  18
ENDBRANCH   4  15
BRANCH   1  27
ATOM     27  C   UNL A   1     -25.388   0.532  24.717  0.00  0.00    +0.053 C 
BRANCH  27  28
ATOM     28  C   UNL A   1     -26.860   0.824  24.468  0.00  0.00    -0.018 A 
ATOM     29  C   UNL A   1     -27.674  -0.143  24.087  0.00  0.00    -0.004 A 
ATOM     30  C   UNL A   1     -28.684  -0.283  23.788  0.00  0.00    -0.000 A 
ATOM     31  C   UNL A   1     -29.519   0.987  23.756  0.00  0.00    -0.000 A 
ATOM     32  C   UNL A   1     -28.846   2.125  24.159  0.00  0.00    -0.000 A 
ATOM     33  C   UNL A   1     -27.498   2.069  24.506  0.00  0.00    -0.004 A 
ENDBRANCH  27  28
ENDBRANCH   1  27
TORSDOF 6
ENDMDL
ENDMDL
