REMARK  Name = No_2574-gen_results/8p0m/2024-11-27-11-27-31/
REMARK  6 active torsions:
REMARK  status: ('A' for Active; 'I' for Inactive)
REMARK    1  A    between atoms: C_1  and  C_2
REMARK    2  A    between atoms: C_1  and  C_8
REMARK    3  A    between atoms: C_4  and  C_20
REMARK    4  A    between atoms: C_5  and  C_10
REMARK    5  A    between atoms: C_10  and  C_12
REMARK    6  A    between atoms: C_12  and  N_13
REMARK                            x       y       z     vdW  Elec       q    Type
REMARK                         _______ _______ _______ _____ _____    ______ ____
ROOT
ATOM      1  C   UNL A   1     -27.064  -0.119  28.608  0.00  0.00    -0.018 A 
ATOM      2  C   UNL A   1     -26.876   1.133  28.913  0.00  0.00    +0.001 A 
ATOM      3  C   UNL A   1     -25.688   1.952  28.567  0.00  0.00    +0.054 A 
ATOM      4  C   UNL A   1     -24.639   1.283  27.875  0.00  0.00    +0.020 A 
ATOM      5  C   UNL A   1     -24.818  -0.080  27.617  0.00  0.00    +0.001 A 
ATOM      6  C   UNL A   1     -25.931  -0.772  27.970  0.00  0.00    -0.004 A 
ENDROOT
BRANCH   3   7
ATOM      7  C   UNL A   1     -25.527   3.335  28.914  0.00  0.00    +0.249 C 
ATOM      8  N   UNL A   1     -26.335   4.121  28.279  0.00  0.00    -0.276 N 
ATOM      9  C   UNL A   1     -27.360   4.079  27.802  0.00  0.00    +0.094 C 
ATOM     10  C   UNL A   1     -27.970   5.093  27.063  0.00  0.00    +0.022 C 
ATOM     11  C   UNL A   1     -25.989   5.597  28.458  0.00  0.00    +0.094 C 
ATOM     12  C   UNL A   1     -26.355   6.588  27.691  0.00  0.00    +0.022 C 
ATOM     13  C   UNL A   1     -27.556   6.370  27.053  0.00  0.00    +0.004 C 
ATOM     14  O   UNL A   1     -24.843   3.575  29.939  0.00  0.00    -0.270 OA
ENDBRANCH   3   7
BRANCH   4  15
ATOM     15  C   UNL A   1     -23.352   1.752  27.631  0.00  0.00    +0.087 C 
ATOM     16  N   UNL A   1     -23.019   2.607  26.851  0.00  0.00    -0.270 NA
ATOM     17  C   UNL A   1     -24.125   3.079  26.090  0.00  0.00    +0.151 C 
BRANCH  15  18
ATOM     18  C   UNL A   1     -22.196   1.270  28.457  0.00  0.00    +0.191 C 
ATOM     19  N   UNL A   1     -20.934   1.646  28.114  0.00  0.00    -0.108 NA
BRANCH  18  20
ATOM     20  N   UNL A   1     -22.375   0.408  29.438  0.00  0.00    -0.254 NA
ATOM     21  C   UNL A   1     -22.293  -0.874  29.760  0.00  0.00    +0.074 C 
ATOM     22  C   UNL A   1     -23.021  -1.365  30.860  0.00  0.00    +0.017 C 
ATOM     23  C   UNL A   1     -24.201  -0.580  31.125  0.00  0.00    +0.003 C 
ATOM     24  C   UNL A   1     -23.802   0.800  30.889  0.00  0.00    +0.017 C 
ATOM     25  C   UNL A   1     -23.220   1.376  30.363  0.00  0.00    +0.074 C 
ATOM     26  C   UNL A   1     -24.882  -1.056  32.399  0.00  0.00    +0.000 C 
ENDBRANCH  18  20
ENDBRANCH  15  18
ENDBRANCH   4  15
BRANCH   1  27
ATOM     27  C   UNL A   1     -28.016  -0.814  28.878  0.00  0.00    +0.053 C 
BRANCH  27  28
ATOM     28  C   UNL A   1     -28.650  -0.538  30.233  0.00  0.00    -0.018 A 
ATOM     29  C   UNL A   1     -29.714  -1.218  30.619  0.00  0.00    -0.004 A 
ATOM     30  C   UNL A   1     -30.408  -1.251  31.423  0.00  0.00    -0.000 A 
ATOM     31  C   UNL A   1     -30.173  -0.213  32.508  0.00  0.00    -0.000 A 
ATOM     32  C   UNL A   1     -29.067   0.590  32.302  0.00  0.00    -0.000 A 
ATOM     33  C   UNL A   1     -28.294   0.456  31.152  0.00  0.00    -0.004 A 
ENDBRANCH  27  28
ENDBRANCH   1  27
TORSDOF 6
