MODEL 2575
MODEL 1
REMARK VINA RESULT:    -8.513      0.000      0.000
REMARK INTER + INTRA:         -11.561
REMARK INTER:                 -11.001
REMARK INTRA:                  -0.560
REMARK UNBOUND:                -0.560
REMARK  Name = No_2575-gen_results/8p0m/2024-11-27-11-27-31/
REMARK  5 active torsions:
REMARK  status: ('A' for Active; 'I' for Inactive)
REMARK    1  A    between atoms: C_2  and  C_11
REMARK    2  A    between atoms: N_12  and  C_14
REMARK    3  A    between atoms: C_17  and  C_20
REMARK    4  A    between atoms: C_27  and  C_28
REMARK    5  A    between atoms: C_29  and  C_34
REMARK                            x       y       z     vdW  Elec       q    Type
REMARK                         _______ _______ _______ _____ _____    ______ ____
ROOT
ATOM      1  C   UNL A   1     -13.672   2.899  36.892  0.00  0.00    +0.008 C 
ATOM      2  C   UNL A   1     -14.411   3.008  36.149  0.00  0.00    +0.036 C 
ATOM      3  C   UNL A   1     -12.324   2.529  36.431  0.00  0.00    +0.160 C 
ATOM      4  C   UNL A   1     -12.025   2.468  35.039  0.00  0.00    +0.004 C 
ATOM      5  C   UNL A   1     -13.077   2.694  34.187  0.00  0.00    -0.023 C 
ATOM      6  C   UNL A   1     -14.303   3.013  34.679  0.00  0.00    +0.057 C 
ATOM      7  O   UNL A   1     -11.279   2.258  37.263  0.00  0.00    -0.342 OA
ATOM      8  C   UNL A   1     -10.318   1.402  36.772  0.00  0.00    +0.152 C 
ATOM      9  C   UNL A   1     -10.895   1.924  34.429  0.00  0.00    -0.008 C 
ATOM     10  C   UNL A   1      -9.772   1.598  35.485  0.00  0.00    -0.014 C 
ATOM     11  C   UNL A   1      -8.568   0.974  35.052  0.00  0.00    +0.025 C 
ATOM     12  C   UNL A   1      -7.829   1.514  34.233  0.00  0.00    +0.005 C 
ATOM     13  C   UNL A   1      -8.290  -0.258  35.797  0.00  0.00    +0.030 C 
ATOM     14  C   UNL A   1      -9.187  -1.040  36.579  0.00  0.00    -0.032 C 
ATOM     15  C   UNL A   1     -10.341  -0.434  37.047  0.00  0.00    -0.018 C 
ENDROOT
BRANCH  15  16
ATOM     16  C   UNL A   1     -11.092  -0.800  38.172  0.00  0.00    +0.025 C 
ATOM     17  C   UNL A   1     -10.270  -0.820  39.357  0.00  0.00    +0.025 C 
ATOM     18  C   UNL A   1     -10.703  -1.463  40.494  0.00  0.00    -0.031 C 
ATOM     19  C   UNL A   1     -11.710  -2.357  40.292  0.00  0.00    -0.031 C 
ATOM     20  C   UNL A   1     -12.398  -2.510  39.060  0.00  0.00    +0.026 C 
ATOM     21  C   UNL A   1     -11.659  -2.038  37.900  0.00  0.00    +0.009 C 
BRANCH  17  22
ATOM     22  C   UNL A   1      -9.182   0.225  39.528  0.00  0.00    +0.005 C 
ATOM     23  C   UNL A   1      -8.205  -0.058  40.536  0.00  0.00    +0.000 C 
ENDBRANCH  17  22
ENDBRANCH  15  16
BRANCH   2  24
ATOM     24  C   UNL A   1     -15.868   3.481  36.617  0.00  0.00    +0.265 C 
ATOM     25  N   UNL A   1     -16.128   3.668  37.799  0.00  0.00    -0.176 NA
ATOM     26  O   UNL A   1     -16.655   3.698  35.675  0.00  0.00    -0.268 OA
BRANCH  25  27
ATOM     27  C   UNL A   1     -17.438   4.195  38.224  0.00  0.00    +0.074 A 
ATOM     28  C   UNL A   1     -17.989   5.031  37.924  0.00  0.00    +0.017 A 
ATOM     29  C   UNL A   1     -19.268   5.532  38.391  0.00  0.00    +0.008 A 
ATOM     30  C   UNL A   1     -19.809   4.778  39.465  0.00  0.00    +0.080 A 
ATOM     31  C   UNL A   1     -19.122   3.680  39.916  0.00  0.00    +0.008 A 
ATOM     32  C   UNL A   1     -17.881   3.305  39.397  0.00  0.00    +0.017 A 
BRANCH  30  33
ATOM     33  C   UNL A   1     -21.093   5.199  40.017  0.00  0.00    +0.388 C 
ATOM     34  O   UNL A   1     -21.327   6.360  40.149  0.00  0.00    -0.241 OA
ATOM     35  O   UNL A   1     -21.906   4.240  40.344  0.00  0.00    -0.241 OA
ENDBRANCH  30  33
ENDBRANCH  25  27
ENDBRANCH   2  24
TORSDOF 5
ENDMDL
ENDMDL
