MODEL 2576
MODEL 1
REMARK VINA RESULT:    -6.385      0.000      0.000
REMARK INTER + INTRA:          -7.398
REMARK INTER:                  -7.132
REMARK INTRA:                  -0.266
REMARK UNBOUND:                -0.266
REMARK  Name = No_2576-gen_results/8p0m/2024-11-27-11-27-31/
REMARK  2 active torsions:
REMARK  status: ('A' for Active; 'I' for Inactive)
REMARK    1  A    between atoms: C_5  and  C_11
REMARK    2  A    between atoms: C_7  and  C_15
REMARK                            x       y       z     vdW  Elec       q    Type
REMARK                         _______ _______ _______ _____ _____    ______ ____
ROOT
ATOM      1  C   UNL A   1     -22.780   0.290  29.731  0.00  0.00    +0.016 A 
ATOM      2  C   UNL A   1     -23.384   0.162  28.691  0.00  0.00    -0.015 A 
ATOM      3  C   UNL A   1     -24.589  -0.530  28.579  0.00  0.00    -0.006 A 
ATOM      4  C   UNL A   1     -25.384  -0.745  27.354  0.00  0.00    +0.036 C 
ATOM      5  C   UNL A   1     -24.976   0.005  26.210  0.00  0.00    +0.100 C 
ATOM      6  C   UNL A   1     -23.795   0.750  26.291  0.00  0.00    +0.022 C 
ATOM      7  C   UNL A   1     -23.058   0.847  27.420  0.00  0.00    +0.117 C 
ATOM      8  C   UNL A   1     -22.929  -0.772  30.772  0.00  0.00    +0.099 A 
ATOM      9  N   UNL A   1     -24.192  -1.313  30.900  0.00  0.00    -0.243 NA
ATOM     10  C   UNL A   1     -24.977  -1.456  29.706  0.00  0.00    +0.094 A 
ENDROOT
BRANCH   5  11
ATOM     11  C   UNL A   1     -25.807  -0.134  24.984  0.00  0.00    +0.398 C 
ATOM     12  F   UNL A   1     -25.327   0.439  24.003  0.00  0.00    -0.170 F 
ATOM     13  F   UNL A   1     -25.908  -1.422  24.583  0.00  0.00    -0.170 F 
ATOM     14  F   UNL A   1     -27.100   0.254  25.143  0.00  0.00    -0.170 F 
ENDBRANCH   5  11
BRANCH   7  15
ATOM     15  C   UNL A   1     -21.895   1.730  27.434  0.00  0.00    +0.401 C 
ATOM     16  F   UNL A   1     -21.972   2.616  28.041  0.00  0.00    -0.170 F 
ATOM     17  F   UNL A   1     -21.641   1.974  26.086  0.00  0.00    -0.170 F 
ATOM     18  F   UNL A   1     -20.734   1.109  27.782  0.00  0.00    -0.170 F 
ENDBRANCH   7  15
TORSDOF 2
ENDMDL
ENDMDL
