REMARK  Name = outputs/IAG933/test6/raw/output_2576_IAG933_linker_design_.xyz
REMARK  8 active torsions:
REMARK  status: ('A' for Active; 'I' for Inactive)
REMARK    1  A    between atoms: C_1  and  C_2
REMARK    2  A    between atoms: C_1  and  C_8
REMARK    3  A    between atoms: C_1  and  C_31
REMARK    4  A    between atoms: C_13  and  C_36
REMARK    5  A    between atoms: C_14  and  C_15
REMARK    6  A    between atoms: C_21  and  O_22
REMARK    7  A    between atoms: O_22  and  C_23
REMARK    8  A    between atoms: C_23  and  C_24
REMARK                            x       y       z     vdW  Elec       q    Type
REMARK                         _______ _______ _______ _____ _____    ______ ____
ROOT
ATOM      1  C   UNL A   1     -20.188  -0.130  28.436  0.00  0.00    +0.088 C 
ATOM      2  C   UNL A   1     -21.869   2.003  25.658  0.00  0.00    -0.034 C 
ATOM      3  O   UNL A   1     -23.599   2.033  29.606  0.00  0.00    -0.292 OA
ATOM      4  C   UNL A   1     -23.587  -0.280  29.670  0.00  0.00    +0.227 C 
ATOM      5  C   UNL A   1     -22.097   1.815  26.955  0.00  0.00    -0.038 C 
ATOM      6  C   UNL A   1     -23.928   1.275  25.090  0.00  0.00    +0.006 C 
ATOM      7  C   UNL A   1     -23.390   1.431  27.440  0.00  0.00    +0.080 C 
ATOM      8  C   UNL A   1     -21.471  -0.318  29.075  0.00  0.00    +0.113 C 
ATOM      9  C   UNL A   1     -24.292   1.400  26.427  0.00  0.00    +0.018 C 
ATOM     10  C   UNL A   1     -23.634   1.059  28.955  0.00  0.00    +0.194 C 
ATOM     11  C   UNL A   1     -22.734   1.739  24.645  0.00  0.00    +0.025 C 
ATOM     12  C   UNL A   1     -21.007   1.974  27.722  0.00  0.00    +0.047 C 
ATOM     13  C   UNL A   1     -21.041   0.568  28.431  0.00  0.00    -0.003 C 
ATOM     14  O   UNL A   1     -22.466  -0.889  29.827  0.00  0.00    -0.476 OA
ENDROOT
BRANCH   9  15
ATOM     15  C   UNL A   1     -25.688   1.614  26.461  0.00  0.00    +0.071 C 
ATOM     16  C   UNL A   1     -26.250   2.920  26.395  0.00  0.00    +0.055 C 
ATOM     17  C   UNL A   1     -27.438   3.091  25.645  0.00  0.00    +0.102 C 
ATOM     18  N   UNL A   1     -28.075   2.089  25.003  0.00  0.00    -0.212 NA
ATOM     19  C   UNL A   1     -27.543   0.849  25.079  0.00  0.00    +0.234 C 
ATOM     20  C   UNL A   1     -26.354   0.576  25.777  0.00  0.00    +0.240 C 
ATOM     21  F   UNL A   1     -25.860  -0.681  25.795  0.00  0.00    -0.227 F 
BRANCH  16  22
ATOM     22  C   UNL A   1     -25.642   4.093  27.123  0.00  0.00    +0.262 C 
ATOM     23  N   UNL A   1     -25.614   5.252  26.449  0.00  0.00    -0.200 NA
ATOM     24  C   UNL A   1     -25.026   6.479  26.963  0.00  0.00    +0.139 C 
ATOM     25  O   UNL A   1     -25.143   3.966  28.243  0.00  0.00    -0.269 OA
ENDBRANCH  16  22
BRANCH  19  26
ATOM     26  O   UNL A   1     -28.193  -0.208  24.477  0.00  0.00    -0.459 OA
BRANCH  26  27
ATOM     27  C   UNL A   1     -29.460   0.005  23.866  0.00  0.00    +0.242 C 
BRANCH  27  28
ATOM     28  C   UNL A   1     -30.065  -1.377  23.573  0.00  0.00    +0.229 C 
ATOM     29  O   UNL A   1     -30.729  -1.878  24.721  0.00  0.00    -0.216 OA
ENDBRANCH  27  28
ENDBRANCH  26  27
ENDBRANCH  19  26
ENDBRANCH   9  15
BRANCH   4  30
ATOM     30  C   UNL A   1     -24.855  -1.012  30.143  0.00  0.00    +0.086 C 
BRANCH  30  31
ATOM     31  C   UNL A   1     -24.973  -2.505  29.788  0.00  0.00    -0.017 C 
ATOM     32  C   UNL A   1     -23.906  -3.173  29.146  0.00  0.00    -0.004 C 
ATOM     33  C   UNL A   1     -23.989  -4.549  28.853  0.00  0.00    -0.000 C 
ATOM     34  C   UNL A   1     -25.137  -5.280  29.205  0.00  0.00    -0.000 C 
ATOM     35  C   UNL A   1     -26.232  -4.611  29.784  0.00  0.00    -0.000 C 
ATOM     36  C   UNL A   1     -26.155  -3.232  30.065  0.00  0.00    -0.004 C 
ENDBRANCH  30  31
BRANCH  30  37
ATOM     37  C   UNL A   1     -25.387  -0.679  31.571  0.00  0.00    +0.081 C 
ATOM     38  C   UNL A   1     -25.189   0.773  32.028  0.00  0.00    +0.019 C 
ATOM     39  C   UNL A   1     -25.336   0.684  33.544  0.00  0.00    +0.020 C 
ATOM     40  C   UNL A   1     -24.829  -0.715  33.905  0.00  0.00    +0.089 C 
ATOM     41  N   UNL A   1     -24.758  -1.481  32.646  0.00  0.00    -0.219 NA
ENDBRANCH  30  37
ENDBRANCH   4  30
TORSDOF 8
