MODEL 2577
MODEL 1
REMARK VINA RESULT:    -5.276      0.000      0.000
REMARK INTER + INTRA:          -5.613
REMARK INTER:                  -5.585
REMARK INTRA:                  -0.028
REMARK UNBOUND:                -0.028
REMARK  Name = No_2577-gen_results/8p0m/2024-11-27-11-27-31/
REMARK  1 active torsions:
REMARK  status: ('A' for Active; 'I' for Inactive)
REMARK    1  A    between atoms: C_3  and  P_7
REMARK                            x       y       z     vdW  Elec       q    Type
REMARK                         _______ _______ _______ _____ _____    ______ ____
ROOT
ATOM      1  C   UNL A   1     -29.952  -9.770  31.571  0.00  0.00    +0.000 A 
ATOM      2  C   UNL A   1     -29.352 -10.213  32.522  0.00  0.00    +0.003 A 
ATOM      3  C   UNL A   1     -28.450 -11.273  32.440  0.00  0.00    +0.029 A 
ATOM      4  C   UNL A   1     -28.251 -11.933  31.164  0.00  0.00    +0.003 A 
ATOM      5  C   UNL A   1     -28.978 -11.404  30.099  0.00  0.00    +0.000 A 
ATOM      6  C   UNL A   1     -29.671 -10.456  30.364  0.00  0.00    +0.000 A 
ENDROOT
BRANCH   3   7
ATOM      7  P   UNL A   1     -27.528 -12.000  33.821  0.00  0.00    +0.140 P 
ATOM      8  O   UNL A   1     -26.526 -12.845  33.452  0.00  0.00    -0.456 OA
ATOM      9  O   UNL A   1     -26.914 -10.775  34.572  0.00  0.00    -0.354 OA
ATOM     10  O   UNL A   1     -28.549 -12.656  34.767  0.00  0.00    -0.354 OA
ENDBRANCH   3   7
TORSDOF 1
ENDMDL
ENDMDL
