MODEL 2578
MODEL 1
REMARK VINA RESULT:    -5.371      0.000      0.000
REMARK INTER + INTRA:          -5.767
REMARK INTER:                  -5.685
REMARK INTRA:                  -0.083
REMARK UNBOUND:                -0.083
REMARK  Name = No_2578-gen_results/8p0m/2024-11-27-11-27-31/
REMARK  1 active torsions:
REMARK  status: ('A' for Active; 'I' for Inactive)
REMARK    1  A    between atoms: C_5  and  C_8
REMARK                            x       y       z     vdW  Elec       q    Type
REMARK                         _______ _______ _______ _____ _____    ______ ____
ROOT
ATOM      1  C   UNL A   1     -24.283  -5.097  28.976  0.00  0.00    +0.004 C 
ATOM      2  C   UNL A   1     -25.311  -5.326  28.972  0.00  0.00    +0.001 C 
ATOM      3  C   UNL A   1     -23.983  -3.741  28.514  0.00  0.00    +0.022 C 
ATOM      4  C   UNL A   1     -24.307  -2.762  29.183  0.00  0.00    -0.048 C 
ATOM      5  C   UNL A   1     -23.883  -1.416  28.942  0.00  0.00    -0.030 C 
ATOM      6  C   UNL A   1     -26.278  -4.365  29.743  0.00  0.00    +0.004 C 
ATOM      7  C   UNL A   1     -25.809  -2.986  29.553  0.00  0.00    +0.022 C 
ATOM      8  C   UNL A   1     -24.557  -0.200  29.588  0.00  0.00    +0.030 C 
ENDROOT
BRANCH   5   9
ATOM      9  C   UNL A   1     -22.696  -1.038  29.552  0.00  0.00    -0.005 C 
ATOM     10  C   UNL A   1     -21.718  -0.248  28.850  0.00  0.00    -0.000 C 
ENDBRANCH   5   9
TORSDOF 1
ENDMDL
ENDMDL
