REMARK  Name = No_2578-gen_results/8p0m/2024-11-27-11-27-31/
REMARK  1 active torsions:
REMARK  status: ('A' for Active; 'I' for Inactive)
REMARK    1  A    between atoms: C_5  and  C_8
REMARK                            x       y       z     vdW  Elec       q    Type
REMARK                         _______ _______ _______ _____ _____    ______ ____
ROOT
ATOM      1  C   UNL A   1     -28.016  -0.814  28.878  0.00  0.00    +0.004 C 
ATOM      2  C   UNL A   1     -28.469  -0.785  29.829  0.00  0.00    +0.001 C 
ATOM      3  C   UNL A   1     -27.087   0.290  28.638  0.00  0.00    +0.022 C 
ATOM      4  C   UNL A   1     -26.024   0.364  29.253  0.00  0.00    -0.048 C 
ATOM      5  C   UNL A   1     -24.954   1.266  28.953  0.00  0.00    -0.030 C 
ATOM      6  C   UNL A   1     -27.533  -0.705  31.083  0.00  0.00    +0.004 C 
ATOM      7  C   UNL A   1     -26.398   0.168  30.758  0.00  0.00    +0.022 C 
ATOM      8  C   UNL A   1     -23.803   1.548  29.925  0.00  0.00    +0.030 C 
ENDROOT
BRANCH   5   9
ATOM      9  C   UNL A   1     -24.020   0.810  28.034  0.00  0.00    -0.005 C 
ATOM     10  C   UNL A   1     -22.874   1.608  27.681  0.00  0.00    -0.000 C 
ENDBRANCH   5   9
TORSDOF 1
