REMARK  Name = No_2579-gen_results/8p0m/2024-11-27-11-27-31/
REMARK  3 active torsions:
REMARK  status: ('A' for Active; 'I' for Inactive)
REMARK    1  A    between atoms: C_2  and  O_10
REMARK    2  A    between atoms: C_5  and  C_7
REMARK    3  A    between atoms: O_10  and  C_11
REMARK                            x       y       z     vdW  Elec       q    Type
REMARK                         _______ _______ _______ _____ _____    ______ ____
ROOT
ATOM      1  C   UNL A   1     -28.016  -0.814  28.878  0.00  0.00    +0.038 A 
ATOM      2  C   UNL A   1     -27.064  -0.119  28.608  0.00  0.00    +0.145 A 
ATOM      3  C   UNL A   1     -26.972   0.714  27.506  0.00  0.00    +0.038 A 
ATOM      4  C   UNL A   1     -28.105   0.774  26.642  0.00  0.00    +0.008 A 
ATOM      5  C   UNL A   1     -29.201   0.104  27.053  0.00  0.00    +0.057 A 
ATOM      6  C   UNL A   1     -29.210  -0.603  28.185  0.00  0.00    +0.008 A 
ENDROOT
BRANCH   5   7
ATOM      7  C   UNL A   1     -30.375   0.223  26.167  0.00  0.00    +0.284 C 
ATOM      8  N   UNL A   1     -30.300   0.080  24.931  0.00  0.00    -0.084 NA
ATOM      9  O   UNL A   1     -31.548   0.242  26.692  0.00  0.00    -0.267 OA
ENDBRANCH   5   7
BRANCH   2  10
ATOM     10  O   UNL A   1     -25.823  -0.197  29.382  0.00  0.00    -0.454 OA
BRANCH  10  11
ATOM     11  C   UNL A   1     -25.053  -1.275  29.442  0.00  0.00    +0.145 A 
ATOM     12  C   UNL A   1     -23.891  -1.241  28.898  0.00  0.00    +0.037 A 
ATOM     13  C   UNL A   1     -25.618  -2.454  29.957  0.00  0.00    +0.037 A 
ATOM     14  C   UNL A   1     -22.983  -2.355  29.096  0.00  0.00    +0.003 A 
ATOM     15  C   UNL A   1     -24.870  -3.664  29.898  0.00  0.00    +0.003 A 
ATOM     16  C   UNL A   1     -23.554  -3.563  29.544  0.00  0.00    +0.000 A 
ENDBRANCH  10  11
ENDBRANCH   2  10
TORSDOF 3
