MODEL 2579
MODEL 1
REMARK VINA RESULT:    -6.768      0.000      0.000
REMARK INTER + INTRA:          -8.280
REMARK INTER:                  -7.955
REMARK INTRA:                  -0.325
REMARK UNBOUND:                -0.325
REMARK  Name = No_2579-gen_results/8p0m/2024-11-27-11-27-31/
REMARK  3 active torsions:
REMARK  status: ('A' for Active; 'I' for Inactive)
REMARK    1  A    between atoms: C_2  and  O_10
REMARK    2  A    between atoms: C_5  and  C_7
REMARK    3  A    between atoms: O_10  and  C_11
REMARK                            x       y       z     vdW  Elec       q    Type
REMARK                         _______ _______ _______ _____ _____    ______ ____
ROOT
ATOM      1  C   UNL A   1     -24.517  -0.425  27.545  0.00  0.00    +0.038 A 
ATOM      2  C   UNL A   1     -23.670  -0.445  28.407  0.00  0.00    +0.145 A 
ATOM      3  C   UNL A   1     -22.602   0.431  28.497  0.00  0.00    +0.038 A 
ATOM      4  C   UNL A   1     -22.518   1.454  27.506  0.00  0.00    +0.008 A 
ATOM      5  C   UNL A   1     -23.557   1.539  26.651  0.00  0.00    +0.057 A 
ATOM      6  C   UNL A   1     -24.586   0.691  26.707  0.00  0.00    +0.008 A 
ENDROOT
BRANCH   5   7
ATOM      7  C   UNL A   1     -23.470   2.636  25.668  0.00  0.00    +0.284 C 
ATOM      8  N   UNL A   1     -24.174   3.662  25.743  0.00  0.00    -0.084 NA
ATOM      9  O   UNL A   1     -22.484   2.652  24.844  0.00  0.00    -0.267 OA
ENDBRANCH   5   7
BRANCH   2  10
ATOM     10  O   UNL A   1     -23.624  -1.521  29.400  0.00  0.00    -0.454 OA
BRANCH  10  11
ATOM     11  C   UNL A   1     -24.476  -2.536  29.435  0.00  0.00    +0.145 A 
ATOM     12  C   UNL A   1     -25.568  -2.410  30.097  0.00  0.00    +0.037 A 
ATOM     13  C   UNL A   1     -24.060  -3.757  28.878  0.00  0.00    +0.037 A 
ATOM     14  C   UNL A   1     -26.574  -3.451  30.009  0.00  0.00    +0.003 A 
ATOM     15  C   UNL A   1     -24.888  -4.906  29.030  0.00  0.00    +0.003 A 
ATOM     16  C   UNL A   1     -26.148  -4.702  29.518  0.00  0.00    +0.000 A 
ENDBRANCH  10  11
ENDBRANCH   2  10
TORSDOF 3
ENDMDL
ENDMDL
