MODEL 257
MODEL 1
REMARK VINA RESULT:    -5.651      0.000      0.000
REMARK INTER + INTRA:          -5.651
REMARK INTER:                  -5.651
REMARK INTRA:                   0.000
REMARK UNBOUND:                 0.000
REMARK  Name = No_257-gen_results/8p0m/2024-11-27-11-27-31/
REMARK  0 active torsions:
REMARK  status: ('A' for Active; 'I' for Inactive)
REMARK                            x       y       z     vdW  Elec       q    Type
REMARK                         _______ _______ _______ _____ _____    ______ ____
ROOT
ATOM      1  C   UNL A   1     -24.036  -4.432  28.752  0.00  0.00    +0.000 A 
ATOM      2  C   UNL A   1     -24.852  -5.076  28.922  0.00  0.00    +0.000 A 
ATOM      3  C   UNL A   1     -24.178  -3.077  29.123  0.00  0.00    +0.000 A 
ATOM      4  C   UNL A   1     -25.344  -2.590  29.679  0.00  0.00    +0.000 A 
ATOM      5  C   UNL A   1     -26.029  -4.858  29.472  0.00  0.00    +0.000 A 
ATOM      6  C   UNL A   1     -26.329  -3.576  29.879  0.00  0.00    +0.000 A 
ATOM      7  C   UNL A   1     -23.235  -1.876  28.980  0.00  0.00    +0.000 A 
ATOM      8  C   UNL A   1     -22.974  -1.074  29.826  0.00  0.00    +0.000 A 
ATOM      9  C   UNL A   1     -24.063  -0.646  30.686  0.00  0.00    +0.000 A 
ATOM     10  C   UNL A   1     -25.230  -1.532  30.683  0.00  0.00    +0.000 A 
ENDROOT
TORSDOF 0
ENDMDL
ENDMDL
