REMARK  Name = outputs/IAG933/test6/raw/output_258_IAG933_linker_design_.xyz
REMARK  12 active torsions:
REMARK  status: ('A' for Active; 'I' for Inactive)
REMARK    1  A    between atoms: C_1  and  C_2
REMARK    2  A    between atoms: C_1  and  C_8
REMARK    3  A    between atoms: C_1  and  N_42
REMARK    4  A    between atoms: C_13  and  C_31
REMARK    5  A    between atoms: C_14  and  C_15
REMARK    6  A    between atoms: C_21  and  O_22
REMARK    7  A    between atoms: O_22  and  C_23
REMARK    8  A    between atoms: C_23  and  C_24
REMARK    9  A    between atoms: O_28  and  C_34
REMARK   10  A    between atoms: O_28  and  C_44
REMARK   11  A    between atoms: C_31  and  C_39
REMARK   12  A    between atoms: C_35  and  C_40
REMARK                            x       y       z     vdW  Elec       q    Type
REMARK                         _______ _______ _______ _____ _____    ______ ____
ROOT
ATOM      1  O   UNL A   1     -22.895   0.178  29.285  0.00  0.00    -0.254 OA
ATOM      2  C   UNL A   1     -23.903   1.188  27.782  0.00  0.00    +0.081 C 
ATOM      3  C   UNL A   1     -24.889   0.471  28.353  0.00  0.00    +0.126 C 
ATOM      4  N   UNL A   1     -24.146   0.006  29.448  0.00  0.00    -0.155 NA
ATOM      5  C   UNL A   1     -22.677   0.995  28.189  0.00  0.00    +0.258 C 
ENDROOT
BRANCH   3  10
ATOM      6  O   UNL A   1     -26.448   3.643  30.508  0.00  0.00    -0.199 OA
ATOM      7  C   UNL A   1     -28.884   1.051  30.695  0.00  0.00    +0.009 C 
ATOM      8  C   UNL A   1     -27.622  -0.137  28.643  0.00  0.00    -0.013 C 
ATOM      9  N   UNL A   1     -26.735   1.710  29.590  0.00  0.00    -0.211 NA
ATOM     10  C   UNL A   1     -26.479   0.778  28.883  0.00  0.00    +0.058 C 
ATOM     11  C   UNL A   1     -27.335   2.865  29.870  0.00  0.00    +0.244 C 
ATOM     12  C   UNL A   1     -28.861   0.105  29.463  0.00  0.00    +0.027 C 
ATOM     13  C   UNL A   1     -28.722   2.594  30.485  0.00  0.00    +0.056 C 
ENDBRANCH   3  10
BRANCH   4  14
ATOM     14  C   UNL A   1     -24.855  -1.012  30.143  0.00  0.00    +0.123 C 
BRANCH  14  15
ATOM     15  C   UNL A   1     -24.973  -2.505  29.788  0.00  0.00    -0.004 C 
ATOM     16  C   UNL A   1     -23.906  -3.173  29.146  0.00  0.00    -0.003 C 
ATOM     17  C   UNL A   1     -23.989  -4.549  28.853  0.00  0.00    -0.000 C 
ATOM     18  C   UNL A   1     -25.137  -5.280  29.205  0.00  0.00    -0.000 C 
ATOM     19  C   UNL A   1     -26.232  -4.611  29.784  0.00  0.00    -0.000 C 
ATOM     20  C   UNL A   1     -26.155  -3.232  30.065  0.00  0.00    -0.003 C 
ENDBRANCH  14  15
BRANCH  14  21
ATOM     21  C   UNL A   1     -25.387  -0.679  31.571  0.00  0.00    +0.094 C 
ATOM     22  C   UNL A   1     -25.189   0.773  32.028  0.00  0.00    +0.021 C 
ATOM     23  C   UNL A   1     -25.336   0.684  33.544  0.00  0.00    +0.020 C 
ATOM     24  C   UNL A   1     -24.829  -0.715  33.905  0.00  0.00    +0.089 C 
ATOM     25  N   UNL A   1     -24.758  -1.481  32.646  0.00  0.00    -0.218 NA
ENDBRANCH  14  21
ENDBRANCH   4  14
BRANCH   5  26
ATOM     26  O   UNL A   1     -21.632   1.431  27.286  0.00  0.00    -0.297 OA
BRANCH  26  27
ATOM     27  C   UNL A   1     -21.803   1.662  26.004  0.00  0.00    +0.343 C 
ATOM     28  F   UNL A   1     -22.322   2.229  25.020  0.00  0.00    -0.198 F 
ENDBRANCH  26  27
ENDBRANCH   5  26
BRANCH   2  29
ATOM     29  C   UNL A   1     -24.310   1.476  26.697  0.00  0.00    +0.015 C 
BRANCH  29  30
ATOM     30  C   UNL A   1     -25.688   1.614  26.461  0.00  0.00    +0.070 C 
ATOM     31  C   UNL A   1     -26.250   2.920  26.395  0.00  0.00    +0.055 C 
ATOM     32  C   UNL A   1     -27.438   3.091  25.645  0.00  0.00    +0.102 C 
ATOM     33  N   UNL A   1     -28.075   2.089  25.003  0.00  0.00    -0.212 NA
ATOM     34  C   UNL A   1     -27.543   0.849  25.079  0.00  0.00    +0.234 C 
ATOM     35  C   UNL A   1     -26.354   0.576  25.777  0.00  0.00    +0.240 C 
ATOM     36  F   UNL A   1     -25.860  -0.681  25.795  0.00  0.00    -0.227 F 
BRANCH  31  37
ATOM     37  C   UNL A   1     -25.642   4.093  27.123  0.00  0.00    +0.262 C 
ATOM     38  N   UNL A   1     -25.614   5.252  26.449  0.00  0.00    -0.200 NA
ATOM     39  C   UNL A   1     -25.026   6.479  26.963  0.00  0.00    +0.139 C 
ATOM     40  O   UNL A   1     -25.143   3.966  28.243  0.00  0.00    -0.269 OA
ENDBRANCH  31  37
BRANCH  34  41
ATOM     41  O   UNL A   1     -28.193  -0.208  24.477  0.00  0.00    -0.459 OA
BRANCH  41  42
ATOM     42  C   UNL A   1     -29.460   0.005  23.866  0.00  0.00    +0.242 C 
BRANCH  42  43
ATOM     43  C   UNL A   1     -30.065  -1.377  23.573  0.00  0.00    +0.229 C 
ATOM     44  O   UNL A   1     -30.729  -1.878  24.721  0.00  0.00    -0.216 OA
ENDBRANCH  42  43
ENDBRANCH  41  42
ENDBRANCH  34  41
ENDBRANCH  29  30
ENDBRANCH   2  29
TORSDOF 12
