MODEL 2580
MODEL 1
REMARK VINA RESULT:    -6.901      0.000      0.000
REMARK INTER + INTRA:         -14.242
REMARK INTER:                 -11.741
REMARK INTRA:                  -2.501
REMARK UNBOUND:                -2.501
REMARK  Name = No_2580-gen_results/8p0m/2024-11-27-11-27-31/
REMARK  12 active torsions:
REMARK  status: ('A' for Active; 'I' for Inactive)
REMARK    1  A    between atoms: C_2  and  C_14
REMARK    2  A    between atoms: C_10  and  C_11
REMARK    3  A    between atoms: C_11  and  O_13
REMARK    4  A    between atoms: O_13  and  C_17
REMARK    5  A    between atoms: C_14  and  O_15
REMARK    6  A    between atoms: O_15  and  C_29
REMARK    7  A    between atoms: C_17  and  C_18
REMARK    8  A    between atoms: C_21  and  C_25
REMARK    9  A    between atoms: C_29  and  C_30
REMARK   10  A    between atoms: C_30  and  C_31
REMARK   11  A    between atoms: C_31  and  N_32
REMARK   12  A    between atoms: N_32  and  C_33
REMARK                            x       y       z     vdW  Elec       q    Type
REMARK                         _______ _______ _______ _____ _____    ______ ____
ROOT
ATOM      1  C   UNL A   1     -14.231   2.664  35.198  0.00  0.00    +0.006 A 
ATOM      2  C   UNL A   1     -14.183   3.334  36.010  0.00  0.00    +0.076 A 
ATOM      3  C   UNL A   1     -13.022   2.090  34.746  0.00  0.00    +0.000 A 
ATOM      4  C   UNL A   1     -12.016   2.227  35.286  0.00  0.00    +0.006 A 
ATOM      5  C   UNL A   1     -11.854   3.069  36.427  0.00  0.00    +0.000 A 
ATOM      6  C   UNL A   1     -13.020   3.653  36.869  0.00  0.00    +0.006 A 
ATOM      7  C   UNL A   1     -13.083   1.119  33.537  0.00  0.00    +0.000 A 
ATOM      8  C   UNL A   1     -11.992   1.133  32.732  0.00  0.00    +0.000 A 
ATOM      9  C   UNL A   1     -10.701   1.104  33.392  0.00  0.00    +0.006 A 
ATOM     10  C   UNL A   1     -10.683   1.977  34.603  0.00  0.00    +0.076 A 
ENDROOT
BRANCH  10  11
ATOM     11  C   UNL A   1      -9.317   2.199  35.179  0.00  0.00    +0.348 C 
ATOM     12  O   UNL A   1      -8.783   3.287  35.091  0.00  0.00    -0.244 OA
BRANCH  11  13
ATOM     13  O   UNL A   1      -8.729   1.126  35.685  0.00  0.00    -0.386 OA
BRANCH  13  14
ATOM     14  C   UNL A   1      -8.567   0.938  36.899  0.00  0.00    +0.348 C 
ATOM     15  O   UNL A   1      -7.612   1.483  37.532  0.00  0.00    -0.244 OA
BRANCH  14  16
ATOM     16  C   UNL A   1      -9.653   0.278  37.488  0.00  0.00    +0.076 A 
ATOM     17  C   UNL A   1      -9.939   0.596  38.897  0.00  0.00    +0.006 A 
ATOM     18  C   UNL A   1     -10.492  -0.337  39.604  0.00  0.00    +0.004 A 
ATOM     19  C   UNL A   1     -11.176  -1.351  39.001  0.00  0.00    +0.071 A 
ATOM     20  C   UNL A   1     -10.999  -1.582  37.622  0.00  0.00    +0.004 A 
ATOM     21  C   UNL A   1     -10.275  -0.775  36.984  0.00  0.00    +0.006 A 
BRANCH  19  22
ATOM     22  C   UNL A   1     -12.089  -2.306  39.809  0.00  0.00    +0.419 C 
ATOM     23  F   UNL A   1     -12.566  -3.057  39.282  0.00  0.00    -0.166 F 
ATOM     24  F   UNL A   1     -12.969  -1.486  40.508  0.00  0.00    -0.166 F 
ATOM     25  F   UNL A   1     -11.238  -2.816  40.781  0.00  0.00    -0.166 F 
ENDBRANCH  19  22
ENDBRANCH  14  16
ENDBRANCH  13  14
ENDBRANCH  11  13
ENDBRANCH  10  11
BRANCH   2  26
ATOM     26  C   UNL A   1     -15.529   3.910  36.759  0.00  0.00    +0.341 C 
ATOM     27  O   UNL A   1     -16.571   3.805  36.153  0.00  0.00    -0.245 OA
BRANCH  26  28
ATOM     28  O   UNL A   1     -15.506   3.969  38.033  0.00  0.00    -0.445 OA
BRANCH  28  29
ATOM     29  C   UNL A   1     -16.727   3.715  38.655  0.00  0.00    +0.211 C 
BRANCH  29  30
ATOM     30  C   UNL A   1     -16.859   2.657  39.384  0.00  0.00    +0.071 C 
BRANCH  30  31
ATOM     31  C   UNL A   1     -17.852   2.694  40.315  0.00  0.00    +0.116 C 
BRANCH  31  32
ATOM     32  N   UNL A   1     -17.591   2.214  41.468  0.00  0.00    -0.236 NA
BRANCH  32  33
ATOM     33  C   UNL A   1     -17.740   0.927  41.769  0.00  0.00    +0.080 C 
ATOM     34  C   UNL A   1     -16.544   0.152  42.093  0.00  0.00    +0.019 C 
ENDBRANCH  32  33
ENDBRANCH  31  32
ENDBRANCH  30  31
ENDBRANCH  29  30
ENDBRANCH  28  29
ENDBRANCH  26  28
ENDBRANCH   2  26
TORSDOF 12
ENDMDL
ENDMDL
