REMARK  Name = No_2580-gen_results/8p0m/2024-11-27-11-27-31/
REMARK  12 active torsions:
REMARK  status: ('A' for Active; 'I' for Inactive)
REMARK    1  A    between atoms: C_2  and  C_14
REMARK    2  A    between atoms: C_10  and  C_11
REMARK    3  A    between atoms: C_11  and  O_13
REMARK    4  A    between atoms: O_13  and  C_17
REMARK    5  A    between atoms: C_14  and  O_15
REMARK    6  A    between atoms: O_15  and  C_29
REMARK    7  A    between atoms: C_17  and  C_18
REMARK    8  A    between atoms: C_21  and  C_25
REMARK    9  A    between atoms: C_29  and  C_30
REMARK   10  A    between atoms: C_30  and  C_31
REMARK   11  A    between atoms: C_31  and  N_32
REMARK   12  A    between atoms: N_32  and  C_33
REMARK                            x       y       z     vdW  Elec       q    Type
REMARK                         _______ _______ _______ _____ _____    ______ ____
ROOT
ATOM      1  C   UNL A   1     -28.016  -0.814  28.878  0.00  0.00    +0.006 A 
ATOM      2  C   UNL A   1     -28.469  -0.785  29.829  0.00  0.00    +0.076 A 
ATOM      3  C   UNL A   1     -27.136   0.236  28.535  0.00  0.00    +0.000 A 
ATOM      4  C   UNL A   1     -26.805   1.051  29.276  0.00  0.00    +0.006 A 
ATOM      5  C   UNL A   1     -27.316   1.149  30.605  0.00  0.00    +0.000 A 
ATOM      6  C   UNL A   1     -28.192   0.143  30.949  0.00  0.00    +0.006 A 
ATOM      7  C   UNL A   1     -26.483   0.210  27.128  0.00  0.00    +0.000 A 
ATOM      8  C   UNL A   1     -26.247   1.428  26.580  0.00  0.00    +0.000 A 
ATOM      9  C   UNL A   1     -25.640   2.420  27.446  0.00  0.00    +0.006 A 
ATOM     10  C   UNL A   1     -26.219   2.377  28.822  0.00  0.00    +0.076 A 
ENDROOT
BRANCH  10  11
ATOM     11  C   UNL A   1     -25.830   3.536  29.688  0.00  0.00    +0.348 C 
ATOM     12  O   UNL A   1     -25.796   4.661  29.229  0.00  0.00    -0.244 OA
BRANCH  11  13
ATOM     13  O   UNL A   1     -25.449   3.228  30.918  0.00  0.00    -0.386 OA
BRANCH  13  14
ATOM     14  C   UNL A   1     -25.840   3.828  31.930  0.00  0.00    +0.348 C 
ATOM     15  O   UNL A   1     -26.741   3.344  32.680  0.00  0.00    -0.244 OA
BRANCH  14  16
ATOM     16  C   UNL A   1     -25.032   4.928  32.245  0.00  0.00    +0.076 A 
ATOM     17  C   UNL A   1     -25.450   5.753  33.391  0.00  0.00    +0.006 A 
ATOM     18  C   UNL A   1     -25.121   7.005  33.358  0.00  0.00    +0.004 A 
ATOM     19  C   UNL A   1     -24.088   7.430  32.577  0.00  0.00    +0.071 A 
ATOM     20  C   UNL A   1     -23.601   6.591  31.555  0.00  0.00    +0.004 A 
ATOM     21  C   UNL A   1     -24.091   5.436  31.466  0.00  0.00    +0.006 A 
BRANCH  19  22
ATOM     22  C   UNL A   1     -23.482   8.847  32.735  0.00  0.00    +0.419 C 
ATOM     23  F   UNL A   1     -23.926   9.472  33.429  0.00  0.00    -0.166 F 
ATOM     24  F   UNL A   1     -23.451   9.389  31.454  0.00  0.00    -0.166 F 
ATOM     25  F   UNL A   1     -22.152   8.594  33.041  0.00  0.00    -0.166 F 
ENDBRANCH  19  22
ENDBRANCH  14  16
ENDBRANCH  13  14
ENDBRANCH  11  13
ENDBRANCH  10  11
BRANCH   2  26
ATOM     26  C   UNL A   1     -29.347  -2.040  30.427  0.00  0.00    +0.341 C 
ATOM     27  O   UNL A   1     -29.151  -3.124  29.926  0.00  0.00    -0.245 OA
BRANCH  26  28
ATOM     28  O   UNL A   1     -29.779  -1.931  31.622  0.00  0.00    -0.445 OA
BRANCH  28  29
ATOM     29  C   UNL A   1     -31.066  -2.424  31.830  0.00  0.00    +0.211 C 
BRANCH  29  30
ATOM     30  C   UNL A   1     -32.068  -1.839  31.262  0.00  0.00    +0.071 C 
BRANCH  30  31
ATOM     31  C   UNL A   1     -31.963  -0.490  31.110  0.00  0.00    +0.116 C 
BRANCH  31  32
ATOM     32  N   UNL A   1     -31.956   0.219  32.171  0.00  0.00    -0.236 NA
BRANCH  32  33
ATOM     33  C   UNL A   1     -32.850   1.174  32.411  0.00  0.00    +0.080 C 
ATOM     34  C   UNL A   1     -32.761   1.899  33.677  0.00  0.00    +0.019 C 
ENDBRANCH  32  33
ENDBRANCH  31  32
ENDBRANCH  30  31
ENDBRANCH  29  30
ENDBRANCH  28  29
ENDBRANCH  26  28
ENDBRANCH   2  26
TORSDOF 12
