MODEL 2581
MODEL 1
REMARK VINA RESULT:    -8.122      0.000      0.000
REMARK INTER + INTRA:          -8.886
REMARK INTER:                  -8.597
REMARK INTRA:                  -0.289
REMARK UNBOUND:                -0.289
REMARK  Name = No_2581-gen_results/8p0m/2024-11-27-11-27-31/
REMARK  1 active torsions:
REMARK  status: ('A' for Active; 'I' for Inactive)
REMARK    1  A    between atoms: N_10  and  C_16
REMARK                            x       y       z     vdW  Elec       q    Type
REMARK                         _______ _______ _______ _____ _____    ______ ____
ROOT
ATOM      1  C   UNL A   1     -24.054  -3.041  28.905  0.00  0.00    -0.001 A 
ATOM      2  C   UNL A   1     -24.957  -2.706  29.331  0.00  0.00    +0.011 A 
ATOM      3  C   UNL A   1     -23.908  -4.494  28.725  0.00  0.00    -0.000 A 
ATOM      4  C   UNL A   1     -25.002  -5.370  28.988  0.00  0.00    -0.000 A 
ATOM      5  C   UNL A   1     -25.156  -1.191  29.510  0.00  0.00    +0.194 C 
ATOM      6  C   UNL A   1     -26.134  -4.741  29.463  0.00  0.00    -0.004 A 
ATOM      7  C   UNL A   1     -26.204  -3.400  29.629  0.00  0.00    -0.020 A 
ATOM      8  N   UNL A   1     -25.406  -0.702  30.707  0.00  0.00    -0.194 N 
ATOM      9  C   UNL A   1     -24.950  -0.052  31.406  0.00  0.00    +0.408 C 
ATOM     10  N   UNL A   1     -23.778   0.567  31.088  0.00  0.00    -0.073 NA
ATOM     11  N   UNL A   1     -25.404   0.303  32.707  0.00  0.00    -0.066 NA
ATOM     12  C   UNL A   1     -26.515  -0.225  33.277  0.00  0.00    +0.210 C 
ATOM     13  C   UNL A   1     -27.230  -1.006  32.374  0.00  0.00    +0.082 C 
ATOM     14  C   UNL A   1     -26.766  -1.367  31.074  0.00  0.00    +0.142 C 
ATOM     15  C   UNL A   1     -27.178  -2.638  30.464  0.00  0.00    +0.063 C 
ENDROOT
BRANCH  10  16
ATOM     16  C   UNL A   1     -23.226   0.640  30.156  0.00  0.00    +0.159 A 
ATOM     17  C   UNL A   1     -23.343   1.594  29.098  0.00  0.00    +0.037 A 
ATOM     18  C   UNL A   1     -22.840   1.485  27.851  0.00  0.00    +0.003 A 
ATOM     19  C   UNL A   1     -21.584   0.735  27.710  0.00  0.00    +0.000 A 
ATOM     20  C   UNL A   1     -21.271  -0.175  28.743  0.00  0.00    +0.003 A 
ATOM     21  C   UNL A   1     -22.022  -0.248  29.915  0.00  0.00    +0.037 A 
ENDBRANCH  10  16
TORSDOF 1
ENDMDL
ENDMDL
