REMARK  Name = No_2582-gen_results/8p0m/2024-11-27-11-27-31/
REMARK  6 active torsions:
REMARK  status: ('A' for Active; 'I' for Inactive)
REMARK    1  A    between atoms: C_1  and  C_2
REMARK    2  A    between atoms: C_1  and  N_8
REMARK    3  A    between atoms: C_3  and  C_24
REMARK    4  A    between atoms: C_5  and  C_14
REMARK    5  A    between atoms: C_7  and  C_18
REMARK    6  A    between atoms: C_24  and  C_26
REMARK                            x       y       z     vdW  Elec       q    Type
REMARK                         _______ _______ _______ _____ _____    ______ ____
ROOT
ATOM      1  C   UNL A   1     -27.064  -0.119  28.608  0.00  0.00    -0.009 A 
ATOM      2  C   UNL A   1     -25.765  -0.390  29.036  0.00  0.00    -0.006 A 
ATOM      3  C   UNL A   1     -24.552   0.406  28.765  0.00  0.00    +0.001 A 
ATOM      4  C   UNL A   1     -24.696   1.448  27.799  0.00  0.00    +0.071 A 
ATOM      5  C   UNL A   1     -26.001   1.678  27.297  0.00  0.00    +0.004 A 
ATOM      6  C   UNL A   1     -27.074   0.968  27.650  0.00  0.00    -0.003 A 
ENDROOT
BRANCH   6   7
ATOM      7  C   UNL A   1     -28.388   1.325  27.039  0.00  0.00    -0.000 A 
ATOM      8  C   UNL A   1     -28.410   1.820  25.820  0.00  0.00    -0.000 A 
ATOM      9  C   UNL A   1     -29.628   2.097  25.171  0.00  0.00    -0.000 A 
ATOM     10  C   UNL A   1     -30.797   1.793  25.763  0.00  0.00    -0.000 A 
ATOM     11  C   UNL A   1     -30.766   1.234  27.055  0.00  0.00    -0.000 A 
ATOM     12  C   UNL A   1     -29.611   0.995  27.694  0.00  0.00    -0.000 A 
ENDBRANCH   6   7
BRANCH   4  13
ATOM     13  C   UNL A   1     -23.519   2.212  27.427  0.00  0.00    +0.419 C 
ATOM     14  F   UNL A   1     -22.859   2.043  26.687  0.00  0.00    -0.166 F 
ATOM     15  F   UNL A   1     -24.135   3.568  27.190  0.00  0.00    -0.166 F 
ATOM     16  F   UNL A   1     -22.819   2.517  28.639  0.00  0.00    -0.166 F 
ENDBRANCH   4  13
BRANCH   2  17
ATOM     17  C   UNL A   1     -25.441  -1.493  30.038  0.00  0.00    +0.124 C 
ATOM     18 CL   UNL A   1     -25.979  -1.605  31.418  0.00  0.00    -0.105 Cl
BRANCH  17  19
ATOM     19  C   UNL A   1     -24.788  -2.653  29.392  0.00  0.00    -0.006 C 
ATOM     20  C   UNL A   1     -23.482  -2.626  29.022  0.00  0.00    -0.003 C 
ENDBRANCH  17  19
ENDBRANCH   2  17
BRANCH   1  21
ATOM     21  C   UNL A   1     -28.016  -0.814  28.878  0.00  0.00    +0.099 C 
BRANCH  21  22
ATOM     22  N   UNL A   1     -28.653  -0.573  30.086  0.00  0.00    -0.269 NA
ATOM     23  C   UNL A   1     -29.692  -1.321  30.602  0.00  0.00    +0.072 C 
ATOM     24  C   UNL A   1     -30.211  -0.947  31.859  0.00  0.00    +0.017 C 
ATOM     25  C   UNL A   1     -28.218   0.453  30.994  0.00  0.00    +0.072 C 
ATOM     26  C   UNL A   1     -28.719   0.776  32.164  0.00  0.00    +0.017 C 
ATOM     27  C   UNL A   1     -29.747   0.058  32.646  0.00  0.00    +0.003 C 
ENDBRANCH  21  22
ENDBRANCH   1  21
TORSDOF 6
