MODEL 2582
MODEL 1
REMARK VINA RESULT:    -7.161      0.000      0.000
REMARK INTER + INTRA:         -10.956
REMARK INTER:                  -9.673
REMARK INTRA:                  -1.282
REMARK UNBOUND:                -1.282
REMARK  Name = No_2582-gen_results/8p0m/2024-11-27-11-27-31/
REMARK  6 active torsions:
REMARK  status: ('A' for Active; 'I' for Inactive)
REMARK    1  A    between atoms: C_1  and  C_2
REMARK    2  A    between atoms: C_1  and  N_8
REMARK    3  A    between atoms: C_3  and  C_24
REMARK    4  A    between atoms: C_5  and  C_14
REMARK    5  A    between atoms: C_7  and  C_18
REMARK    6  A    between atoms: C_24  and  C_26
REMARK                            x       y       z     vdW  Elec       q    Type
REMARK                         _______ _______ _______ _____ _____    ______ ____
ROOT
ATOM      1  C   UNL A   1      -9.591   1.056  36.404  0.00  0.00    -0.009 A 
ATOM      2  C   UNL A   1      -8.655   1.481  35.462  0.00  0.00    -0.006 A 
ATOM      3  C   UNL A   1      -7.749   0.635  34.660  0.00  0.00    +0.001 A 
ATOM      4  C   UNL A   1      -7.690  -0.742  35.036  0.00  0.00    +0.071 A 
ATOM      5  C   UNL A   1      -8.583  -1.166  36.051  0.00  0.00    +0.004 A 
ATOM      6  C   UNL A   1      -9.438  -0.358  36.680  0.00  0.00    -0.003 A 
ENDROOT
BRANCH   6   7
ATOM      7  C   UNL A   1     -10.322  -0.946  37.729  0.00  0.00    -0.000 A 
ATOM      8  C   UNL A   1     -11.220  -1.842  37.377  0.00  0.00    -0.000 A 
ATOM      9  C   UNL A   1     -12.021  -2.483  38.340  0.00  0.00    -0.000 A 
ATOM     10  C   UNL A   1     -11.833  -2.242  39.650  0.00  0.00    -0.000 A 
ATOM     11  C   UNL A   1     -10.849  -1.306  40.022  0.00  0.00    -0.000 A 
ATOM     12  C   UNL A   1     -10.101  -0.666  39.110  0.00  0.00    -0.000 A 
ENDBRANCH   6   7
BRANCH   4  13
ATOM     13  C   UNL A   1      -6.755  -1.607  34.340  0.00  0.00    +0.419 C 
ATOM     14  F   UNL A   1      -6.799  -1.967  33.402  0.00  0.00    -0.166 F 
ATOM     15  F   UNL A   1      -5.488  -0.798  34.462  0.00  0.00    -0.166 F 
ATOM     16  F   UNL A   1      -6.409  -2.662  35.246  0.00  0.00    -0.166 F 
ENDBRANCH   4  13
BRANCH   2  17
ATOM     17  C   UNL A   1      -8.567   2.925  34.982  0.00  0.00    +0.124 C 
ATOM     18 CL   UNL A   1      -7.915   4.048  35.704  0.00  0.00    -0.105 Cl
BRANCH  17  19
ATOM     19  C   UNL A   1      -8.902   3.053  33.546  0.00  0.00    -0.006 C 
ATOM     20  C   UNL A   1      -8.134   3.777  32.692  0.00  0.00    -0.003 C 
ENDBRANCH  17  19
ENDBRANCH   2  17
BRANCH   1  21
ATOM     21  C   UNL A   1     -10.310   1.809  37.019  0.00  0.00    +0.099 C 
BRANCH  21  22
ATOM     22  N   UNL A   1     -11.521   2.148  36.433  0.00  0.00    -0.269 NA
ATOM     23  C   UNL A   1     -11.964   1.701  35.205  0.00  0.00    +0.072 C 
ATOM     24  C   UNL A   1     -13.235   2.130  34.768  0.00  0.00    +0.017 C 
ATOM     25  C   UNL A   1     -12.506   2.946  37.110  0.00  0.00    +0.072 C 
ATOM     26  C   UNL A   1     -13.687   3.327  36.679  0.00  0.00    +0.017 C 
ATOM     27  C   UNL A   1     -14.099   2.908  35.471  0.00  0.00    +0.003 C 
ENDBRANCH  21  22
ENDBRANCH   1  21
TORSDOF 6
ENDMDL
ENDMDL
