MODEL 2583
MODEL 1
REMARK VINA RESULT:    -4.478      0.000      0.000
REMARK INTER + INTRA:          -4.478
REMARK INTER:                  -4.478
REMARK INTRA:                   0.000
REMARK UNBOUND:                 0.000
REMARK  Name = No_2583-gen_results/8p0m/2024-11-27-11-27-31/
REMARK  0 active torsions:
REMARK  status: ('A' for Active; 'I' for Inactive)
REMARK                            x       y       z     vdW  Elec       q    Type
REMARK                         _______ _______ _______ _____ _____    ______ ____
ROOT
ATOM      1  C   UNL A   1      -9.229  -9.219  20.011  0.00  0.00    +0.011 A 
ATOM      2  C   UNL A   1      -8.374  -9.795  19.790  0.00  0.00    +0.058 A 
ATOM      3  C   UNL A   1     -10.305  -9.225  19.006  0.00  0.00    +0.001 A 
ATOM      4  C   UNL A   1     -10.231 -10.085  17.871  0.00  0.00    +0.000 A 
ATOM      5  C   UNL A   1      -8.075 -10.800  18.734  0.00  0.00    +0.011 A 
ATOM      6  C   UNL A   1      -9.046 -10.828  17.778  0.00  0.00    +0.001 A 
ATOM      7 CL   UNL A   1      -7.016  -9.928  21.028  0.00  0.00    -0.082 Cl
ENDROOT
TORSDOF 0
ENDMDL
ENDMDL
