MODEL 2584
MODEL 1
REMARK VINA RESULT:    -7.749      0.000      0.000
REMARK INTER + INTRA:          -9.881
REMARK INTER:                  -9.108
REMARK INTRA:                  -0.773
REMARK UNBOUND:                -0.773
REMARK  Name = No_2584-gen_results/8p0m/2024-11-27-11-27-31/
REMARK  3 active torsions:
REMARK  status: ('A' for Active; 'I' for Inactive)
REMARK    1  A    between atoms: C_1  and  C_2
REMARK    2  A    between atoms: C_1  and  C_8
REMARK    3  A    between atoms: C_5  and  C_11
REMARK                            x       y       z     vdW  Elec       q    Type
REMARK                         _______ _______ _______ _____ _____    ______ ____
ROOT
ATOM      1  C   UNL A   1     -24.289  -1.295  29.839  0.00  0.00    +0.010 A 
ATOM      2  C   UNL A   1     -24.755  -2.573  29.537  0.00  0.00    -0.001 A 
ATOM      3  C   UNL A   1     -26.112  -3.106  29.769  0.00  0.00    +0.004 A 
ATOM      4  C   UNL A   1     -26.971  -2.291  30.567  0.00  0.00    +0.052 A 
ATOM      5  C   UNL A   1     -26.473  -1.020  30.948  0.00  0.00    +0.033 A 
ATOM      6  C   UNL A   1     -25.259  -0.567  30.631  0.00  0.00    +0.137 A 
ATOM      7  C   UNL A   1     -23.988  -3.584  28.729  0.00  0.00    -0.000 A 
ATOM      8  C   UNL A   1     -24.224  -4.823  28.745  0.00  0.00    -0.000 A 
ATOM      9  C   UNL A   1     -25.516  -5.275  29.095  0.00  0.00    +0.000 A 
ATOM     10  C   UNL A   1     -26.427  -4.500  29.771  0.00  0.00    +0.000 A 
ATOM     11  F   UNL A   1     -24.904   0.660  30.955  0.00  0.00    -0.204 F 
ENDROOT
BRANCH   4  12
ATOM     12  C   UNL A   1     -28.285  -2.814  30.883  0.00  0.00    +0.254 C 
ATOM     13 CL   UNL A   1     -28.647  -3.128  32.351  0.00  0.00    -0.038 Cl
ATOM     14  O   UNL A   1     -29.232  -2.987  29.964  0.00  0.00    -0.274 OA
ENDBRANCH   4  12
BRANCH   1  15
ATOM     15  C   UNL A   1     -23.161  -0.922  29.610  0.00  0.00    +0.055 C 
BRANCH  15  16
ATOM     16  C   UNL A   1     -23.076   0.065  28.488  0.00  0.00    -0.018 A 
ATOM     17  C   UNL A   1     -22.096   0.826  28.433  0.00  0.00    -0.004 A 
ATOM     18  C   UNL A   1     -22.002   1.816  27.260  0.00  0.00    -0.000 A 
ATOM     19  C   UNL A   1     -23.065   1.836  26.381  0.00  0.00    -0.000 A 
ATOM     20  C   UNL A   1     -24.178   0.152  27.501  0.00  0.00    -0.004 A 
ATOM     21  C   UNL A   1     -24.142   1.031  26.481  0.00  0.00    -0.000 A 
ENDBRANCH  15  16
ENDBRANCH   1  15
TORSDOF 3
ENDMDL
ENDMDL
