MODEL 2585
MODEL 1
REMARK VINA RESULT:    -5.528      0.000      0.000
REMARK INTER + INTRA:          -7.205
REMARK INTER:                  -6.821
REMARK INTRA:                  -0.384
REMARK UNBOUND:                -0.384
REMARK  Name = No_2585-gen_results/8p0m/2024-11-27-11-27-31/
REMARK  4 active torsions:
REMARK  status: ('A' for Active; 'I' for Inactive)
REMARK    1  A    between atoms: C_1  and  C_2
REMARK    2  A    between atoms: C_1  and  N_8
REMARK    3  A    between atoms: C_5  and  C_9
REMARK    4  A    between atoms: C_12  and  C_13
REMARK                            x       y       z     vdW  Elec       q    Type
REMARK                         _______ _______ _______ _____ _____    ______ ____
ROOT
ATOM      1  C   UNL A   1     -29.848 -10.593  30.314  0.00  0.00    +0.002 A 
ATOM      2  C   UNL A   1     -29.945  -9.955  31.539  0.00  0.00    -0.002 A 
ATOM      3  C   UNL A   1     -29.171 -10.251  32.721  0.00  0.00    +0.004 A 
ATOM      4  C   UNL A   1     -28.216 -11.294  32.660  0.00  0.00    +0.057 A 
ATOM      5  C   UNL A   1     -28.069 -11.992  31.433  0.00  0.00    +0.004 A 
ATOM      6  C   UNL A   1     -28.825 -11.618  30.365  0.00  0.00    -0.002 A 
ENDROOT
BRANCH   4   7
ATOM      7  C   UNL A   1     -27.420 -11.671  33.803  0.00  0.00    +0.284 C 
ATOM      8  N   UNL A   1     -26.884 -10.744  34.574  0.00  0.00    -0.084 NA
ATOM      9  O   UNL A   1     -26.665 -12.777  33.769  0.00  0.00    -0.267 OA
ENDBRANCH   4   7
BRANCH   1  10
ATOM     10  C   UNL A   1     -30.457 -10.283  29.317  0.00  0.00    +0.151 C 
BRANCH  10  11
ATOM     11  N   UNL A   1     -30.503 -11.171  28.198  0.00  0.00    -0.269 NA
ATOM     12  C   UNL A   1     -30.212 -10.776  26.924  0.00  0.00    +0.067 C 
BRANCH  12  13
ATOM     13  C   UNL A   1     -29.853 -11.839  25.915  0.00  0.00    +0.047 C 
ATOM     14  C   UNL A   1     -29.301 -12.979  26.628  0.00  0.00    +0.007 C 
ENDBRANCH  12  13
ENDBRANCH  10  11
ENDBRANCH   1  10
TORSDOF 4
ENDMDL
ENDMDL
