MODEL 2589
MODEL 1
REMARK VINA RESULT:    -6.190      0.000      0.000
REMARK INTER + INTRA:          -6.622
REMARK INTER:                  -6.552
REMARK INTRA:                  -0.070
REMARK UNBOUND:                -0.070
REMARK  Name = No_2589-gen_results/8p0m/2024-11-27-11-27-31/
REMARK  1 active torsions:
REMARK  status: ('A' for Active; 'I' for Inactive)
REMARK    1  A    between atoms: C_5  and  C_9
REMARK                            x       y       z     vdW  Elec       q    Type
REMARK                         _______ _______ _______ _____ _____    ______ ____
ROOT
ATOM      1  C   UNL A   1     -30.765  -9.746  29.500  0.00  0.00    +0.099 A 
ATOM      2  C   UNL A   1     -30.078 -10.266  30.349  0.00  0.00    +0.019 A 
ATOM      3  C   UNL A   1     -29.124 -11.245  30.077  0.00  0.00    +0.003 A 
ATOM      4  C   UNL A   1     -28.254 -11.938  31.047  0.00  0.00    +0.005 A 
ATOM      5  C   UNL A   1     -28.254 -11.405  32.372  0.00  0.00    +0.057 A 
ATOM      6  C   UNL A   1     -29.165 -10.389  32.678  0.00  0.00    +0.005 A 
ATOM      7  C   UNL A   1     -30.000  -9.843  31.766  0.00  0.00    +0.002 A 
ATOM      8  N   UNL A   1     -30.861 -10.375  28.241  0.00  0.00    -0.242 NA
ATOM      9  C   UNL A   1     -29.050 -11.814  28.783  0.00  0.00    +0.021 A 
ATOM     10  C   UNL A   1     -29.933 -11.303  27.821  0.00  0.00    +0.099 A 
ENDROOT
BRANCH   5  11
ATOM     11  C   UNL A   1     -27.356 -12.022  33.304  0.00  0.00    +0.284 C 
ATOM     12  N   UNL A   1     -27.254 -12.271  34.299  0.00  0.00    -0.084 NA
ATOM     13  O   UNL A   1     -26.458 -12.917  32.578  0.00  0.00    -0.267 OA
ENDBRANCH   5  11
TORSDOF 1
ENDMDL
ENDMDL
