MODEL 258
MODEL 1
REMARK VINA RESULT:    -8.108      0.000      0.000
REMARK INTER + INTRA:         -10.733
REMARK INTER:                 -10.005
REMARK INTRA:                  -0.728
REMARK UNBOUND:                -0.728
REMARK  Name = No_258-gen_results/8p0m/2024-11-27-11-27-31/
REMARK  4 active torsions:
REMARK  status: ('A' for Active; 'I' for Inactive)
REMARK    1  A    between atoms: C_6  and  C_33
REMARK    2  A    between atoms: C_10  and  C_23
REMARK    3  A    between atoms: C_23  and  C_24
REMARK    4  A    between atoms: N_26  and  C_27
REMARK                            x       y       z     vdW  Elec       q    Type
REMARK                         _______ _______ _______ _____ _____    ______ ____
ROOT
ATOM      1  C   UNL A   1     -26.172  -0.565  25.330  0.00  0.00    -0.001 A 
ATOM      2  C   UNL A   1     -25.345  -0.378  24.704  0.00  0.00    -0.000 A 
ATOM      3  C   UNL A   1     -26.313   0.409  26.420  0.00  0.00    +0.012 A 
ATOM      4  C   UNL A   1     -25.379   1.321  26.690  0.00  0.00    +0.066 A 
ATOM      5  C   UNL A   1     -24.214   0.512  24.802  0.00  0.00    +0.006 A 
ATOM      6  C   UNL A   1     -24.351   1.392  25.835  0.00  0.00    +0.072 A 
ATOM      7  C   UNL A   1     -27.482   0.377  27.399  0.00  0.00    +0.097 C 
ATOM      8  N   UNL A   1     -27.425  -0.169  28.514  0.00  0.00    -0.304 N 
ATOM      9  C   UNL A   1     -28.813   0.758  26.863  0.00  0.00    +0.025 C 
ATOM     10  C   UNL A   1     -29.792   1.006  27.713  0.00  0.00    +0.009 C 
ATOM     11  C   UNL A   1     -28.476  -0.084  29.406  0.00  0.00    +0.091 C 
ATOM     12  C   UNL A   1     -29.702   0.387  29.005  0.00  0.00    +0.022 C 
ATOM     13  C   UNL A   1     -26.198  -0.693  29.049  0.00  0.00    +0.064 A 
ATOM     14  C   UNL A   1     -26.273  -1.619  30.068  0.00  0.00    +0.016 A 
ATOM     15  C   UNL A   1     -25.072  -2.242  30.368  0.00  0.00    +0.001 A 
ATOM     16  C   UNL A   1     -23.863  -2.059  29.776  0.00  0.00    +0.001 A 
ATOM     17  C   UNL A   1     -23.819  -1.077  28.753  0.00  0.00    +0.015 A 
ATOM     18  C   UNL A   1     -24.982  -0.436  28.359  0.00  0.00    +0.077 A 
ATOM     19  N   UNL A   1     -24.866   0.558  27.452  0.00  0.00    -0.304 N 
ATOM     20  C   UNL A   1     -23.491   1.012  27.708  0.00  0.00    +0.076 A 
ATOM     21  C   UNL A   1     -22.828  -0.091  28.471  0.00  0.00    -0.003 A 
ATOM     22  C   UNL A   1     -21.441  -0.353  28.682  0.00  0.00    +0.033 C 
ENDROOT
BRANCH   6  23
ATOM     23  C   UNL A   1     -23.533   2.642  25.569  0.00  0.00    +0.286 C 
ATOM     24  N   UNL A   1     -22.399   2.627  24.985  0.00  0.00    -0.084 NA
ATOM     25  O   UNL A   1     -24.018   3.822  25.813  0.00  0.00    -0.267 OA
ENDBRANCH   6  23
BRANCH  10  26
ATOM     26  C   UNL A   1     -31.107   1.409  27.230  0.00  0.00    +0.036 C 
BRANCH  26  27
ATOM     27  C   UNL A   1     -31.131   2.581  26.263  0.00  0.00    +0.035 C 
ATOM     28  C   UNL A   1     -31.606   2.521  24.991  0.00  0.00    -0.007 C 
ATOM     29  N   UNL A   1     -31.623   1.385  24.340  0.00  0.00    -0.204 NA
BRANCH  29  30
ATOM     30  C   UNL A   1     -32.020   1.448  23.003  0.00  0.00    +0.090 A 
ATOM     31  C   UNL A   1     -31.377   2.481  22.240  0.00  0.00    +0.020 A 
ATOM     32  C   UNL A   1     -31.898   2.774  21.049  0.00  0.00    +0.002 A 
ATOM     33  C   UNL A   1     -32.755   0.677  22.252  0.00  0.00    +0.020 A 
ATOM     34  C   UNL A   1     -33.231   0.809  21.019  0.00  0.00    +0.002 A 
ATOM     35  C   UNL A   1     -32.741   1.955  20.322  0.00  0.00    +0.000 A 
ENDBRANCH  29  30
ENDBRANCH  26  27
ENDBRANCH  10  26
TORSDOF 4
ENDMDL
ENDMDL
