MODEL 2590
MODEL 1
REMARK VINA RESULT:    -4.246      0.000      0.000
REMARK INTER + INTRA:          -4.246
REMARK INTER:                  -4.246
REMARK INTRA:                   0.000
REMARK UNBOUND:                 0.000
REMARK  Name = No_2590-gen_results/8p0m/2024-11-27-11-27-31/
REMARK  0 active torsions:
REMARK  status: ('A' for Active; 'I' for Inactive)
REMARK                            x       y       z     vdW  Elec       q    Type
REMARK                         _______ _______ _______ _____ _____    ______ ____
ROOT
ATOM      1  C   UNL A   1     -24.971  -5.350  28.947  0.00  0.00    +0.000 A 
ATOM      2  C   UNL A   1     -24.154  -4.719  28.736  0.00  0.00    +0.000 A 
ATOM      3  C   UNL A   1     -26.128  -4.730  29.612  0.00  0.00    +0.000 A 
ATOM      4  C   UNL A   1     -26.174  -3.321  29.820  0.00  0.00    +0.000 A 
ATOM      5  C   UNL A   1     -23.973  -3.243  28.794  0.00  0.00    +0.000 A 
ATOM      6  C   UNL A   1     -25.022  -2.633  29.415  0.00  0.00    +0.000 A 
ENDROOT
TORSDOF 0
ENDMDL
ENDMDL
