MODEL 2591
MODEL 1
REMARK VINA RESULT:    -8.326      0.000      0.000
REMARK INTER + INTRA:         -12.212
REMARK INTER:                 -10.273
REMARK INTRA:                  -1.940
REMARK UNBOUND:                -1.940
REMARK  Name = No_2591-gen_results/8p0m/2024-11-27-11-27-31/
REMARK  4 active torsions:
REMARK  status: ('A' for Active; 'I' for Inactive)
REMARK    1  A    between atoms: C_3  and  C_7
REMARK    2  A    between atoms: C_7  and  C_8
REMARK    3  A    between atoms: C_7  and  C_9
REMARK    4  A    between atoms: C_9  and  C_10
REMARK                            x       y       z     vdW  Elec       q    Type
REMARK                         _______ _______ _______ _____ _____    ______ ____
ROOT
ATOM      1  C   UNL A   1     -24.790  -1.249  29.454  0.00  0.00    +0.049 C 
ENDROOT
BRANCH   1   4
ATOM      2  C   UNL A   1     -26.082  -3.433  29.811  0.00  0.00    -0.004 A 
ATOM      3  C   UNL A   1     -26.117  -4.475  29.663  0.00  0.00    -0.000 A 
ATOM      4  C   UNL A   1     -24.947  -2.738  29.338  0.00  0.00    -0.018 A 
ATOM      5  C   UNL A   1     -23.902  -3.386  28.711  0.00  0.00    -0.004 A 
ATOM      6  C   UNL A   1     -25.153  -5.397  29.030  0.00  0.00    -0.000 A 
ATOM      7  C   UNL A   1     -24.050  -4.772  28.564  0.00  0.00    -0.000 A 
ENDBRANCH   1   4
BRANCH   1   8
ATOM      8  C   UNL A   1     -24.705  -0.797  30.741  0.00  0.00    -0.018 A 
ATOM      9  C   UNL A   1     -25.787  -0.284  31.426  0.00  0.00    -0.004 A 
ATOM     10  C   UNL A   1     -25.787  -0.331  32.910  0.00  0.00    -0.000 A 
ATOM     11  C   UNL A   1     -24.690  -0.731  33.615  0.00  0.00    -0.000 A 
ATOM     12  C   UNL A   1     -23.595  -1.238  31.575  0.00  0.00    -0.004 A 
ATOM     13  C   UNL A   1     -23.612  -1.226  32.987  0.00  0.00    -0.000 A 
ENDBRANCH   1   8
BRANCH   1  14
ATOM     14  C   UNL A   1     -24.732  -0.408  28.366  0.00  0.00    +0.030 C 
ATOM     15  C   UNL A   1     -25.925  -0.325  27.590  0.00  0.00    +0.005 C 
BRANCH  14  16
ATOM     16  C   UNL A   1     -23.597   0.224  27.977  0.00  0.00    -0.022 A 
ATOM     17  C   UNL A   1     -23.750   1.327  27.118  0.00  0.00    -0.004 A 
ATOM     18  C   UNL A   1     -22.603   2.062  26.750  0.00  0.00    -0.000 A 
ATOM     19  C   UNL A   1     -21.378   1.724  27.281  0.00  0.00    -0.000 A 
ATOM     20  C   UNL A   1     -21.230   0.691  28.165  0.00  0.00    -0.000 A 
ATOM     21  C   UNL A   1     -22.288  -0.069  28.510  0.00  0.00    -0.004 A 
ENDBRANCH  14  16
ENDBRANCH   1  14
TORSDOF 4
ENDMDL
ENDMDL
