REMARK  Name = outputs/IAG933/test6/raw/output_2592_IAG933_linker_design_.xyz
REMARK  13 active torsions:
REMARK  status: ('A' for Active; 'I' for Inactive)
REMARK    1  A    between atoms: C_1  and  C_2
REMARK    2  A    between atoms: C_1  and  C_8
REMARK    3  A    between atoms: C_1  and  C_29
REMARK    4  A    between atoms: C_13  and  N_43
REMARK    5  A    between atoms: C_14  and  C_15
REMARK    6  A    between atoms: C_21  and  O_22
REMARK    7  A    between atoms: O_22  and  C_23
REMARK    8  A    between atoms: C_23  and  C_24
REMARK    9  A    between atoms: C_28  and  N_43
REMARK   10  A    between atoms: C_29  and  N_37
REMARK   11  A    between atoms: C_29  and  N_43
REMARK   12  A    between atoms: C_33  and  C_44
REMARK   13  A    between atoms: C_35  and  C_41
REMARK                            x       y       z     vdW  Elec       q    Type
REMARK                         _______ _______ _______ _____ _____    ______ ____
ROOT
ATOM      1  C   UNL A   1     -25.523  -0.123  28.968  0.00  0.00    +0.161 C 
ENDROOT
BRANCH   1   4
ATOM      2  O   UNL A   1     -28.610  -0.490  28.243  0.00  0.00    -0.268 OA
ATOM      3  C   UNL A   1     -28.161   0.477  28.877  0.00  0.00    +0.266 C 
ATOM      4  N   UNL A   1     -26.865   0.552  29.444  0.00  0.00    -0.186 NA
BRANCH   3   9
ATOM      5  C   UNL A   1     -30.321   1.599  29.229  0.00  0.00    +0.004 C 
ATOM      6  C   UNL A   1     -30.399   4.013  29.684  0.00  0.00    +0.011 C 
ATOM      7  C   UNL A   1     -29.007   3.988  29.752  0.00  0.00    -0.002 C 
ATOM      8  C   UNL A   1     -28.269   2.848  29.451  0.00  0.00    +0.004 C 
ATOM      9  C   UNL A   1     -28.937   1.653  29.176  0.00  0.00    +0.055 C 
ATOM     10  C   UNL A   1     -31.050   2.744  29.559  0.00  0.00    -0.002 C 
BRANCH   6  12
ATOM     11  O   UNL A   1     -30.405   5.748  30.153  0.00  0.00    -0.215 OA
ATOM     12  C   UNL A   1     -31.283   5.167  29.421  0.00  0.00    +0.209 C 
ENDBRANCH   6  12
ENDBRANCH   3   9
ENDBRANCH   1   4
BRANCH   1  13
ATOM     13  C   UNL A   1     -24.855  -1.012  30.143  0.00  0.00    +0.074 C 
BRANCH  13  14
ATOM     14  C   UNL A   1     -24.973  -2.505  29.788  0.00  0.00    -0.018 C 
ATOM     15  C   UNL A   1     -23.906  -3.173  29.146  0.00  0.00    -0.004 C 
ATOM     16  C   UNL A   1     -23.989  -4.549  28.853  0.00  0.00    -0.000 C 
ATOM     17  C   UNL A   1     -25.137  -5.280  29.205  0.00  0.00    -0.000 C 
ATOM     18  C   UNL A   1     -26.232  -4.611  29.784  0.00  0.00    -0.000 C 
ATOM     19  C   UNL A   1     -26.155  -3.232  30.065  0.00  0.00    -0.004 C 
ENDBRANCH  13  14
BRANCH  13  20
ATOM     20  C   UNL A   1     -25.387  -0.679  31.571  0.00  0.00    +0.080 C 
ATOM     21  C   UNL A   1     -25.189   0.773  32.028  0.00  0.00    +0.019 C 
ATOM     22  C   UNL A   1     -25.336   0.684  33.544  0.00  0.00    +0.020 C 
ATOM     23  C   UNL A   1     -24.829  -0.715  33.905  0.00  0.00    +0.089 C 
ATOM     24  N   UNL A   1     -24.758  -1.481  32.646  0.00  0.00    -0.219 NA
ENDBRANCH  13  20
ENDBRANCH   1  13
BRANCH   1  25
ATOM     25  N   UNL A   1     -25.040   1.207  27.745  0.00  0.00    -0.253 NA
BRANCH  25  26
ATOM     26  C   UNL A   1     -25.688   1.614  26.461  0.00  0.00    +0.130 C 
ATOM     27  C   UNL A   1     -26.250   2.920  26.395  0.00  0.00    +0.070 C 
ATOM     28  C   UNL A   1     -27.438   3.091  25.645  0.00  0.00    +0.103 C 
ATOM     29  N   UNL A   1     -28.075   2.089  25.003  0.00  0.00    -0.212 NA
ATOM     30  C   UNL A   1     -27.543   0.849  25.079  0.00  0.00    +0.235 C 
ATOM     31  C   UNL A   1     -26.354   0.576  25.777  0.00  0.00    +0.255 C 
ATOM     32  F   UNL A   1     -25.860  -0.681  25.795  0.00  0.00    -0.225 F 
BRANCH  27  33
ATOM     33  C   UNL A   1     -25.642   4.093  27.123  0.00  0.00    +0.264 C 
ATOM     34  N   UNL A   1     -25.614   5.252  26.449  0.00  0.00    -0.200 NA
ATOM     35  C   UNL A   1     -25.026   6.479  26.963  0.00  0.00    +0.139 C 
ATOM     36  O   UNL A   1     -25.143   3.966  28.243  0.00  0.00    -0.269 OA
ENDBRANCH  27  33
BRANCH  30  37
ATOM     37  O   UNL A   1     -28.193  -0.208  24.477  0.00  0.00    -0.459 OA
BRANCH  37  38
ATOM     38  C   UNL A   1     -29.460   0.005  23.866  0.00  0.00    +0.242 C 
BRANCH  38  39
ATOM     39  C   UNL A   1     -30.065  -1.377  23.573  0.00  0.00    +0.229 C 
ATOM     40  O   UNL A   1     -30.729  -1.878  24.721  0.00  0.00    -0.216 OA
ENDBRANCH  38  39
ENDBRANCH  37  38
ENDBRANCH  30  37
ENDBRANCH  25  26
BRANCH  25  41
ATOM     41  C   UNL A   1     -23.584   0.826  27.255  0.00  0.00    +0.059 C 
ATOM     42  C   UNL A   1     -22.714   0.156  28.306  0.00  0.00    +0.016 C 
ATOM     43  C   UNL A   1     -21.632   1.289  27.904  0.00  0.00    +0.003 C 
ATOM     44  C   UNL A   1     -22.490   1.849  26.789  0.00  0.00    +0.016 C 
ENDBRANCH  25  41
ENDBRANCH   1  25
TORSDOF 13
