MODEL 2592
MODEL 1
REMARK VINA RESULT:    -6.626      0.000      0.000
REMARK INTER + INTRA:          -9.667
REMARK INTER:                  -8.563
REMARK INTRA:                  -1.103
REMARK UNBOUND:                -1.103
REMARK  Name = No_2592-gen_results/8p0m/2024-11-27-11-27-31/
REMARK  5 active torsions:
REMARK  status: ('A' for Active; 'I' for Inactive)
REMARK    1  A    between atoms: C_1  and  C_2
REMARK    2  A    between atoms: C_1  and  C_8
REMARK    3  A    between atoms: C_3  and  C_17
REMARK    4  A    between atoms: C_5  and  C_14
REMARK    5  A    between atoms: C_20  and  C_22
REMARK                            x       y       z     vdW  Elec       q    Type
REMARK                         _______ _______ _______ _____ _____    ______ ____
ROOT
ATOM      1  C   UNL A   1     -29.030 -12.620  31.803  0.00  0.00    -0.010 A 
ATOM      2  C   UNL A   1     -29.165 -12.323  33.146  0.00  0.00    +0.085 A 
ATOM      3  C   UNL A   1     -29.917 -13.101  34.113  0.00  0.00    +0.012 A 
ATOM      4  C   UNL A   1     -30.591 -14.262  33.674  0.00  0.00    +0.057 A 
ATOM      5  C   UNL A   1     -30.447 -14.590  32.279  0.00  0.00    +0.004 A 
ATOM      6  C   UNL A   1     -29.698 -13.858  31.388  0.00  0.00    -0.004 A 
ENDROOT
BRANCH   2   7
ATOM      7  C   UNL A   1     -28.521 -11.128  33.706  0.00  0.00    +0.370 C 
ATOM      8  N   UNL A   1     -29.036  -9.996  33.723  0.00  0.00    -0.051 NA
ATOM      9  N   UNL A   1     -27.321 -11.248  34.319  0.00  0.00    -0.039 NA
ATOM     10  C   UNL A   1     -26.848 -10.121  34.795  0.00  0.00    +0.202 C 
ATOM     11  C   UNL A   1     -28.336  -9.079  34.308  0.00  0.00    +0.331 C 
BRANCH  10  12
ATOM     12  C   UNL A   1     -27.042  -8.980  34.952  0.00  0.00    +0.074 C 
ATOM     13  C   UNL A   1     -26.856  -7.982  35.799  0.00  0.00    +0.009 C 
ENDBRANCH  10  12
ENDBRANCH   2   7
BRANCH   4  14
ATOM     14  C   UNL A   1     -31.352 -15.112  34.557  0.00  0.00    +0.284 C 
ATOM     15  N   UNL A   1     -31.148 -16.445  34.501  0.00  0.00    -0.084 NA
ATOM     16  O   UNL A   1     -31.776 -14.654  35.698  0.00  0.00    -0.267 OA
ENDBRANCH   4  14
BRANCH   1  17
ATOM     17  C   UNL A   1     -28.340 -11.981  31.043  0.00  0.00    +0.053 C 
BRANCH  17  18
ATOM     18  C   UNL A   1     -29.037 -11.442  29.834  0.00  0.00    -0.018 A 
ATOM     19  C   UNL A   1     -29.852 -10.650  29.926  0.00  0.00    -0.004 A 
ATOM     20  C   UNL A   1     -30.551 -10.052  29.485  0.00  0.00    -0.000 A 
ATOM     21  C   UNL A   1     -30.939 -10.095  28.097  0.00  0.00    -0.000 A 
ATOM     22  C   UNL A   1     -30.035 -11.098  27.487  0.00  0.00    -0.000 A 
ATOM     23  C   UNL A   1     -29.039 -11.938  28.403  0.00  0.00    -0.004 A 
ENDBRANCH  17  18
ENDBRANCH   1  17
TORSDOF 5
ENDMDL
ENDMDL
