REMARK  Name = outputs/IAG933/test6/raw/output_2593_IAG933_linker_design_.xyz
REMARK  13 active torsions:
REMARK  status: ('A' for Active; 'I' for Inactive)
REMARK    1  A    between atoms: C_1  and  C_2
REMARK    2  A    between atoms: C_1  and  C_8
REMARK    3  A    between atoms: C_1  and  C_46
REMARK    4  A    between atoms: C_13  and  C_36
REMARK    5  A    between atoms: C_14  and  C_15
REMARK    6  A    between atoms: C_21  and  O_22
REMARK    7  A    between atoms: O_22  and  C_23
REMARK    8  A    between atoms: C_23  and  C_24
REMARK    9  A    between atoms: C_28  and  N_29
REMARK   10  A    between atoms: N_29  and  C_31
REMARK   11  A    between atoms: C_30  and  C_39
REMARK   12  A    between atoms: C_32  and  C_37
REMARK   13  A    between atoms: N_35  and  C_43
REMARK                            x       y       z     vdW  Elec       q    Type
REMARK                         _______ _______ _______ _____ _____    ______ ____
ROOT
ATOM      1  C   UNL A   1     -25.206   0.488  28.387  0.00  0.00    +0.085 A 
ATOM      2  C   UNL A   1     -24.673   1.198  27.333  0.00  0.00    +0.031 A 
ATOM      3  C   UNL A   1     -22.454   0.833  28.026  0.00  0.00    +0.069 A 
ATOM      4  C   UNL A   1     -23.372   1.378  27.119  0.00  0.00    +0.072 A 
ATOM      5  N   UNL A   1     -22.924   0.108  29.057  0.00  0.00    -0.252 NA
ATOM      6 CL   UNL A   1     -22.920   2.327  25.648  0.00  0.00    -0.081 Cl
ATOM      7  C   UNL A   1     -24.267  -0.096  29.178  0.00  0.00    +0.079 A 
ENDROOT
BRANCH   2   8
ATOM      8  C   UNL A   1     -25.688   1.614  26.461  0.00  0.00    +0.040 C 
ATOM      9  C   UNL A   1     -26.250   2.920  26.395  0.00  0.00    +0.077 C 
ATOM     10  C   UNL A   1     -27.438   3.091  25.645  0.00  0.00    +0.107 C 
ATOM     11  N   UNL A   1     -28.075   2.089  25.003  0.00  0.00    -0.208 NA
ATOM     12  C   UNL A   1     -27.543   0.849  25.079  0.00  0.00    +0.253 C 
ATOM     13  C   UNL A   1     -26.354   0.576  25.777  0.00  0.00    +0.193 C 
ATOM     14  F   UNL A   1     -25.860  -0.681  25.795  0.00  0.00    -0.199 F 
BRANCH   9  15
ATOM     15  C   UNL A   1     -25.642   4.093  27.123  0.00  0.00    +0.266 C 
ATOM     16  N   UNL A   1     -25.614   5.252  26.449  0.00  0.00    -0.200 NA
ATOM     17  C   UNL A   1     -25.026   6.479  26.963  0.00  0.00    +0.139 C 
ATOM     18  O   UNL A   1     -25.143   3.966  28.243  0.00  0.00    -0.268 OA
ENDBRANCH   9  15
BRANCH  12  19
ATOM     19  O   UNL A   1     -28.193  -0.208  24.477  0.00  0.00    -0.456 OA
BRANCH  19  20
ATOM     20  C   UNL A   1     -29.460   0.005  23.866  0.00  0.00    +0.243 C 
BRANCH  20  21
ATOM     21  C   UNL A   1     -30.065  -1.377  23.573  0.00  0.00    +0.229 C 
ATOM     22  O   UNL A   1     -30.729  -1.878  24.721  0.00  0.00    -0.216 OA
ENDBRANCH  20  21
ENDBRANCH  19  20
ENDBRANCH  12  19
ENDBRANCH   2   8
BRANCH   3  23
ATOM     23  C   UNL A   1     -20.937   1.104  27.804  0.00  0.00    +0.047 C 
ATOM     24  C   UNL A   1     -20.047  -0.108  28.324  0.00  0.00    +0.007 C 
ENDBRANCH   3  23
BRANCH   7  25
ATOM     25  C   UNL A   1     -24.855  -1.012  30.143  0.00  0.00    +0.080 C 
BRANCH  25  26
ATOM     26  C   UNL A   1     -24.973  -2.505  29.788  0.00  0.00    -0.015 C 
ATOM     27  C   UNL A   1     -23.906  -3.173  29.146  0.00  0.00    -0.004 C 
ATOM     28  C   UNL A   1     -23.989  -4.549  28.853  0.00  0.00    -0.000 C 
ATOM     29  C   UNL A   1     -25.137  -5.280  29.205  0.00  0.00    -0.000 C 
ATOM     30  C   UNL A   1     -26.232  -4.611  29.784  0.00  0.00    -0.000 C 
ATOM     31  C   UNL A   1     -26.155  -3.232  30.065  0.00  0.00    -0.004 C 
ENDBRANCH  25  26
BRANCH  25  32
ATOM     32  C   UNL A   1     -25.387  -0.679  31.571  0.00  0.00    +0.082 C 
ATOM     33  C   UNL A   1     -25.189   0.773  32.028  0.00  0.00    +0.020 C 
ATOM     34  C   UNL A   1     -25.336   0.684  33.544  0.00  0.00    +0.020 C 
ATOM     35  C   UNL A   1     -24.829  -0.715  33.905  0.00  0.00    +0.089 C 
ATOM     36  N   UNL A   1     -24.758  -1.481  32.646  0.00  0.00    -0.219 NA
ENDBRANCH  25  32
ENDBRANCH   7  25
BRANCH   1  37
ATOM     37  N   UNL A   1     -26.755   0.341  28.626  0.00  0.00    -0.211 NA
BRANCH  37  38
ATOM     38  C   UNL A   1     -27.855  -0.172  29.472  0.00  0.00    +0.072 C 
ATOM     39  C   UNL A   1     -28.136  -1.538  29.671  0.00  0.00    +0.017 C 
ATOM     40  C   UNL A   1     -29.711   0.296  30.929  0.00  0.00    +0.075 C 
ATOM     41  C   UNL A   1     -29.875  -1.041  31.213  0.00  0.00    +0.017 C 
ATOM     42  C   UNL A   1     -28.690   0.731  30.088  0.00  0.00    +0.033 C 
ATOM     43  C   UNL A   1     -29.106  -1.971  30.541  0.00  0.00    +0.003 C 
BRANCH  40  45
ATOM     44  C   UNL A   1     -31.103   1.293  32.891  0.00  0.00    +0.246 C 
ATOM     45  N   UNL A   1     -30.706   1.132  31.645  0.00  0.00    -0.179 NA
ATOM     46  O   UNL A   1     -30.340   1.115  33.802  0.00  0.00    -0.273 OA
BRANCH  44  47
ATOM     47  C   UNL A   1     -32.603   1.548  33.069  0.00  0.00    +0.087 C 
ATOM     48  C   UNL A   1     -33.094   1.318  34.463  0.00  0.00    +0.010 C 
ENDBRANCH  44  47
ENDBRANCH  40  45
ENDBRANCH  37  38
ENDBRANCH   1  37
TORSDOF 13
