REMARK  Name = outputs/IAG933/test6/raw/output_2594_IAG933_linker_design_.xyz
REMARK  14 active torsions:
REMARK  status: ('A' for Active; 'I' for Inactive)
REMARK    1  A    between atoms: C_1  and  C_2
REMARK    2  A    between atoms: C_1  and  C_8
REMARK    3  A    between atoms: C_1  and  C_41
REMARK    4  A    between atoms: C_13  and  N_28
REMARK    5  A    between atoms: C_14  and  C_15
REMARK    6  A    between atoms: C_21  and  O_22
REMARK    7  A    between atoms: O_22  and  C_23
REMARK    8  A    between atoms: C_23  and  C_24
REMARK    9  A    between atoms: C_31  and  C_44
REMARK   10  A    between atoms: C_32  and  C_44
REMARK   11  A    between atoms: C_32  and  C_45
REMARK   12  A    between atoms: C_35  and  C_41
REMARK   13  A    between atoms: C_36  and  C_38
REMARK   14  A    between atoms: C_41  and  C_45
REMARK                            x       y       z     vdW  Elec       q    Type
REMARK                         _______ _______ _______ _____ _____    ______ ____
ROOT
ATOM      1  N   UNL A   1     -24.553   1.355  27.200  0.00  0.00    -0.286 N 
ATOM      2  C   UNL A   1     -23.209   1.491  26.919  0.00  0.00    +0.161 A 
ATOM      3  C   UNL A   1     -22.534   1.788  25.672  0.00  0.00    +0.392 C 
ATOM      4  C   UNL A   1     -24.471   0.722  28.520  0.00  0.00    +0.124 A 
ATOM      5  C   UNL A   1     -22.464   1.067  27.952  0.00  0.00    +0.120 A 
ATOM      6  C   UNL A   1     -20.920   0.806  27.897  0.00  0.00    +0.248 C 
ATOM      7  O   UNL A   1     -20.504   1.167  26.625  0.00  0.00    -0.160 OA
ATOM      8  O   UNL A   1     -21.216   1.651  25.610  0.00  0.00    -0.289 OA
ATOM      9  N   UNL A   1     -23.168   0.685  29.044  0.00  0.00    -0.232 NA
ATOM     10  O   UNL A   1     -23.267   2.143  24.612  0.00  0.00    -0.240 OA
ENDROOT
BRANCH   1  11
ATOM     11  C   UNL A   1     -25.688   1.614  26.461  0.00  0.00    +0.103 C 
ATOM     12  C   UNL A   1     -26.250   2.920  26.395  0.00  0.00    +0.093 C 
ATOM     13  C   UNL A   1     -27.438   3.091  25.645  0.00  0.00    +0.108 C 
ATOM     14  N   UNL A   1     -28.075   2.089  25.003  0.00  0.00    -0.208 NA
ATOM     15  C   UNL A   1     -27.543   0.849  25.079  0.00  0.00    +0.255 C 
ATOM     16  C   UNL A   1     -26.354   0.576  25.777  0.00  0.00    +0.209 C 
ATOM     17  F   UNL A   1     -25.860  -0.681  25.795  0.00  0.00    -0.198 F 
BRANCH  12  18
ATOM     18  C   UNL A   1     -25.642   4.093  27.123  0.00  0.00    +0.268 C 
ATOM     19  N   UNL A   1     -25.614   5.252  26.449  0.00  0.00    -0.200 NA
ATOM     20  C   UNL A   1     -25.026   6.479  26.963  0.00  0.00    +0.139 C 
ATOM     21  O   UNL A   1     -25.143   3.966  28.243  0.00  0.00    -0.268 OA
ENDBRANCH  12  18
BRANCH  15  22
ATOM     22  O   UNL A   1     -28.193  -0.208  24.477  0.00  0.00    -0.456 OA
BRANCH  22  23
ATOM     23  C   UNL A   1     -29.460   0.005  23.866  0.00  0.00    +0.243 C 
BRANCH  23  24
ATOM     24  C   UNL A   1     -30.065  -1.377  23.573  0.00  0.00    +0.229 C 
ATOM     25  O   UNL A   1     -30.729  -1.878  24.721  0.00  0.00    -0.216 OA
ENDBRANCH  23  24
ENDBRANCH  22  23
ENDBRANCH  15  22
ENDBRANCH   1  11
BRANCH   6  27
ATOM     26  N   UNL A   1     -21.402  -1.252  29.036  0.00  0.00    -0.148 NA
ATOM     27  C   UNL A   1     -20.649  -0.584  28.167  0.00  0.00    +0.136 C 
ENDBRANCH   6  27
BRANCH   4  28
ATOM     28  C   UNL A   1     -25.691  -0.028  29.165  0.00  0.00    +0.063 C 
BRANCH  28  29
ATOM     29  C   UNL A   1     -24.855  -1.012  30.143  0.00  0.00    +0.045 C 
BRANCH  29  30
ATOM     30  C   UNL A   1     -24.973  -2.505  29.788  0.00  0.00    -0.021 C 
ATOM     31  C   UNL A   1     -23.906  -3.173  29.146  0.00  0.00    -0.004 C 
ATOM     32  C   UNL A   1     -23.989  -4.549  28.853  0.00  0.00    -0.000 C 
ATOM     33  C   UNL A   1     -25.137  -5.280  29.205  0.00  0.00    -0.000 C 
ATOM     34  C   UNL A   1     -26.232  -4.611  29.784  0.00  0.00    -0.000 C 
ATOM     35  C   UNL A   1     -26.155  -3.232  30.065  0.00  0.00    -0.004 C 
ENDBRANCH  29  30
BRANCH  29  36
ATOM     36  C   UNL A   1     -25.387  -0.679  31.571  0.00  0.00    +0.077 C 
ATOM     37  C   UNL A   1     -25.189   0.773  32.028  0.00  0.00    +0.019 C 
ATOM     38  C   UNL A   1     -25.336   0.684  33.544  0.00  0.00    +0.020 C 
ATOM     39  C   UNL A   1     -24.829  -0.715  33.905  0.00  0.00    +0.089 C 
ATOM     40  N   UNL A   1     -24.758  -1.481  32.646  0.00  0.00    -0.219 NA
ENDBRANCH  29  36
ENDBRANCH  28  29
BRANCH  28  41
ATOM     41  C   UNL A   1     -26.940   1.046  29.289  0.00  0.00    +0.008 C 
BRANCH  41  42
ATOM     42  C   UNL A   1     -27.614   1.774  30.514  0.00  0.00    +0.001 C 
BRANCH  42  43
ATOM     43  C   UNL A   1     -28.100   3.140  30.118  0.00  0.00    +0.000 C 
BRANCH  43  45
ATOM     44  C   UNL A   1     -28.489   4.264  32.364  0.00  0.00    +0.000 C 
ATOM     45  C   UNL A   1     -27.631   4.247  31.066  0.00  0.00    +0.000 C 
ATOM     46  C   UNL A   1     -26.151   4.431  31.521  0.00  0.00    +0.000 C 
ENDBRANCH  43  45
ENDBRANCH  42  43
ENDBRANCH  41  42
ENDBRANCH  28  41
ENDBRANCH   4  28
TORSDOF 14
