MODEL 2594
MODEL 1
REMARK VINA RESULT:    -5.044      0.000      0.000
REMARK INTER + INTRA:          -5.483
REMARK INTER:                  -5.339
REMARK INTRA:                  -0.144
REMARK UNBOUND:                -0.144
REMARK  Name = No_2594-gen_results/8p0m/2024-11-27-11-27-31/
REMARK  1 active torsions:
REMARK  status: ('A' for Active; 'I' for Inactive)
REMARK    1  A    between atoms: C_3  and  C_9
REMARK                            x       y       z     vdW  Elec       q    Type
REMARK                         _______ _______ _______ _____ _____    ______ ____
ROOT
ATOM      1  C   UNL A   1     -24.006  -3.997  28.881  0.00  0.00    +0.041 A 
ATOM      2  C   UNL A   1     -24.156  -2.857  29.254  0.00  0.00    +0.060 A 
ATOM      3  C   UNL A   1     -25.335  -2.452  29.871  0.00  0.00    +0.011 A 
ATOM      4  C   UNL A   1     -26.433  -3.368  30.044  0.00  0.00    +0.003 A 
ATOM      5  C   UNL A   1     -26.183  -4.660  29.562  0.00  0.00    +0.030 A 
ATOM      6  C   UNL A   1     -25.057  -4.987  28.970  0.00  0.00    +0.141 A 
ATOM      7 CL   UNL A   1     -22.977  -1.626  29.087  0.00  0.00    -0.082 Cl
ATOM      8  F   UNL A   1     -24.898  -6.231  28.544  0.00  0.00    -0.204 F 
ENDROOT
BRANCH   3   9
ATOM      9  C   UNL A   1     -25.619  -1.039  30.404  0.00  0.00    +0.001 C 
ATOM     10  C   UNL A   1     -25.539  -0.708  31.640  0.00  0.00    +0.000 C 
ENDBRANCH   3   9
TORSDOF 1
ENDMDL
ENDMDL
