REMARK  Name = No_2595-gen_results/8p0m/2024-11-27-11-27-31/
REMARK  1 active torsions:
REMARK  status: ('A' for Active; 'I' for Inactive)
REMARK    1  A    between atoms: C_2  and  C_3
REMARK                            x       y       z     vdW  Elec       q    Type
REMARK                         _______ _______ _______ _____ _____    ______ ____
ROOT
ATOM      1  C   UNL A   1     -27.602   1.013  30.297  0.00  0.00    -0.013 C 
ATOM      2  C   UNL A   1     -27.582   0.354  31.311  0.00  0.00    -0.029 C 
ATOM      3  C   UNL A   1     -27.890  -1.095  31.220  0.00  0.00    +0.030 C 
ENDROOT
BRANCH   1   5
ATOM      4 CL   UNL A   1     -28.149  -0.820  28.908  0.00  0.00    -0.109 Cl
ATOM      5  C   UNL A   1     -27.834   0.496  29.060  0.00  0.00    +0.120 C 
ENDBRANCH   1   5
TORSDOF 1
