MODEL 2595
MODEL 1
REMARK VINA RESULT:    -3.356      0.000      0.000
REMARK INTER + INTRA:          -3.623
REMARK INTER:                  -3.552
REMARK INTRA:                  -0.071
REMARK UNBOUND:                -0.071
REMARK  Name = No_2595-gen_results/8p0m/2024-11-27-11-27-31/
REMARK  1 active torsions:
REMARK  status: ('A' for Active; 'I' for Inactive)
REMARK    1  A    between atoms: C_2  and  C_3
REMARK                            x       y       z     vdW  Elec       q    Type
REMARK                         _______ _______ _______ _____ _____    ______ ____
ROOT
ATOM      1  C   UNL A   1     -24.154  -4.531  28.649  0.00  0.00    -0.013 C 
ATOM      2  C   UNL A   1     -24.966  -5.305  29.102  0.00  0.00    -0.029 C 
ATOM      3  C   UNL A   1     -26.227  -4.760  29.664  0.00  0.00    +0.030 C 
ENDROOT
BRANCH   1   5
ATOM      4 CL   UNL A   1     -23.423  -2.322  29.066  0.00  0.00    -0.109 Cl
ATOM      5  C   UNL A   1     -24.349  -3.187  28.569  0.00  0.00    +0.120 C 
ENDBRANCH   1   5
TORSDOF 1
ENDMDL
ENDMDL
