MODEL 2599
MODEL 1
REMARK VINA RESULT:    -4.669      0.000      0.000
REMARK INTER + INTRA:          -4.669
REMARK INTER:                  -4.669
REMARK INTRA:                   0.000
REMARK UNBOUND:                 0.000
REMARK  Name = No_2599-gen_results/8p0m/2024-11-27-11-27-31/
REMARK  0 active torsions:
REMARK  status: ('A' for Active; 'I' for Inactive)
REMARK                            x       y       z     vdW  Elec       q    Type
REMARK                         _______ _______ _______ _____ _____    ______ ____
ROOT
ATOM      1  C   UNL A   1     -26.137  -4.530  29.625  0.00  0.00    +0.030 A 
ATOM      2  C   UNL A   1     -26.164  -3.368  29.960  0.00  0.00    +0.014 A 
ATOM      3  C   UNL A   1     -25.147  -2.459  29.675  0.00  0.00    +0.058 A 
ATOM      4  C   UNL A   1     -23.956  -2.924  28.989  0.00  0.00    +0.014 A 
ATOM      5  C   UNL A   1     -23.959  -4.273  28.639  0.00  0.00    +0.030 A 
ATOM      6  C   UNL A   1     -24.961  -5.059  28.935  0.00  0.00    +0.140 A 
ATOM      7 CL   UNL A   1     -25.044  -0.762  29.968  0.00  0.00    -0.082 Cl
ATOM      8  F   UNL A   1     -24.902  -6.362  28.592  0.00  0.00    -0.204 F 
ENDROOT
TORSDOF 0
ENDMDL
ENDMDL
