MODEL 259
MODEL 1
REMARK VINA RESULT:    -7.835      0.000      0.000
REMARK INTER + INTRA:         -10.530
REMARK INTER:                  -9.667
REMARK INTRA:                  -0.862
REMARK UNBOUND:                -0.862
REMARK  Name = No_259-gen_results/8p0m/2024-11-27-11-27-31/
REMARK  4 active torsions:
REMARK  status: ('A' for Active; 'I' for Inactive)
REMARK    1  A    between atoms: N_1  and  C_2
REMARK    2  A    between atoms: C_3  and  C_11
REMARK    3  A    between atoms: C_11  and  N_12
REMARK    4  A    between atoms: C_19  and  C_20
REMARK                            x       y       z     vdW  Elec       q    Type
REMARK                         _______ _______ _______ _____ _____    ______ ____
ROOT
ATOM      1  C   UNL A   1     -25.661  -1.929  30.198  0.00  0.00    +0.084 A 
ATOM      2  C   UNL A   1     -24.487  -2.048  29.536  0.00  0.00    +0.028 A 
ATOM      3  C   UNL A   1     -23.948  -3.294  28.911  0.00  0.00    +0.029 A 
ATOM      4  C   UNL A   1     -24.825  -4.390  28.990  0.00  0.00    +0.140 A 
ATOM      5  C   UNL A   1     -26.089  -4.254  29.606  0.00  0.00    +0.031 A 
ATOM      6  C   UNL A   1     -26.543  -3.076  30.132  0.00  0.00    +0.021 A 
ATOM      7  F   UNL A   1     -24.436  -5.519  28.454  0.00  0.00    -0.204 F 
ENDROOT
BRANCH   1   8
ATOM      8  N   UNL A   1     -26.003  -0.976  30.521  0.00  0.00    -0.203 NA
ATOM      9  C   UNL A   1     -25.891  -0.655  31.905  0.00  0.00    +0.315 C 
ATOM     10  N   UNL A   1     -26.389   0.515  32.474  0.00  0.00    -0.077 NA
ATOM     11  F   UNL A   1     -25.046  -1.231  32.788  0.00  0.00    -0.163 F 
ENDBRANCH   1   8
BRANCH   2  12
ATOM     12  C   UNL A   1     -23.491  -0.993  29.399  0.00  0.00    +0.163 C 
ATOM     13 CL   UNL A   1     -22.494  -0.800  30.758  0.00  0.00    -0.092 Cl
BRANCH  12  14
ATOM     14  N   UNL A   1     -23.470  -0.075  28.577  0.00  0.00    -0.258 NA
ATOM     15  C   UNL A   1     -22.516   0.751  28.436  0.00  0.00    +0.074 C 
ATOM     16  C   UNL A   1     -24.360  -0.028  27.443  0.00  0.00    +0.074 C 
ATOM     17  C   UNL A   1     -24.208   0.740  26.388  0.00  0.00    +0.023 C 
ATOM     18  C   UNL A   1     -22.229   1.657  27.357  0.00  0.00    +0.023 C 
ATOM     19  C   UNL A   1     -23.225   1.678  26.431  0.00  0.00    +0.070 C 
BRANCH  19  20
ATOM     20  C   UNL A   1     -22.996   2.618  25.310  0.00  0.00    +0.319 C 
ATOM     21  F   UNL A   1     -22.303   2.794  24.552  0.00  0.00    -0.198 F 
ATOM     22  F   UNL A   1     -23.859   3.817  25.507  0.00  0.00    -0.198 F 
ENDBRANCH  19  20
ENDBRANCH  12  14
ENDBRANCH   2  12
TORSDOF 4
ENDMDL
ENDMDL
