MODEL 2600
MODEL 1
REMARK VINA RESULT:    -5.015      0.000      0.000
REMARK INTER + INTRA:          -5.726
REMARK INTER:                  -5.602
REMARK INTRA:                  -0.124
REMARK UNBOUND:                -0.124
REMARK  Name = No_2600-gen_results/8p0m/2024-11-27-11-27-31/
REMARK  2 active torsions:
REMARK  status: ('A' for Active; 'I' for Inactive)
REMARK    1  A    between atoms: C_2  and  C_7
REMARK    2  A    between atoms: C_7  and  N_8
REMARK                            x       y       z     vdW  Elec       q    Type
REMARK                         _______ _______ _______ _____ _____    ______ ____
ROOT
ATOM      1  C   UNL A   1     -23.912  -3.182  28.684  0.00  0.00    -0.002 A 
ATOM      2  C   UNL A   1     -24.718  -2.744  29.202  0.00  0.00    +0.002 A 
ATOM      3  C   UNL A   1     -23.963  -4.689  28.557  0.00  0.00    -0.000 A 
ATOM      4  C   UNL A   1     -25.113  -5.380  28.992  0.00  0.00    -0.000 A 
ATOM      5  C   UNL A   1     -26.024  -3.219  29.713  0.00  0.00    -0.002 A 
ATOM      6  C   UNL A   1     -26.110  -4.600  29.607  0.00  0.00    -0.000 A 
ENDROOT
BRANCH   2   7
ATOM      7  C   UNL A   1     -24.697  -1.144  29.341  0.00  0.00    +0.151 C 
BRANCH   7   8
ATOM      8  N   UNL A   1     -23.726  -0.483  28.809  0.00  0.00    -0.269 NA
ATOM      9  C   UNL A   1     -23.659   0.460  28.361  0.00  0.00    +0.068 C 
ATOM     10  C   UNL A   1     -22.331   1.047  27.817  0.00  0.00    +0.053 C 
ENDBRANCH   7   8
ENDBRANCH   2   7
TORSDOF 2
ENDMDL
ENDMDL
