MODEL 2602
MODEL 1
REMARK VINA RESULT:    -9.262      0.000      0.000
REMARK INTER + INTRA:         -15.177
REMARK INTER:                 -13.594
REMARK INTRA:                  -1.583
REMARK UNBOUND:                -1.583
REMARK  Name = No_2602-gen_results/8p0m/2024-11-27-11-27-31/
REMARK  8 active torsions:
REMARK  status: ('A' for Active; 'I' for Inactive)
REMARK    1  A    between atoms: C_3  and  C_4
REMARK    2  A    between atoms: C_6  and  O_14
REMARK    3  A    between atoms: O_14  and  C_15
REMARK    4  A    between atoms: C_15  and  C_16
REMARK    5  A    between atoms: C_18  and  C_26
REMARK    6  A    between atoms: C_20  and  C_22
REMARK    7  A    between atoms: C_26  and  O_28
REMARK    8  A    between atoms: O_28  and  C_29
REMARK                            x       y       z     vdW  Elec       q    Type
REMARK                         _______ _______ _______ _____ _____    ______ ____
ROOT
ATOM      1  C   UNL A   1     -25.831  -0.023  25.722  0.00  0.00    +0.021 A 
ATOM      2  C   UNL A   1     -25.953  -0.215  26.877  0.00  0.00    +0.006 A 
ATOM      3  C   UNL A   1     -24.936   0.126  27.838  0.00  0.00    +0.076 A 
ATOM      4  C   UNL A   1     -23.891   0.953  27.429  0.00  0.00    +0.010 A 
ATOM      5  C   UNL A   1     -23.828   1.363  26.081  0.00  0.00    +0.071 A 
ATOM      6  C   UNL A   1     -24.757   0.875  25.196  0.00  0.00    +0.003 A 
ENDROOT
BRANCH   5   7
ATOM      7  C   UNL A   1     -22.793   2.313  25.607  0.00  0.00    +0.419 C 
ATOM      8  F   UNL A   1     -23.136   3.414  25.590  0.00  0.00    -0.166 F 
ATOM      9  F   UNL A   1     -22.474   1.913  24.280  0.00  0.00    -0.166 F 
ATOM     10  F   UNL A   1     -21.690   2.039  26.371  0.00  0.00    -0.166 F 
ENDBRANCH   5   7
BRANCH   3  11
ATOM     11  C   UNL A   1     -24.982  -0.269  29.270  0.00  0.00    +0.346 C 
ATOM     12  O   UNL A   1     -25.472   0.262  30.069  0.00  0.00    -0.244 OA
BRANCH  11  13
ATOM     13  O   UNL A   1     -24.075  -1.320  29.593  0.00  0.00    -0.421 OA
BRANCH  13  14
ATOM     14  C   UNL A   1     -24.440  -2.537  29.336  0.00  0.00    +0.149 A 
ATOM     15  C   UNL A   1     -23.806  -3.384  28.747  0.00  0.00    +0.038 A 
ATOM     16  C   UNL A   1     -24.159  -4.689  28.612  0.00  0.00    +0.003 A 
ATOM     17  C   UNL A   1     -25.446  -5.103  29.106  0.00  0.00    +0.000 A 
ATOM     18  C   UNL A   1     -26.229  -4.159  29.785  0.00  0.00    +0.003 A 
ATOM     19  C   UNL A   1     -25.787  -2.813  29.916  0.00  0.00    +0.038 A 
ENDBRANCH  13  14
ENDBRANCH  11  13
ENDBRANCH   3  11
BRANCH   1  20
ATOM     20  C   UNL A   1     -26.689  -0.511  24.771  0.00  0.00    +0.232 C 
BRANCH  20  21
ATOM     21  O   UNL A   1     -27.426   0.492  23.990  0.00  0.00    -0.471 OA
BRANCH  21  24
ATOM     22  C   UNL A   1     -30.928   0.836  23.028  0.00  0.00    +0.003 A 
ATOM     23  C   UNL A   1     -29.558   1.157  23.261  0.00  0.00    +0.037 A 
ATOM     24  C   UNL A   1     -28.686   0.193  23.763  0.00  0.00    +0.139 A 
ATOM     25  C   UNL A   1     -29.179  -1.124  23.876  0.00  0.00    +0.037 A 
ATOM     26  C   UNL A   1     -30.484  -1.447  23.638  0.00  0.00    +0.003 A 
ATOM     27  C   UNL A   1     -31.401  -0.443  23.148  0.00  0.00    +0.000 A 
BRANCH  22  30
ATOM     28  C   UNL A   1     -32.911   2.914  20.758  0.00  0.00    +0.011 A 
ATOM     29  C   UNL A   1     -32.246   1.978  21.140  0.00  0.00    +0.001 A 
ATOM     30  C   UNL A   1     -31.763   1.924  22.442  0.00  0.00    +0.000 A 
ATOM     31  C   UNL A   1     -33.068   4.133  21.546  0.00  0.00    +0.058 A 
ATOM     32  C   UNL A   1     -32.717   4.131  22.881  0.00  0.00    +0.011 A 
ATOM     33  C   UNL A   1     -31.985   3.035  23.357  0.00  0.00    +0.001 A 
ATOM     34 CL   UNL A   1     -33.952   5.467  20.959  0.00  0.00    -0.082 Cl
ENDBRANCH  22  30
ENDBRANCH  21  24
ENDBRANCH  20  21
ENDBRANCH   1  20
TORSDOF 8
ENDMDL
ENDMDL
