MODEL 2605
MODEL 1
REMARK VINA RESULT:    -7.269      0.000      0.000
REMARK INTER + INTRA:          -9.543
REMARK INTER:                  -8.969
REMARK INTRA:                  -0.574
REMARK UNBOUND:                -0.574
REMARK  Name = No_2605-gen_results/8p0m/2024-11-27-11-27-31/
REMARK  4 active torsions:
REMARK  status: ('A' for Active; 'I' for Inactive)
REMARK    1  A    between atoms: C_5  and  C_11
REMARK    2  A    between atoms: C_8  and  O_14
REMARK    3  A    between atoms: C_10  and  C_21
REMARK    4  A    between atoms: O_14  and  C_15
REMARK                            x       y       z     vdW  Elec       q    Type
REMARK                         _______ _______ _______ _____ _____    ______ ____
ROOT
ATOM      1  C   UNL A   1     -25.877  -0.420  26.771  0.00  0.00    +0.037 A 
ATOM      2  C   UNL A   1     -25.251  -0.494  27.803  0.00  0.00    +0.003 A 
ATOM      3  C   UNL A   1     -24.218   0.326  28.124  0.00  0.00    +0.004 A 
ATOM      4  C   UNL A   1     -23.443   0.250  29.382  0.00  0.00    +0.006 A 
ATOM      5  C   UNL A   1     -23.839  -0.752  30.328  0.00  0.00    +0.080 A 
ATOM      6  C   UNL A   1     -24.963  -1.537  29.989  0.00  0.00    +0.007 A 
ATOM      7  C   UNL A   1     -25.634  -1.410  28.800  0.00  0.00    +0.000 A 
ATOM      8  C   UNL A   1     -25.237   0.067  25.647  0.00  0.00    +0.145 A 
ATOM      9  C   UNL A   1     -24.131   0.932  25.806  0.00  0.00    +0.041 A 
ATOM     10  C   UNL A   1     -23.507   0.962  27.043  0.00  0.00    +0.074 A 
ENDROOT
BRANCH  10  11
ATOM     11  C   UNL A   1     -22.276   1.718  27.268  0.00  0.00    +0.419 C 
ATOM     12  F   UNL A   1     -22.358   2.601  27.979  0.00  0.00    -0.166 F 
ATOM     13  F   UNL A   1     -21.969   2.208  25.988  0.00  0.00    -0.166 F 
ATOM     14  F   UNL A   1     -21.340   0.802  27.577  0.00  0.00    -0.166 F 
ENDBRANCH  10  11
BRANCH   5  15
ATOM     15  C   UNL A   1     -23.305  -0.836  31.663  0.00  0.00    +0.388 C 
ATOM     16  O   UNL A   1     -22.319  -0.927  31.970  0.00  0.00    -0.241 OA
ATOM     17  O   UNL A   1     -24.358  -1.082  32.563  0.00  0.00    -0.241 OA
ENDBRANCH   5  15
BRANCH   8  18
ATOM     18  O   UNL A   1     -25.940   0.191  24.451  0.00  0.00    -0.454 OA
BRANCH  18  19
ATOM     19  C   UNL A   1     -27.187   0.712  24.460  0.00  0.00    +0.145 A 
ATOM     20  C   UNL A   1     -28.138  -0.176  23.988  0.00  0.00    +0.037 A 
ATOM     21  C   UNL A   1     -29.396   0.306  23.594  0.00  0.00    +0.003 A 
ATOM     22  C   UNL A   1     -29.718   1.689  23.813  0.00  0.00    +0.000 A 
ATOM     23  C   UNL A   1     -27.521   2.063  24.443  0.00  0.00    +0.037 A 
ATOM     24  C   UNL A   1     -28.715   2.518  24.151  0.00  0.00    +0.003 A 
ENDBRANCH  18  19
ENDBRANCH   8  18
TORSDOF 4
ENDMDL
ENDMDL
