MODEL 2606
MODEL 1
REMARK VINA RESULT:    -5.956      0.000      0.000
REMARK INTER + INTRA:          -6.925
REMARK INTER:                  -6.652
REMARK INTRA:                  -0.273
REMARK UNBOUND:                -0.273
REMARK  Name = No_2606-gen_results/8p0m/2024-11-27-11-27-31/
REMARK  2 active torsions:
REMARK  status: ('A' for Active; 'I' for Inactive)
REMARK    1  A    between atoms: C_2  and  C_11
REMARK    2  A    between atoms: C_3  and  C_7
REMARK                            x       y       z     vdW  Elec       q    Type
REMARK                         _______ _______ _______ _____ _____    ______ ____
ROOT
ATOM      1  C   UNL A   1     -28.427 -11.754  31.201  0.00  0.00    +0.010 A 
ATOM      2  C   UNL A   1     -28.242 -11.535  32.215  0.00  0.00    +0.080 A 
ATOM      3  C   UNL A   1     -29.333 -10.926  30.504  0.00  0.00    +0.072 A 
ATOM      4  C   UNL A   1     -29.976  -9.867  31.116  0.00  0.00    +0.004 A 
ATOM      5  C   UNL A   1     -28.784 -10.480  33.094  0.00  0.00    +0.007 A 
ATOM      6  C   UNL A   1     -29.658  -9.664  32.465  0.00  0.00    +0.000 A 
ENDROOT
BRANCH   3   7
ATOM      7  C   UNL A   1     -29.460 -11.218  29.065  0.00  0.00    +0.419 C 
ATOM      8  F   UNL A   1     -30.146 -10.403  28.427  0.00  0.00    -0.166 F 
ATOM      9  F   UNL A   1     -30.289 -12.411  28.886  0.00  0.00    -0.166 F 
ATOM     10  F   UNL A   1     -28.438 -11.816  28.459  0.00  0.00    -0.166 F 
ENDBRANCH   3   7
BRANCH   2  11
ATOM     11  C   UNL A   1     -27.144 -12.367  33.067  0.00  0.00    +0.388 C 
ATOM     12  O   UNL A   1     -26.375 -12.858  32.464  0.00  0.00    -0.241 OA
ATOM     13  O   UNL A   1     -27.194 -12.351  34.388  0.00  0.00    -0.241 OA
ENDBRANCH   2  11
TORSDOF 2
ENDMDL
ENDMDL
