MODEL 2607
MODEL 1
REMARK VINA RESULT:    -7.759      0.000      0.000
REMARK INTER + INTRA:         -10.943
REMARK INTER:                 -10.027
REMARK INTRA:                  -0.916
REMARK UNBOUND:                -0.916
REMARK  Name = No_2607-gen_results/8p0m/2024-11-27-11-27-31/
REMARK  5 active torsions:
REMARK  status: ('A' for Active; 'I' for Inactive)
REMARK    1  A    between atoms: C_1  and  C_2
REMARK    2  A    between atoms: C_1  and  N_8
REMARK    3  A    between atoms: C_5  and  C_12
REMARK    4  A    between atoms: C_9  and  C_11
REMARK    5  A    between atoms: C_18  and  C_20
REMARK                            x       y       z     vdW  Elec       q    Type
REMARK                         _______ _______ _______ _____ _____    ______ ____
ROOT
ATOM      1  N   UNL A   1     -11.781   3.195  35.373  0.00  0.00    -0.197 NA
ATOM      2  C   UNL A   1     -10.842   2.829  35.425  0.00  0.00    +0.265 C 
ATOM      3  O   UNL A   1      -9.751   3.448  35.725  0.00  0.00    -0.268 OA
ENDROOT
BRANCH   2   4
ATOM      4  C   UNL A   1     -10.576   1.332  35.095  0.00  0.00    +0.055 A 
ATOM      5  C   UNL A   1      -9.411   1.059  34.701  0.00  0.00    +0.005 A 
ATOM      6  C   UNL A   1      -8.722   0.320  35.074  0.00  0.00    +0.000 A 
ATOM      7  C   UNL A   1      -8.950  -0.344  36.364  0.00  0.00    +0.000 A 
ATOM      8  C   UNL A   1     -10.284  -0.389  36.733  0.00  0.00    +0.000 A 
ATOM      9  C   UNL A   1     -11.057   0.712  36.262  0.00  0.00    +0.005 A 
BRANCH   8  10
ATOM     10  C   UNL A   1     -10.714  -1.130  37.942  0.00  0.00    +0.000 A 
ATOM     11  C   UNL A   1     -11.628  -2.090  37.807  0.00  0.00    +0.000 A 
ATOM     12  C   UNL A   1     -10.290  -0.794  39.235  0.00  0.00    +0.000 A 
ATOM     13  C   UNL A   1     -10.863  -1.285  40.378  0.00  0.00    +0.000 A 
ATOM     14  C   UNL A   1     -12.238  -2.689  38.948  0.00  0.00    +0.000 A 
ATOM     15  C   UNL A   1     -11.782  -2.324  40.254  0.00  0.00    +0.000 A 
ENDBRANCH   8  10
ENDBRANCH   2   4
BRANCH   1  16
ATOM     16  C   UNL A   1     -13.090   2.857  35.007  0.00  0.00    +0.142 C 
BRANCH  16  17
ATOM     17  C   UNL A   1     -13.955   3.080  35.822  0.00  0.00    -0.001 A 
ATOM     18  C   UNL A   1     -15.237   3.445  35.428  0.00  0.00    -0.002 A 
ATOM     19  C   UNL A   1     -16.382   3.756  36.332  0.00  0.00    +0.004 A 
ATOM     20  C   UNL A   1     -16.168   3.500  37.718  0.00  0.00    +0.057 A 
ATOM     21  C   UNL A   1     -14.878   3.073  38.091  0.00  0.00    +0.004 A 
ATOM     22  C   UNL A   1     -13.870   2.861  37.232  0.00  0.00    -0.002 A 
BRANCH  20  23
ATOM     23  C   UNL A   1     -17.273   3.749  38.616  0.00  0.00    +0.284 C 
ATOM     24  N   UNL A   1     -17.559   2.876  39.596  0.00  0.00    -0.084 NA
ATOM     25  O   UNL A   1     -17.803   4.902  38.600  0.00  0.00    -0.267 OA
ENDBRANCH  20  23
ENDBRANCH  16  17
ENDBRANCH   1  16
TORSDOF 5
ENDMDL
ENDMDL
