MODEL 2609
MODEL 1
REMARK VINA RESULT:    -4.391      0.000      0.000
REMARK INTER + INTRA:          -5.141
REMARK INTER:                  -4.905
REMARK INTRA:                  -0.236
REMARK UNBOUND:                -0.236
REMARK  Name = No_2609-gen_results/8p0m/2024-11-27-11-27-31/
REMARK  2 active torsions:
REMARK  status: ('A' for Active; 'I' for Inactive)
REMARK    1  A    between atoms: C_3  and  C_4
REMARK    2  A    between atoms: C_5  and  C_6
REMARK                            x       y       z     vdW  Elec       q    Type
REMARK                         _______ _______ _______ _____ _____    ______ ____
ROOT
ATOM      1  C   UNL A   1      -9.426  -9.150  20.033  0.00  0.00    +0.002 C 
ATOM      2  C   UNL A   1     -10.152  -9.514  18.972  0.00  0.00    +0.000 C 
ENDROOT
BRANCH   1   5
ATOM      3  F   UNL A   1      -7.117  -7.882  19.727  0.00  0.00    -0.202 F 
ATOM      4  C   UNL A   1      -6.956  -8.941  20.133  0.00  0.00    +0.167 C 
ATOM      5  C   UNL A   1      -8.023  -9.635  20.324  0.00  0.00    +0.032 C 
ENDBRANCH   1   5
BRANCH   2   6
ATOM      6  C   UNL A   1      -9.616 -10.537  18.157  0.00  0.00    +0.000 C 
ATOM      7  C   UNL A   1      -9.104 -10.413  16.908  0.00  0.00    +0.000 C 
ENDBRANCH   2   6
TORSDOF 2
ENDMDL
ENDMDL
