MODEL 260
MODEL 1
REMARK VINA RESULT:    -6.967      0.000      0.000
REMARK INTER + INTRA:         -10.346
REMARK INTER:                  -9.410
REMARK INTRA:                  -0.935
REMARK UNBOUND:                -0.935
REMARK  Name = No_260-gen_results/8p0m/2024-11-27-11-27-31/
REMARK  6 active torsions:
REMARK  status: ('A' for Active; 'I' for Inactive)
REMARK    1  A    between atoms: C_2  and  C_15
REMARK    2  A    between atoms: C_3  and  O_13
REMARK    3  A    between atoms: C_4  and  C_5
REMARK    4  A    between atoms: C_15  and  O_17
REMARK    5  A    between atoms: O_17  and  C_18
REMARK    6  A    between atoms: C_19  and  C_20
REMARK                            x       y       z     vdW  Elec       q    Type
REMARK                         _______ _______ _______ _____ _____    ______ ____
ROOT
ATOM      1  C   UNL A   1     -24.122   0.984  30.246  0.00  0.00    +0.043 A 
ATOM      2  C   UNL A   1     -25.094   1.388  30.208  0.00  0.00    +0.079 A 
ATOM      3  C   UNL A   1     -23.970  -0.393  29.971  0.00  0.00    +0.139 A 
ATOM      4  C   UNL A   1     -25.049  -1.202  29.674  0.00  0.00    +0.034 A 
ATOM      5  C   UNL A   1     -26.409   0.838  29.907  0.00  0.00    +0.007 A 
ATOM      6  C   UNL A   1     -26.325  -0.583  29.619  0.00  0.00    +0.003 A 
ENDROOT
BRANCH   4   7
ATOM      7  C   UNL A   1     -24.934  -2.623  29.383  0.00  0.00    +0.003 A 
ATOM      8  C   UNL A   1     -24.068  -3.124  28.857  0.00  0.00    +0.000 A 
ATOM      9  C   UNL A   1     -26.088  -3.419  29.821  0.00  0.00    +0.000 A 
ATOM     10  C   UNL A   1     -26.008  -4.846  29.642  0.00  0.00    +0.000 A 
ATOM     11  C   UNL A   1     -23.930  -4.608  28.511  0.00  0.00    +0.000 A 
ATOM     12  C   UNL A   1     -24.991  -5.440  28.950  0.00  0.00    +0.000 A 
ENDBRANCH   4   7
BRANCH   3  13
ATOM     13  O   UNL A   1     -22.716  -0.956  29.981  0.00  0.00    -0.471 OA
ATOM     14  C   UNL A   1     -21.686  -0.469  29.283  0.00  0.00    +0.253 C 
ENDBRANCH   3  13
BRANCH   2  15
ATOM     15  C   UNL A   1     -25.338   2.997  30.436  0.00  0.00    +0.346 C 
ATOM     16  O   UNL A   1     -25.980   3.412  31.170  0.00  0.00    -0.244 OA
BRANCH  15  17
ATOM     17  O   UNL A   1     -25.117   3.683  29.276  0.00  0.00    -0.418 OA
BRANCH  17  18
ATOM     18  C   UNL A   1     -25.676   3.565  28.110  0.00  0.00    +0.183 C 
ATOM     19  C   UNL A   1     -24.712   2.891  27.111  0.00  0.00    +0.042 C 
BRANCH  19  20
ATOM     20  C   UNL A   1     -25.390   1.931  26.263  0.00  0.00    +0.022 A 
ATOM     21  C   UNL A   1     -24.731   0.853  25.666  0.00  0.00    +0.003 A 
ATOM     22  C   UNL A   1     -25.558  -0.072  24.974  0.00  0.00    +0.021 A 
ATOM     23  C   UNL A   1     -26.575   2.333  25.631  0.00  0.00    +0.099 A 
ATOM     24  N   UNL A   1     -27.206   1.547  24.792  0.00  0.00    -0.242 NA
ATOM     25  C   UNL A   1     -26.626   0.360  24.404  0.00  0.00    +0.099 A 
ENDBRANCH  19  20
ENDBRANCH  17  18
ENDBRANCH  15  17
ENDBRANCH   2  15
TORSDOF 6
ENDMDL
ENDMDL
