REMARK  Name = No_261-gen_results/8p0m/2024-11-27-11-27-31/
REMARK  1 active torsions:
REMARK  status: ('A' for Active; 'I' for Inactive)
REMARK    1  A    between atoms: C_4  and  C_8
REMARK                            x       y       z     vdW  Elec       q    Type
REMARK                         _______ _______ _______ _____ _____    ______ ____
ROOT
ATOM      1  C   UNL A   1     -28.016  -0.814  28.878  0.00  0.00    +0.041 A 
ATOM      2  C   UNL A   1     -28.469  -0.785  29.829  0.00  0.00    +0.060 A 
ATOM      3  C   UNL A   1     -26.504  -0.778  28.877  0.00  0.00    +0.145 A 
ATOM      4  C   UNL A   1     -25.810  -0.853  30.103  0.00  0.00    +0.099 A 
ATOM      5  C   UNL A   1     -27.991  -0.892  31.226  0.00  0.00    +0.011 A 
ATOM      6  C   UNL A   1     -26.604  -0.868  31.265  0.00  0.00    +0.007 A 
ATOM      7 CL   UNL A   1     -30.294  -0.838  29.835  0.00  0.00    -0.082 Cl
ATOM      8  F   UNL A   1     -25.782  -0.798  27.769  0.00  0.00    -0.204 F 
ENDROOT
BRANCH   4   9
ATOM      9  C   UNL A   1     -24.370  -0.821  30.139  0.00  0.00    +0.421 C 
ATOM     10  F   UNL A   1     -23.853  -1.678  30.808  0.00  0.00    -0.166 F 
ATOM     11  F   UNL A   1     -23.685  -0.196  29.323  0.00  0.00    -0.166 F 
ATOM     12  F   UNL A   1     -24.177   0.148  31.141  0.00  0.00    -0.166 F 
ENDBRANCH   4   9
TORSDOF 1
