MODEL 2610
MODEL 1
REMARK VINA RESULT:    -7.597      0.000      0.000
REMARK INTER + INTRA:         -12.866
REMARK INTER:                 -11.593
REMARK INTRA:                  -1.273
REMARK UNBOUND:                -1.273
REMARK  Name = No_2610-gen_results/8p0m/2024-11-27-11-27-31/
REMARK  9 active torsions:
REMARK  status: ('A' for Active; 'I' for Inactive)
REMARK    1  A    between atoms: C_2  and  O_7
REMARK    2  A    between atoms: C_4  and  C_28
REMARK    3  A    between atoms: C_5  and  C_25
REMARK    4  A    between atoms: O_7  and  C_8
REMARK    5  A    between atoms: C_8  and  C_9
REMARK    6  A    between atoms: C_13  and  C_17
REMARK    7  A    between atoms: C_14  and  O_15
REMARK    8  A    between atoms: C_21  and  C_22
REMARK    9  A    between atoms: C_32  and  C_33
REMARK                            x       y       z     vdW  Elec       q    Type
REMARK                         _______ _______ _______ _____ _____    ______ ____
ROOT
ATOM      1  O   UNL A   1     -31.700 -13.206  24.605  0.00  0.00    -0.470 OA
ENDROOT
BRANCH   1   3
ATOM      2  C   UNL A   1     -30.689 -12.599  22.658  0.00  0.00    +0.043 A 
ATOM      3  C   UNL A   1     -30.810 -13.411  23.545  0.00  0.00    +0.139 A 
ATOM      4  C   UNL A   1     -30.103 -14.568  23.616  0.00  0.00    +0.038 A 
ATOM      5  C   UNL A   1     -29.171 -14.845  22.599  0.00  0.00    +0.021 A 
ATOM      6  C   UNL A   1     -29.687 -12.771  21.637  0.00  0.00    +0.083 A 
ATOM      7  C   UNL A   1     -28.971 -13.930  21.647  0.00  0.00    +0.008 A 
BRANCH   5   8
ATOM      8  C   UNL A   1     -28.388 -16.159  22.582  0.00  0.00    +0.082 A 
ATOM      9  N   UNL A   1     -28.696 -17.149  21.832  0.00  0.00    -0.244 NA
ATOM     10  C   UNL A   1     -27.196 -16.272  23.369  0.00  0.00    +0.022 A 
ATOM     11  C   UNL A   1     -28.129 -18.168  21.605  0.00  0.00    +0.099 A 
ATOM     12  C   UNL A   1     -26.483 -17.511  23.300  0.00  0.00    +0.045 A 
ATOM     13  C   UNL A   1     -26.986 -18.516  22.405  0.00  0.00    +0.024 A 
BRANCH  12  14
ATOM     14  C   UNL A   1     -25.324 -17.800  24.095  0.00  0.00    +0.234 C 
ATOM     15  O   UNL A   1     -24.362 -17.275  23.923  0.00  0.00    -0.283 OA
ENDBRANCH  12  14
ENDBRANCH   5   8
BRANCH   6  16
ATOM     16  C   UNL A   1     -29.519 -11.804  20.553  0.00  0.00    +0.388 C 
ATOM     17  O   UNL A   1     -30.234 -11.018  20.281  0.00  0.00    -0.241 OA
ATOM     18  O   UNL A   1     -28.471 -12.078  19.781  0.00  0.00    -0.241 OA
ENDBRANCH   6  16
ENDBRANCH   1   3
BRANCH   1  19
ATOM     19  C   UNL A   1     -31.263 -13.597  25.888  0.00  0.00    +0.235 C 
BRANCH  19  20
ATOM     20  C   UNL A   1     -30.928 -12.790  26.640  0.00  0.00    +0.055 A 
ATOM     21  C   UNL A   1     -30.633 -11.547  26.336  0.00  0.00    +0.002 A 
ATOM     22  C   UNL A   1     -30.168 -10.485  27.234  0.00  0.00    -0.000 A 
ATOM     23  C   UNL A   1     -29.934 -10.925  28.551  0.00  0.00    -0.001 A 
ATOM     24  C   UNL A   1     -30.253 -12.214  28.968  0.00  0.00    +0.015 A 
ATOM     25  C   UNL A   1     -30.671 -13.088  28.094  0.00  0.00    +0.134 A 
BRANCH  24  26
ATOM     26  C   UNL A   1     -29.992 -12.447  30.429  0.00  0.00    +0.048 C 
ATOM     27  C   UNL A   1     -30.452 -12.708  31.312  0.00  0.00    -0.026 C 
ATOM     28  C   UNL A   1     -29.994 -12.913  32.616  0.00  0.00    -0.019 C 
ATOM     29  C   UNL A   1     -28.535 -12.255  30.935  0.00  0.00    +0.025 C 
ATOM     30  C   UNL A   1     -28.652 -12.573  32.364  0.00  0.00    +0.126 C 
BRANCH  30  31
ATOM     31  C   UNL A   1     -27.483 -12.499  33.264  0.00  0.00    +0.368 C 
ATOM     32  O   UNL A   1     -27.572 -12.432  34.373  0.00  0.00    -0.245 OA
ATOM     33  O   UNL A   1     -26.342 -12.499  32.587  0.00  0.00    -0.245 OA
ENDBRANCH  30  31
ENDBRANCH  24  26
BRANCH  25  34
ATOM     34  O   UNL A   1     -29.887 -14.141  28.169  0.00  0.00    -0.472 OA
ATOM     35  C   UNL A   1     -30.528 -15.301  28.675  0.00  0.00    +0.252 C 
ENDBRANCH  25  34
ENDBRANCH  19  20
ENDBRANCH   1  19
TORSDOF 9
ENDMDL
ENDMDL
