REMARK  Name = No_2611-gen_results/8p0m/2024-11-27-11-27-31/
REMARK  2 active torsions:
REMARK  status: ('A' for Active; 'I' for Inactive)
REMARK    1  A    between atoms: C_2  and  C_7
REMARK    2  A    between atoms: C_7  and  C_8
REMARK                            x       y       z     vdW  Elec       q    Type
REMARK                         _______ _______ _______ _____ _____    ______ ____
ROOT
ATOM      1  C   UNL A   1     -30.061  -0.737  29.902  0.00  0.00    +0.196 C 
ATOM      2  O   UNL A   1     -30.641  -1.787  29.514  0.00  0.00    -0.287 OA
ENDROOT
BRANCH   1   3
ATOM      3  C   UNL A   1     -30.658   0.423  30.373  0.00  0.00    +0.040 A 
ATOM      4  C   UNL A   1     -30.009   1.390  30.645  0.00  0.00    +0.003 A 
ATOM      5  C   UNL A   1     -30.719   2.689  31.076  0.00  0.00    +0.001 A 
ATOM      6  C   UNL A   1     -32.097   2.614  31.086  0.00  0.00    +0.011 A 
ATOM      7  C   UNL A   1     -32.094   0.421  30.400  0.00  0.00    +0.015 A 
ATOM      8  C   UNL A   1     -32.758   1.514  30.759  0.00  0.00    +0.058 A 
ATOM      9 CL   UNL A   1     -34.455   1.469  30.807  0.00  0.00    -0.082 Cl
ENDBRANCH   1   3
BRANCH   1  11
ATOM     10  C   UNL A   1     -28.016  -0.814  28.878  0.00  0.00    +0.003 A 
ATOM     11  C   UNL A   1     -28.469  -0.785  29.829  0.00  0.00    +0.039 A 
ATOM     12  C   UNL A   1     -26.546  -0.876  28.850  0.00  0.00    +0.000 A 
ATOM     13  C   UNL A   1     -25.804  -1.032  30.057  0.00  0.00    +0.000 A 
ATOM     14  C   UNL A   1     -27.944  -0.987  31.207  0.00  0.00    +0.003 A 
ATOM     15  C   UNL A   1     -26.582  -1.039  31.223  0.00  0.00    +0.000 A 
ENDBRANCH   1  11
TORSDOF 2
