MODEL 2611
MODEL 1
REMARK VINA RESULT:    -7.013      0.000      0.000
REMARK INTER + INTRA:          -8.246
REMARK INTER:                  -7.833
REMARK INTRA:                  -0.414
REMARK UNBOUND:                -0.414
REMARK  Name = No_2611-gen_results/8p0m/2024-11-27-11-27-31/
REMARK  2 active torsions:
REMARK  status: ('A' for Active; 'I' for Inactive)
REMARK    1  A    between atoms: C_2  and  C_7
REMARK    2  A    between atoms: C_7  and  C_8
REMARK                            x       y       z     vdW  Elec       q    Type
REMARK                         _______ _______ _______ _____ _____    ______ ____
ROOT
ATOM      1  C   UNL A   1     -24.791  -1.283  29.414  0.00  0.00    +0.196 C 
ATOM      2  O   UNL A   1     -25.061  -0.892  30.582  0.00  0.00    -0.287 OA
ENDROOT
BRANCH   1   3
ATOM      3  C   UNL A   1     -24.533  -0.491  28.305  0.00  0.00    +0.040 A 
ATOM      4  C   UNL A   1     -25.348  -0.346  27.441  0.00  0.00    +0.003 A 
ATOM      5  C   UNL A   1     -25.058   0.617  26.272  0.00  0.00    +0.001 A 
ATOM      6  C   UNL A   1     -23.841   1.264  26.350  0.00  0.00    +0.011 A 
ATOM      7  C   UNL A   1     -23.288   0.224  28.323  0.00  0.00    +0.015 A 
ATOM      8  C   UNL A   1     -22.988   1.070  27.344  0.00  0.00    +0.058 A 
ATOM      9 CL   UNL A   1     -21.494   1.877  27.381  0.00  0.00    -0.082 Cl
ENDBRANCH   1   3
BRANCH   1  11
ATOM     10  C   UNL A   1     -23.956  -3.282  28.677  0.00  0.00    +0.003 A 
ATOM     11  C   UNL A   1     -24.751  -2.866  29.231  0.00  0.00    +0.039 A 
ATOM     12  C   UNL A   1     -23.961  -4.744  28.513  0.00  0.00    +0.000 A 
ATOM     13  C   UNL A   1     -25.068  -5.520  28.966  0.00  0.00    +0.000 A 
ATOM     14  C   UNL A   1     -26.027  -3.430  29.748  0.00  0.00    +0.003 A 
ATOM     15  C   UNL A   1     -26.065  -4.786  29.623  0.00  0.00    +0.000 A 
ENDBRANCH   1  11
TORSDOF 2
ENDMDL
ENDMDL
