MODEL 2612
MODEL 1
REMARK VINA RESULT:    -6.396      0.000      0.000
REMARK INTER + INTRA:          -8.468
REMARK INTER:                  -7.892
REMARK INTRA:                  -0.577
REMARK UNBOUND:                -0.577
REMARK  Name = No_2612-gen_results/8p0m/2024-11-27-11-27-31/
REMARK  4 active torsions:
REMARK  status: ('A' for Active; 'I' for Inactive)
REMARK    1  A    between atoms: C_1  and  C_2
REMARK    2  A    between atoms: C_1  and  C_8
REMARK    3  A    between atoms: C_5  and  C_15
REMARK    4  A    between atoms: C_8  and  C_9
REMARK                            x       y       z     vdW  Elec       q    Type
REMARK                         _______ _______ _______ _____ _____    ______ ____
ROOT
ATOM      1  C   UNL A   1     -29.433 -10.992  30.093  0.00  0.00    -0.022 A 
ATOM      2  C   UNL A   1     -28.520 -11.973  30.465  0.00  0.00    -0.004 A 
ATOM      3  C   UNL A   1     -28.013 -12.227  31.844  0.00  0.00    +0.004 A 
ATOM      4  C   UNL A   1     -28.390 -11.271  32.833  0.00  0.00    +0.057 A 
ATOM      5  C   UNL A   1     -29.270 -10.250  32.422  0.00  0.00    +0.004 A 
ATOM      6  C   UNL A   1     -29.735 -10.104  31.172  0.00  0.00    -0.004 A 
ENDROOT
BRANCH   4   7
ATOM      7  C   UNL A   1     -27.533 -11.371  33.962  0.00  0.00    +0.284 C 
ATOM      8  N   UNL A   1     -26.924 -12.558  34.173  0.00  0.00    -0.084 NA
ATOM      9  O   UNL A   1     -27.081 -10.459  34.715  0.00  0.00    -0.267 OA
ENDBRANCH   4   7
BRANCH   1  10
ATOM     10  C   UNL A   1     -29.789 -10.873  28.944  0.00  0.00    +0.031 C 
BRANCH  10  11
ATOM     11  C   UNL A   1     -29.035 -11.790  27.984  0.00  0.00    +0.031 C 
BRANCH  11  12
ATOM     12  C   UNL A   1     -29.498 -12.340  27.203  0.00  0.00    -0.022 A 
ATOM     13  C   UNL A   1     -29.951 -13.832  27.400  0.00  0.00    -0.004 A 
ATOM     14  C   UNL A   1     -30.584 -14.600  26.377  0.00  0.00    -0.000 A 
ATOM     15  C   UNL A   1     -30.811 -13.906  25.133  0.00  0.00    -0.000 A 
ATOM     16  C   UNL A   1     -30.508 -12.552  24.942  0.00  0.00    -0.000 A 
ATOM     17  C   UNL A   1     -29.968 -11.871  25.922  0.00  0.00    -0.004 A 
ENDBRANCH  11  12
ENDBRANCH  10  11
ENDBRANCH   1  10
TORSDOF 4
ENDMDL
ENDMDL
