REMARK  Name = outputs/IAG933/test6/raw/output_2612_IAG933_linker_design_.xyz
REMARK  12 active torsions:
REMARK  status: ('A' for Active; 'I' for Inactive)
REMARK    1  A    between atoms: C_1  and  C_2
REMARK    2  A    between atoms: C_1  and  C_8
REMARK    3  A    between atoms: C_1  and  C_29
REMARK    4  A    between atoms: C_13  and  N_31
REMARK    5  A    between atoms: C_14  and  C_15
REMARK    6  A    between atoms: C_21  and  O_22
REMARK    7  A    between atoms: O_22  and  C_23
REMARK    8  A    between atoms: C_23  and  C_24
REMARK    9  A    between atoms: C_29  and  C_36
REMARK   10  A    between atoms: C_32  and  C_33
REMARK   11  A    between atoms: C_33  and  C_34
REMARK   12  A    between atoms: C_33  and  C_38
REMARK                            x       y       z     vdW  Elec       q    Type
REMARK                         _______ _______ _______ _____ _____    ______ ____
ROOT
ATOM      1  N   UNL A   1     -24.544   1.465  27.350  0.00  0.00    -0.299 N 
ATOM      2  C   UNL A   1     -23.450   0.500  27.432  0.00  0.00    +0.105 C 
ATOM      3  C   UNL A   1     -24.380   0.778  28.375  0.00  0.00    +0.149 C 
ENDROOT
BRANCH   1   4
ATOM      4  C   UNL A   1     -25.688   1.614  26.461  0.00  0.00    +0.087 C 
ATOM      5  C   UNL A   1     -26.250   2.920  26.395  0.00  0.00    +0.090 C 
ATOM      6  C   UNL A   1     -27.438   3.091  25.645  0.00  0.00    +0.108 C 
ATOM      7  N   UNL A   1     -28.075   2.089  25.003  0.00  0.00    -0.208 NA
ATOM      8  C   UNL A   1     -27.543   0.849  25.079  0.00  0.00    +0.255 C 
ATOM      9  C   UNL A   1     -26.354   0.576  25.777  0.00  0.00    +0.206 C 
ATOM     10  F   UNL A   1     -25.860  -0.681  25.795  0.00  0.00    -0.198 F 
BRANCH   5  11
ATOM     11  C   UNL A   1     -25.642   4.093  27.123  0.00  0.00    +0.268 C 
ATOM     12  N   UNL A   1     -25.614   5.252  26.449  0.00  0.00    -0.200 NA
ATOM     13  C   UNL A   1     -25.026   6.479  26.963  0.00  0.00    +0.139 C 
ATOM     14  O   UNL A   1     -25.143   3.966  28.243  0.00  0.00    -0.268 OA
ENDBRANCH   5  11
BRANCH   8  15
ATOM     15  O   UNL A   1     -28.193  -0.208  24.477  0.00  0.00    -0.456 OA
BRANCH  15  16
ATOM     16  C   UNL A   1     -29.460   0.005  23.866  0.00  0.00    +0.243 C 
BRANCH  16  17
ATOM     17  C   UNL A   1     -30.065  -1.377  23.573  0.00  0.00    +0.229 C 
ATOM     18  O   UNL A   1     -30.729  -1.878  24.721  0.00  0.00    -0.216 OA
ENDBRANCH  16  17
ENDBRANCH  15  16
ENDBRANCH   8  15
ENDBRANCH   1   4
BRANCH   3  19
ATOM     19  C   UNL A   1     -25.399  -0.124  29.065  0.00  0.00    +0.175 C 
ATOM     20  O   UNL A   1     -26.575  -0.133  28.685  0.00  0.00    -0.294 OA
BRANCH  19  21
ATOM     21  C   UNL A   1     -24.855  -1.012  30.143  0.00  0.00    +0.098 C 
BRANCH  21  22
ATOM     22  C   UNL A   1     -24.973  -2.505  29.788  0.00  0.00    -0.014 C 
ATOM     23  C   UNL A   1     -23.906  -3.173  29.146  0.00  0.00    -0.004 C 
ATOM     24  C   UNL A   1     -23.989  -4.549  28.853  0.00  0.00    -0.000 C 
ATOM     25  C   UNL A   1     -25.137  -5.280  29.205  0.00  0.00    -0.000 C 
ATOM     26  C   UNL A   1     -26.232  -4.611  29.784  0.00  0.00    -0.000 C 
ATOM     27  C   UNL A   1     -26.155  -3.232  30.065  0.00  0.00    -0.004 C 
ENDBRANCH  21  22
BRANCH  21  28
ATOM     28  C   UNL A   1     -25.387  -0.679  31.571  0.00  0.00    +0.084 C 
ATOM     29  C   UNL A   1     -25.189   0.773  32.028  0.00  0.00    +0.020 C 
ATOM     30  C   UNL A   1     -25.336   0.684  33.544  0.00  0.00    +0.020 C 
ATOM     31  C   UNL A   1     -24.829  -0.715  33.905  0.00  0.00    +0.089 C 
ATOM     32  N   UNL A   1     -24.758  -1.481  32.646  0.00  0.00    -0.219 NA
ENDBRANCH  21  28
ENDBRANCH  19  21
ENDBRANCH   3  19
BRANCH   2  33
ATOM     33  C   UNL A   1     -22.329   1.367  26.988  0.00  0.00    +0.106 C 
BRANCH  33  35
ATOM     34  F   UNL A   1     -22.863   0.998  24.808  0.00  0.00    -0.198 F 
ATOM     35  C   UNL A   1     -22.438   1.708  25.557  0.00  0.00    +0.322 C 
ATOM     36  F   UNL A   1     -23.131   2.920  25.473  0.00  0.00    -0.198 F 
ENDBRANCH  33  35
BRANCH  33  38
ATOM     37  N   UNL A   1     -22.298   0.720  29.384  0.00  0.00    -0.131 NA
ATOM     38  C   UNL A   1     -21.549   1.216  28.312  0.00  0.00    +0.117 C 
ENDBRANCH  33  38
ENDBRANCH   2  33
TORSDOF 12
