REMARK  Name = outputs/IAG933/test6/raw/output_2613_IAG933_linker_design_.xyz
REMARK  16 active torsions:
REMARK  status: ('A' for Active; 'I' for Inactive)
REMARK    1  A    between atoms: C_1  and  C_2
REMARK    2  A    between atoms: C_1  and  C_8
REMARK    3  A    between atoms: C_1  and  C_42
REMARK    4  A    between atoms: C_13  and  C_43
REMARK    5  A    between atoms: C_14  and  C_15
REMARK    6  A    between atoms: C_21  and  O_22
REMARK    7  A    between atoms: O_22  and  C_23
REMARK    8  A    between atoms: C_23  and  C_24
REMARK    9  A    between atoms: C_29  and  C_36
REMARK   10  A    between atoms: C_29  and  C_42
REMARK   11  A    between atoms: C_31  and  C_43
REMARK   12  A    between atoms: C_33  and  C_42
REMARK   13  A    between atoms: N_35  and  C_36
REMARK   14  A    between atoms: N_35  and  C_45
REMARK   15  A    between atoms: N_35  and  C_46
REMARK   16  A    between atoms: C_45  and  C_47
REMARK                            x       y       z     vdW  Elec       q    Type
REMARK                         _______ _______ _______ _____ _____    ______ ____
ROOT
ATOM      1  C   UNL A   1     -24.769  -0.040  29.048  0.00  0.00    +0.029 C 
ENDROOT
BRANCH   1   4
ATOM      2  C   UNL A   1     -22.999   2.020  26.862  0.00  0.00    -0.005 C 
ATOM      3  C   UNL A   1     -23.957   1.274  27.766  0.00  0.00    -0.026 C 
ATOM      4  C   UNL A   1     -23.780   0.659  28.629  0.00  0.00    -0.026 C 
ATOM      5  C   UNL A   1     -21.696   1.880  27.262  0.00  0.00    -0.000 C 
ATOM      6  C   UNL A   1     -21.413   1.075  28.335  0.00  0.00    -0.000 C 
ATOM      7  C   UNL A   1     -22.389   0.488  29.095  0.00  0.00    -0.005 C 
BRANCH   3   8
ATOM      8  C   UNL A   1     -24.804   1.245  27.500  0.00  0.00    +0.034 C 
BRANCH   8   9
ATOM      9  C   UNL A   1     -25.688   1.614  26.461  0.00  0.00    +0.074 C 
ATOM     10  C   UNL A   1     -26.250   2.920  26.395  0.00  0.00    +0.055 C 
ATOM     11  C   UNL A   1     -27.438   3.091  25.645  0.00  0.00    +0.102 C 
ATOM     12  N   UNL A   1     -28.075   2.089  25.003  0.00  0.00    -0.212 NA
ATOM     13  C   UNL A   1     -27.543   0.849  25.079  0.00  0.00    +0.234 C 
ATOM     14  C   UNL A   1     -26.354   0.576  25.777  0.00  0.00    +0.240 C 
ATOM     15  F   UNL A   1     -25.860  -0.681  25.795  0.00  0.00    -0.227 F 
BRANCH  10  16
ATOM     16  C   UNL A   1     -25.642   4.093  27.123  0.00  0.00    +0.262 C 
ATOM     17  N   UNL A   1     -25.614   5.252  26.449  0.00  0.00    -0.200 NA
ATOM     18  C   UNL A   1     -25.026   6.479  26.963  0.00  0.00    +0.139 C 
ATOM     19  O   UNL A   1     -25.143   3.966  28.243  0.00  0.00    -0.269 OA
ENDBRANCH  10  16
BRANCH  13  20
ATOM     20  O   UNL A   1     -28.193  -0.208  24.477  0.00  0.00    -0.459 OA
BRANCH  20  21
ATOM     21  C   UNL A   1     -29.460   0.005  23.866  0.00  0.00    +0.242 C 
BRANCH  21  22
ATOM     22  C   UNL A   1     -30.065  -1.377  23.573  0.00  0.00    +0.229 C 
ATOM     23  O   UNL A   1     -30.729  -1.878  24.721  0.00  0.00    -0.216 OA
ENDBRANCH  21  22
ENDBRANCH  20  21
ENDBRANCH  13  20
ENDBRANCH   8   9
ENDBRANCH   3   8
ENDBRANCH   1   4
BRANCH   1  24
ATOM     24  C   UNL A   1     -26.444  -0.205  28.813  0.00  0.00    +0.022 C 
BRANCH  24  25
ATOM     25  C   UNL A   1     -27.338   1.064  29.015  0.00  0.00    +0.075 C 
BRANCH  25  26
ATOM     26  N   UNL A   1     -28.661   0.491  29.010  0.00  0.00    -0.241 NA
BRANCH  26  28
ATOM     27  O   UNL A   1     -30.435  -0.360  27.837  0.00  0.00    -0.201 OA
ATOM     28  C   UNL A   1     -29.193   0.270  27.669  0.00  0.00    +0.259 C 
ENDBRANCH  26  28
BRANCH  26  29
ATOM     29  C   UNL A   1     -29.616   1.159  29.925  0.00  0.00    +0.101 C 
BRANCH  29  35
ATOM     30  C   UNL A   1     -28.553   4.792  29.576  0.00  0.00    -0.000 C 
ATOM     31  C   UNL A   1     -27.663   4.855  30.654  0.00  0.00    -0.000 C 
ATOM     32  C   UNL A   1     -28.303   2.658  31.366  0.00  0.00    -0.003 C 
ATOM     33  C   UNL A   1     -29.338   3.641  29.425  0.00  0.00    -0.003 C 
ATOM     34  C   UNL A   1     -27.547   3.806  31.553  0.00  0.00    -0.000 C 
ATOM     35  C   UNL A   1     -29.142   2.547  30.267  0.00  0.00    -0.006 C 
ENDBRANCH  29  35
ENDBRANCH  26  29
ENDBRANCH  25  26
ENDBRANCH  24  25
ENDBRANCH   1  24
BRANCH   1  36
ATOM     36  C   UNL A   1     -24.855  -1.012  30.143  0.00  0.00    +0.042 C 
BRANCH  36  37
ATOM     37  C   UNL A   1     -24.973  -2.505  29.788  0.00  0.00    -0.021 C 
ATOM     38  C   UNL A   1     -23.906  -3.173  29.146  0.00  0.00    -0.004 C 
ATOM     39  C   UNL A   1     -23.989  -4.549  28.853  0.00  0.00    -0.000 C 
ATOM     40  C   UNL A   1     -25.137  -5.280  29.205  0.00  0.00    -0.000 C 
ATOM     41  C   UNL A   1     -26.232  -4.611  29.784  0.00  0.00    -0.000 C 
ATOM     42  C   UNL A   1     -26.155  -3.232  30.065  0.00  0.00    -0.004 C 
ENDBRANCH  36  37
BRANCH  36  43
ATOM     43  C   UNL A   1     -25.387  -0.679  31.571  0.00  0.00    +0.077 C 
ATOM     44  C   UNL A   1     -25.189   0.773  32.028  0.00  0.00    +0.019 C 
ATOM     45  C   UNL A   1     -25.336   0.684  33.544  0.00  0.00    +0.020 C 
ATOM     46  C   UNL A   1     -24.829  -0.715  33.905  0.00  0.00    +0.089 C 
ATOM     47  N   UNL A   1     -24.758  -1.481  32.646  0.00  0.00    -0.219 NA
ENDBRANCH  36  43
ENDBRANCH   1  36
TORSDOF 16
