MODEL 2613
MODEL 1
REMARK VINA RESULT:    -6.035      0.000      0.000
REMARK INTER + INTRA:          -8.399
REMARK INTER:                  -7.447
REMARK INTRA:                  -0.953
REMARK UNBOUND:                -0.953
REMARK  Name = No_2613-gen_results/8p0m/2024-11-27-11-27-31/
REMARK  4 active torsions:
REMARK  status: ('A' for Active; 'I' for Inactive)
REMARK    1  A    between atoms: C_3  and  N_14
REMARK    2  A    between atoms: C_4  and  C_7
REMARK    3  A    between atoms: C_7  and  C_8
REMARK    4  A    between atoms: N_14  and  C_15
REMARK                            x       y       z     vdW  Elec       q    Type
REMARK                         _______ _______ _______ _____ _____    ______ ____
ROOT
ATOM      1  C   UNL A   1     -26.390  -4.162  29.752  0.00  0.00    +0.016 A 
ATOM      2  C   UNL A   1     -25.758  -4.874  29.300  0.00  0.00    +0.001 A 
ATOM      3  C   UNL A   1     -25.798  -2.848  30.049  0.00  0.00    +0.067 A 
ATOM      4  C   UNL A   1     -24.480  -2.532  29.608  0.00  0.00    -0.003 A 
ATOM      5  C   UNL A   1     -23.798  -3.541  28.977  0.00  0.00    -0.003 A 
ATOM      6  C   UNL A   1     -24.381  -4.738  28.753  0.00  0.00    -0.000 A 
ENDROOT
BRANCH   4   7
ATOM      7  C   UNL A   1     -23.896  -1.231  29.881  0.00  0.00    +0.054 C 
BRANCH   7   8
ATOM      8  C   UNL A   1     -23.555  -0.446  28.758  0.00  0.00    -0.018 A 
ATOM      9  C   UNL A   1     -22.395   0.151  28.588  0.00  0.00    -0.004 A 
ATOM     10  C   UNL A   1     -24.549  -0.311  27.681  0.00  0.00    -0.004 A 
ATOM     11  C   UNL A   1     -24.557   0.761  26.806  0.00  0.00    -0.000 A 
ATOM     12  C   UNL A   1     -22.236   1.328  27.764  0.00  0.00    -0.000 A 
ATOM     13  C   UNL A   1     -23.317   1.524  26.738  0.00  0.00    -0.000 A 
ENDBRANCH   7   8
ENDBRANCH   4   7
BRANCH   3  14
ATOM     14  N   UNL A   1     -26.474  -1.840  30.786  0.00  0.00    -0.211 NA
BRANCH  14  15
ATOM     15  C   UNL A   1     -27.501  -1.085  30.314  0.00  0.00    +0.086 C 
ATOM     16  C   UNL A   1     -27.342   0.284  30.131  0.00  0.00    +0.019 C 
ENDBRANCH  14  15
ENDBRANCH   3  14
TORSDOF 4
ENDMDL
ENDMDL
