MODEL 2616
MODEL 1
REMARK VINA RESULT:    -7.516      0.000      0.000
REMARK INTER + INTRA:         -10.181
REMARK INTER:                  -8.834
REMARK INTRA:                  -1.347
REMARK UNBOUND:                -1.347
REMARK  Name = No_2616-gen_results/8p0m/2024-11-27-11-27-31/
REMARK  3 active torsions:
REMARK  status: ('A' for Active; 'I' for Inactive)
REMARK    1  A    between atoms: C_3  and  C_7
REMARK    2  A    between atoms: C_8  and  C_19
REMARK    3  A    between atoms: C_10  and  C_11
REMARK                            x       y       z     vdW  Elec       q    Type
REMARK                         _______ _______ _______ _____ _____    ______ ____
ROOT
ATOM      1  C   UNL A   1     -23.623   0.130  28.025  0.00  0.00    +0.002 A 
ATOM      2  C   UNL A   1     -22.734   0.900  27.731  0.00  0.00    +0.053 A 
ATOM      3  C   UNL A   1     -21.339   0.613  28.137  0.00  0.00    +0.002 A 
ATOM      4  C   UNL A   1     -23.382  -0.997  28.845  0.00  0.00    -0.000 A 
ATOM      5  C   UNL A   1     -21.143  -0.454  29.057  0.00  0.00    -0.000 A 
ATOM      6  C   UNL A   1     -22.183  -1.178  29.430  0.00  0.00    -0.000 A 
ENDROOT
BRANCH   1   9
ATOM      7  C   UNL A   1     -25.533  -0.377  26.393  0.00  0.00    -0.000 A 
ATOM      8  C   UNL A   1     -26.543  -0.221  26.136  0.00  0.00    -0.000 A 
ATOM      9  C   UNL A   1     -25.032   0.293  27.530  0.00  0.00    -0.000 A 
ATOM     10  C   UNL A   1     -25.819   1.139  28.286  0.00  0.00    -0.000 A 
ATOM     11  C   UNL A   1     -27.585   0.614  26.765  0.00  0.00    -0.000 A 
ATOM     12  C   UNL A   1     -27.146   1.275  27.858  0.00  0.00    -0.000 A 
ENDBRANCH   1   9
BRANCH   4  13
ATOM     13  C   UNL A   1     -24.561  -1.898  29.244  0.00  0.00    -0.000 A 
ATOM     14  C   UNL A   1     -25.566  -1.926  29.793  0.00  0.00    -0.000 A 
ATOM     15  C   UNL A   1     -26.487  -2.990  29.859  0.00  0.00    -0.000 A 
ATOM     16  C   UNL A   1     -25.998  -4.249  29.639  0.00  0.00    +0.000 A 
ATOM     17  C   UNL A   1     -24.209  -3.442  28.814  0.00  0.00    -0.000 A 
ATOM     18  C   UNL A   1     -25.021  -4.430  28.906  0.00  0.00    -0.000 A 
ENDBRANCH   4  13
BRANCH   2  19
ATOM     19  C   UNL A   1     -22.775   2.055  26.753  0.00  0.00    +0.350 C 
ATOM     20 CL   UNL A   1     -23.389   1.682  25.239  0.00  0.00    -0.042 Cl
ATOM     21  F   UNL A   1     -21.401   2.325  26.401  0.00  0.00    -0.182 F 
ATOM     22  F   UNL A   1     -23.409   3.148  27.154  0.00  0.00    -0.182 F 
ENDBRANCH   2  19
TORSDOF 3
ENDMDL
ENDMDL
