REMARK  Name = No_2617-gen_results/8p0m/2024-11-27-11-27-31/
REMARK  10 active torsions:
REMARK  status: ('A' for Active; 'I' for Inactive)
REMARK    1  A    between atoms: C_2  and  C_10
REMARK    2  A    between atoms: C_4  and  O_21
REMARK    3  A    between atoms: C_5  and  C_7
REMARK    4  A    between atoms: C_7  and  O_9
REMARK    5  A    between atoms: O_9  and  C_23
REMARK    6  A    between atoms: C_12  and  N_16
REMARK    7  A    between atoms: N_16  and  C_17
REMARK    8  A    between atoms: C_23  and  C_24
REMARK    9  A    between atoms: C_24  and  C_25
REMARK   10  A    between atoms: C_25  and  C_26
REMARK                            x       y       z     vdW  Elec       q    Type
REMARK                         _______ _______ _______ _____ _____    ______ ____
ROOT
ATOM      1  C   UNL A   1     -28.016  -0.814  28.878  0.00  0.00    +0.002 A 
ATOM      2  C   UNL A   1     -27.064  -0.119  28.608  0.00  0.00    +0.021 A 
ATOM      3  C   UNL A   1     -26.972   0.714  27.506  0.00  0.00    +0.039 A 
ATOM      4  C   UNL A   1     -28.105   0.774  26.642  0.00  0.00    +0.145 A 
ATOM      5  C   UNL A   1     -29.201   0.104  27.053  0.00  0.00    +0.110 A 
ATOM      6  C   UNL A   1     -29.210  -0.603  28.185  0.00  0.00    +0.010 A 
ENDROOT
BRANCH   2   7
ATOM      7  C   UNL A   1     -25.696  -0.218  29.426  0.00  0.00    +0.085 A 
ATOM      8  N   UNL A   1     -24.590  -0.054  28.937  0.00  0.00    -0.206 NA
ATOM      9  C   UNL A   1     -23.381  -0.406  29.371  0.00  0.00    +0.267 A 
ATOM     10  C   UNL A   1     -23.150  -1.282  30.276  0.00  0.00    +0.065 A 
ATOM     11  C   UNL A   1     -24.381  -1.589  31.047  0.00  0.00    +0.007 A 
ATOM     12  C   UNL A   1     -25.673  -1.272  30.498  0.00  0.00    +0.019 A 
BRANCH   9  13
ATOM     13  N   UNL A   1     -22.241   0.103  28.658  0.00  0.00    +0.026 NA
BRANCH  13  14
ATOM     14  C   UNL A   1     -22.246   1.253  27.867  0.00  0.00    +0.483 C 
ATOM     15  C   UNL A   1     -21.474   1.504  26.850  0.00  0.00    +0.229 C 
ATOM     16  N   UNL A   1     -22.969   2.333  28.401  0.00  0.00    +0.227 NA
ATOM     17  O   UNL A   1     -21.911   2.469  26.063  0.00  0.00    -0.224 OA
ENDBRANCH  13  14
ENDBRANCH   9  13
ENDBRANCH   2   7
BRANCH   5  18
ATOM     18  C   UNL A   1     -30.375   0.223  26.167  0.00  0.00    +0.344 C 
ATOM     19  O   UNL A   1     -30.327   0.057  24.966  0.00  0.00    -0.245 OA
BRANCH  18  20
ATOM     20  O   UNL A   1     -31.507   0.689  26.649  0.00  0.00    -0.445 OA
BRANCH  20  21
ATOM     21  C   UNL A   1     -32.715   0.429  26.087  0.00  0.00    +0.209 C 
BRANCH  21  22
ATOM     22  C   UNL A   1     -33.820   0.545  26.930  0.00  0.00    +0.052 C 
BRANCH  22  23
ATOM     23  C   UNL A   1     -33.603   1.114  28.152  0.00  0.00    +0.029 C 
BRANCH  23  24
ATOM     24  C   UNL A   1     -33.463   2.481  28.213  0.00  0.00    -0.031 C 
ATOM     25  C   UNL A   1     -34.155   3.299  27.614  0.00  0.00    -0.030 C 
ATOM     26  C   UNL A   1     -33.888   4.742  27.623  0.00  0.00    +0.030 C 
ENDBRANCH  23  24
ENDBRANCH  22  23
ENDBRANCH  21  22
ENDBRANCH  20  21
ENDBRANCH  18  20
ENDBRANCH   5  18
BRANCH   4  27
ATOM     27  O   UNL A   1     -28.014   1.609  25.624  0.00  0.00    -0.471 OA
ATOM     28  C   UNL A   1     -27.450   2.894  25.836  0.00  0.00    +0.253 C 
ENDBRANCH   4  27
TORSDOF 10
