MODEL 2617
MODEL 1
REMARK VINA RESULT:    -6.011      0.000      0.000
REMARK INTER + INTRA:         -11.959
REMARK INTER:                  -9.524
REMARK INTRA:                  -2.435
REMARK UNBOUND:                -2.435
REMARK  Name = No_2617-gen_results/8p0m/2024-11-27-11-27-31/
REMARK  10 active torsions:
REMARK  status: ('A' for Active; 'I' for Inactive)
REMARK    1  A    between atoms: C_2  and  C_10
REMARK    2  A    between atoms: C_4  and  O_21
REMARK    3  A    between atoms: C_5  and  C_7
REMARK    4  A    between atoms: C_7  and  O_9
REMARK    5  A    between atoms: O_9  and  C_23
REMARK    6  A    between atoms: C_12  and  N_16
REMARK    7  A    between atoms: N_16  and  C_17
REMARK    8  A    between atoms: C_23  and  C_24
REMARK    9  A    between atoms: C_24  and  C_25
REMARK   10  A    between atoms: C_25  and  C_26
REMARK                            x       y       z     vdW  Elec       q    Type
REMARK                         _______ _______ _______ _____ _____    ______ ____
ROOT
ATOM      1  C   UNL A   1     -28.395 -12.053  30.475  0.00  0.00    +0.002 A 
ATOM      2  C   UNL A   1     -29.134 -11.121  30.259  0.00  0.00    +0.021 A 
ATOM      3  C   UNL A   1     -29.669 -10.287  31.226  0.00  0.00    +0.039 A 
ATOM      4  C   UNL A   1     -29.289 -10.534  32.578  0.00  0.00    +0.145 A 
ATOM      5  C   UNL A   1     -28.349 -11.483  32.766  0.00  0.00    +0.110 A 
ATOM      6  C   UNL A   1     -27.832 -12.173  31.748  0.00  0.00    +0.010 A 
ENDROOT
BRANCH   2   7
ATOM      7  C   UNL A   1     -29.732 -10.846  28.804  0.00  0.00    +0.085 A 
ATOM      8  N   UNL A   1     -30.627 -10.050  28.568  0.00  0.00    -0.206 NA
ATOM      9  C   UNL A   1     -31.440  -9.934  27.520  0.00  0.00    +0.267 A 
ATOM     10  C   UNL A   1     -31.654 -10.849  26.649  0.00  0.00    +0.065 A 
ATOM     11  C   UNL A   1     -30.619 -11.910  26.726  0.00  0.00    +0.007 A 
ATOM     12  C   UNL A   1     -29.824 -12.056  27.917  0.00  0.00    +0.019 A 
BRANCH   9  13
ATOM     13  N   UNL A   1     -32.273  -8.765  27.447  0.00  0.00    +0.026 NA
BRANCH  13  14
ATOM     14  C   UNL A   1     -31.840  -7.504  27.031  0.00  0.00    +0.483 C 
ATOM     15  C   UNL A   1     -31.241  -6.607  27.757  0.00  0.00    +0.229 C 
ATOM     16  N   UNL A   1     -32.350  -7.085  25.791  0.00  0.00    +0.227 NA
ATOM     17  O   UNL A   1     -30.619  -5.673  27.061  0.00  0.00    -0.224 OA
ENDBRANCH  13  14
ENDBRANCH   9  13
ENDBRANCH   2   7
BRANCH   5  18
ATOM     18  C   UNL A   1     -27.937 -11.685  34.169  0.00  0.00    +0.344 C 
ATOM     19  O   UNL A   1     -27.034 -11.069  34.697  0.00  0.00    -0.245 OA
BRANCH  18  20
ATOM     20  O   UNL A   1     -28.445 -12.685  34.857  0.00  0.00    -0.445 OA
BRANCH  20  21
ATOM     21  C   UNL A   1     -29.777 -12.839  35.068  0.00  0.00    +0.209 C 
BRANCH  21  22
ATOM     22  C   UNL A   1     -30.342 -14.016  34.577  0.00  0.00    +0.052 C 
BRANCH  22  23
ATOM     23  C   UNL A   1     -31.089 -13.910  33.439  0.00  0.00    +0.029 C 
BRANCH  23  24
ATOM     24  C   UNL A   1     -30.630 -14.537  32.304  0.00  0.00    -0.031 C 
ATOM     25  C   UNL A   1     -30.991 -14.295  31.156  0.00  0.00    -0.030 C 
ATOM     26  C   UNL A   1     -30.556 -15.074  29.991  0.00  0.00    +0.030 C 
ENDBRANCH  23  24
ENDBRANCH  22  23
ENDBRANCH  21  22
ENDBRANCH  20  21
ENDBRANCH  18  20
ENDBRANCH   5  18
BRANCH   4  27
ATOM     27  O   UNL A   1     -29.773  -9.699  33.478  0.00  0.00    -0.471 OA
ATOM     28  C   UNL A   1     -29.477  -8.316  33.364  0.00  0.00    +0.253 C 
ENDBRANCH   4  27
TORSDOF 10
ENDMDL
ENDMDL
