MODEL 2618
MODEL 1
REMARK VINA RESULT:    -4.352      0.000      0.000
REMARK INTER + INTRA:          -4.352
REMARK INTER:                  -4.352
REMARK INTRA:                   0.000
REMARK UNBOUND:                 0.000
REMARK  Name = No_2618-gen_results/8p0m/2024-11-27-11-27-31/
REMARK  0 active torsions:
REMARK  status: ('A' for Active; 'I' for Inactive)
REMARK                            x       y       z     vdW  Elec       q    Type
REMARK                         _______ _______ _______ _____ _____    ______ ____
ROOT
ATOM      1  C   UNL A   1     -24.188  -4.922  28.605  0.00  0.00    +0.000 A 
ATOM      2  C   UNL A   1     -25.044  -5.312  29.081  0.00  0.00    +0.000 A 
ATOM      3  C   UNL A   1     -24.069  -3.463  28.723  0.00  0.00    +0.000 A 
ATOM      4  C   UNL A   1     -25.044  -2.702  29.222  0.00  0.00    +0.000 A 
ATOM      5  C   UNL A   1     -26.220  -4.704  29.654  0.00  0.00    +0.000 A 
ATOM      6  C   UNL A   1     -26.100  -3.348  29.732  0.00  0.00    +0.000 A 
ENDROOT
TORSDOF 0
ENDMDL
ENDMDL
