MODEL 261
MODEL 1
REMARK VINA RESULT:    -5.221      0.000      0.000
REMARK INTER + INTRA:          -5.785
REMARK INTER:                  -5.526
REMARK INTRA:                  -0.259
REMARK UNBOUND:                -0.259
REMARK  Name = No_261-gen_results/8p0m/2024-11-27-11-27-31/
REMARK  1 active torsions:
REMARK  status: ('A' for Active; 'I' for Inactive)
REMARK    1  A    between atoms: C_4  and  C_8
REMARK                            x       y       z     vdW  Elec       q    Type
REMARK                         _______ _______ _______ _____ _____    ______ ____
ROOT
ATOM      1  C   UNL A   1     -22.285   0.175  28.942  0.00  0.00    +0.041 A 
ATOM      2  C   UNL A   1     -23.182  -0.376  28.912  0.00  0.00    +0.060 A 
ATOM      3  C   UNL A   1     -22.075   1.140  27.797  0.00  0.00    +0.145 A 
ATOM      4  C   UNL A   1     -23.117   1.347  26.868  0.00  0.00    +0.099 A 
ATOM      5  C   UNL A   1     -24.419  -0.330  28.099  0.00  0.00    +0.011 A 
ATOM      6  C   UNL A   1     -24.266   0.552  27.038  0.00  0.00    +0.007 A 
ATOM      7 CL   UNL A   1     -23.443  -1.536  30.298  0.00  0.00    -0.082 Cl
ATOM      8  F   UNL A   1     -20.999   1.899  27.680  0.00  0.00    -0.204 F 
ENDROOT
BRANCH   4   9
ATOM      9  C   UNL A   1     -22.952   2.259  25.765  0.00  0.00    +0.421 C 
ATOM     10  F   UNL A   1     -23.687   3.212  25.771  0.00  0.00    -0.166 F 
ATOM     11  F   UNL A   1     -21.952   2.271  25.039  0.00  0.00    -0.166 F 
ATOM     12  F   UNL A   1     -23.729   1.602  24.793  0.00  0.00    -0.166 F 
ENDBRANCH   4   9
TORSDOF 1
ENDMDL
ENDMDL
