REMARK  Name = outputs/IAG933/test6/raw/output_262_IAG933_linker_design_.xyz
REMARK  13 active torsions:
REMARK  status: ('A' for Active; 'I' for Inactive)
REMARK    1  A    between atoms: C_1  and  C_2
REMARK    2  A    between atoms: C_1  and  C_8
REMARK    3  A    between atoms: C_1  and  C_33
REMARK    4  A    between atoms: C_13  and  C_38
REMARK    5  A    between atoms: C_14  and  C_15
REMARK    6  A    between atoms: C_21  and  O_22
REMARK    7  A    between atoms: O_22  and  C_23
REMARK    8  A    between atoms: C_23  and  C_24
REMARK    9  A    between atoms: C_31  and  C_33
REMARK   10  A    between atoms: C_31  and  C_37
REMARK   11  A    between atoms: C_33  and  O_36
REMARK   12  A    between atoms: O_36  and  C_42
REMARK   13  A    between atoms: C_41  and  C_47
REMARK                            x       y       z     vdW  Elec       q    Type
REMARK                         _______ _______ _______ _____ _____    ______ ____
ROOT
ATOM      1  C   UNL A   1     -26.250  -0.298  29.290  0.00  0.00    +0.207 C 
ENDROOT
BRANCH   1   2
ATOM      2  C   UNL A   1     -27.906   0.166  29.186  0.00  0.00    +0.233 C 
ATOM      3  O   UNL A   1     -28.902  -0.759  28.592  0.00  0.00    -0.213 OA
BRANCH   2   6
ATOM      4  C   UNL A   1     -27.926   3.666  30.143  0.00  0.00    +0.119 C 
ATOM      5  C   UNL A   1     -29.059   4.117  29.410  0.00  0.00    +0.119 C 
ATOM      6  C   UNL A   1     -28.564   1.527  29.456  0.00  0.00    +0.109 C 
ATOM      7  N   UNL A   1     -27.744   2.304  30.151  0.00  0.00    -0.243 NA
ATOM      8  N   UNL A   1     -30.063   3.356  28.935  0.00  0.00    -0.243 NA
ATOM      9  C   UNL A   1     -29.824   2.030  28.940  0.00  0.00    +0.105 C 
BRANCH   9  11
ATOM     10  O   UNL A   1     -31.032   1.437  26.993  0.00  0.00    -0.217 OA
ATOM     11  C   UNL A   1     -30.950   1.281  28.336  0.00  0.00    +0.193 C 
ATOM     12  C   UNL A   1     -32.385   1.317  29.007  0.00  0.00    +0.042 C 
ENDBRANCH   9  11
ENDBRANCH   2   6
ENDBRANCH   1   2
BRANCH   1  13
ATOM     13  C   UNL A   1     -24.855  -1.012  30.143  0.00  0.00    +0.081 C 
BRANCH  13  14
ATOM     14  C   UNL A   1     -24.973  -2.505  29.788  0.00  0.00    -0.018 C 
ATOM     15  C   UNL A   1     -23.906  -3.173  29.146  0.00  0.00    -0.004 C 
ATOM     16  C   UNL A   1     -23.989  -4.549  28.853  0.00  0.00    -0.000 C 
ATOM     17  C   UNL A   1     -25.137  -5.280  29.205  0.00  0.00    -0.000 C 
ATOM     18  C   UNL A   1     -26.232  -4.611  29.784  0.00  0.00    -0.000 C 
ATOM     19  C   UNL A   1     -26.155  -3.232  30.065  0.00  0.00    -0.004 C 
ENDBRANCH  13  14
BRANCH  13  20
ATOM     20  C   UNL A   1     -25.387  -0.679  31.571  0.00  0.00    +0.080 C 
ATOM     21  C   UNL A   1     -25.189   0.773  32.028  0.00  0.00    +0.019 C 
ATOM     22  C   UNL A   1     -25.336   0.684  33.544  0.00  0.00    +0.020 C 
ATOM     23  C   UNL A   1     -24.829  -0.715  33.905  0.00  0.00    +0.089 C 
ATOM     24  N   UNL A   1     -24.758  -1.481  32.646  0.00  0.00    -0.219 NA
ENDBRANCH  13  20
ENDBRANCH   1  13
BRANCH   1  25
ATOM     25  O   UNL A   1     -25.638   0.911  28.909  0.00  0.00    -0.476 OA
BRANCH  25  30
ATOM     26  C   UNL A   1     -23.125   0.494  28.962  0.00  0.00    +0.037 C 
ATOM     27  C   UNL A   1     -23.137   1.766  26.492  0.00  0.00    +0.061 C 
ATOM     28 CL   UNL A   1     -22.973   2.569  24.944  0.00  0.00    -0.082 Cl
ATOM     29  C   UNL A   1     -24.380   1.404  27.062  0.00  0.00    +0.047 C 
ATOM     30  C   UNL A   1     -24.381   0.849  28.300  0.00  0.00    +0.139 C 
ATOM     31  C   UNL A   1     -21.942   1.542  27.157  0.00  0.00    +0.012 C 
ATOM     32  C   UNL A   1     -21.904   0.920  28.364  0.00  0.00    +0.004 C 
BRANCH  29  33
ATOM     33  C   UNL A   1     -25.688   1.614  26.461  0.00  0.00    +0.042 C 
ATOM     34  C   UNL A   1     -26.250   2.920  26.395  0.00  0.00    +0.077 C 
ATOM     35  C   UNL A   1     -27.438   3.091  25.645  0.00  0.00    +0.107 C 
ATOM     36  N   UNL A   1     -28.075   2.089  25.003  0.00  0.00    -0.208 NA
ATOM     37  C   UNL A   1     -27.543   0.849  25.079  0.00  0.00    +0.253 C 
ATOM     38  C   UNL A   1     -26.354   0.576  25.777  0.00  0.00    +0.193 C 
ATOM     39  F   UNL A   1     -25.860  -0.681  25.795  0.00  0.00    -0.199 F 
BRANCH  34  40
ATOM     40  C   UNL A   1     -25.642   4.093  27.123  0.00  0.00    +0.266 C 
ATOM     41  N   UNL A   1     -25.614   5.252  26.449  0.00  0.00    -0.200 NA
ATOM     42  C   UNL A   1     -25.026   6.479  26.963  0.00  0.00    +0.139 C 
ATOM     43  O   UNL A   1     -25.143   3.966  28.243  0.00  0.00    -0.268 OA
ENDBRANCH  34  40
BRANCH  37  44
ATOM     44  O   UNL A   1     -28.193  -0.208  24.477  0.00  0.00    -0.456 OA
BRANCH  44  45
ATOM     45  C   UNL A   1     -29.460   0.005  23.866  0.00  0.00    +0.243 C 
BRANCH  45  46
ATOM     46  C   UNL A   1     -30.065  -1.377  23.573  0.00  0.00    +0.229 C 
ATOM     47  O   UNL A   1     -30.729  -1.878  24.721  0.00  0.00    -0.216 OA
ENDBRANCH  45  46
ENDBRANCH  44  45
ENDBRANCH  37  44
ENDBRANCH  29  33
ENDBRANCH  25  30
ENDBRANCH   1  25
TORSDOF 13
