MODEL 2620
MODEL 1
REMARK VINA RESULT:    -6.821      0.000      0.000
REMARK INTER + INTRA:         -10.634
REMARK INTER:                  -8.815
REMARK INTRA:                  -1.818
REMARK UNBOUND:                -1.818
REMARK  Name = No_2620-gen_results/8p0m/2024-11-27-11-27-31/
REMARK  5 active torsions:
REMARK  status: ('A' for Active; 'I' for Inactive)
REMARK    1  A    between atoms: C_2  and  C_14
REMARK    2  A    between atoms: C_4  and  C_6
REMARK    3  A    between atoms: C_5  and  C_18
REMARK    4  A    between atoms: N_19  and  C_21
REMARK    5  A    between atoms: C_21  and  C_22
REMARK                            x       y       z     vdW  Elec       q    Type
REMARK                         _______ _______ _______ _____ _____    ______ ____
ROOT
ATOM      1  C   UNL A   1     -23.222   0.890  27.736  0.00  0.00    +0.013 A 
ATOM      2  C   UNL A   1     -23.478  -0.028  28.186  0.00  0.00    +0.078 A 
ATOM      3  C   UNL A   1     -24.149   1.468  26.842  0.00  0.00    +0.035 A 
ATOM      4  C   UNL A   1     -25.353   0.860  26.543  0.00  0.00    +0.007 A 
ATOM      5  C   UNL A   1     -24.680  -0.873  28.045  0.00  0.00    +0.000 A 
ATOM      6  C   UNL A   1     -25.608  -0.344  27.189  0.00  0.00    -0.002 A 
ATOM      7 BR   UNL A   1     -23.742   3.151  26.014  0.00  0.00    -0.049 Br
ENDROOT
BRANCH   4   8
ATOM      8  C   UNL A   1     -26.351   1.411  25.639  0.00  0.00    +0.011 A 
ATOM      9  C   UNL A   1     -27.162   2.113  25.870  0.00  0.00    +0.058 A 
ATOM     10  C   UNL A   1     -28.158   2.647  24.919  0.00  0.00    +0.011 A 
ATOM     11  C   UNL A   1     -28.320   1.725  23.920  0.00  0.00    +0.001 A 
ATOM     12  C   UNL A   1     -26.653   0.665  24.336  0.00  0.00    +0.001 A 
ATOM     13  C   UNL A   1     -27.566   0.874  23.530  0.00  0.00    +0.000 A 
ATOM     14 CL   UNL A   1     -27.105   3.284  27.262  0.00  0.00    -0.082 Cl
ENDBRANCH   4   8
BRANCH   5  15
ATOM     15  C   UNL A   1     -24.979  -2.143  28.755  0.00  0.00    +0.098 C 
ATOM     16  N   UNL A   1     -25.600  -2.300  29.562  0.00  0.00    -0.264 NA
ATOM     17  C   UNL A   1     -25.778  -3.492  30.264  0.00  0.00    +0.092 C 
ATOM     18  C   UNL A   1     -25.525  -4.616  29.592  0.00  0.00    +0.106 C 
ATOM     19  N   UNL A   1     -24.572  -4.561  28.641  0.00  0.00    -0.215 NA
ATOM     20  C   UNL A   1     -24.361  -3.352  28.120  0.00  0.00    +0.109 C 
BRANCH  16  21
ATOM     21  C   UNL A   1     -26.558  -1.321  30.221  0.00  0.00    +0.099 C 
BRANCH  21  22
ATOM     22  C   UNL A   1     -26.131  -0.541  31.087  0.00  0.00    -0.006 A 
ATOM     23  C   UNL A   1     -25.811  -0.689  32.065  0.00  0.00    -0.003 A 
ATOM     24  C   UNL A   1     -25.383   0.331  33.074  0.00  0.00    -0.000 A 
ATOM     25  C   UNL A   1     -25.376   1.616  32.607  0.00  0.00    -0.000 A 
ATOM     26  C   UNL A   1     -25.753   1.919  31.363  0.00  0.00    -0.000 A 
ATOM     27  C   UNL A   1     -26.209   0.945  30.550  0.00  0.00    -0.003 A 
ENDBRANCH  21  22
ENDBRANCH  16  21
ENDBRANCH   5  15
BRANCH   2  28
ATOM     28  C   UNL A   1     -22.497  -0.712  29.271  0.00  0.00    +0.388 C 
ATOM     29  O   UNL A   1     -21.730  -1.166  28.765  0.00  0.00    -0.241 OA
ATOM     30  O   UNL A   1     -22.707  -0.527  30.560  0.00  0.00    -0.241 OA
ENDBRANCH   2  28
TORSDOF 5
ENDMDL
ENDMDL
