REMARK  Name = outputs/IAG933/test6/raw/output_2620_IAG933_linker_design_.xyz
REMARK  18 active torsions:
REMARK  status: ('A' for Active; 'I' for Inactive)
REMARK    1  A    between atoms: C_1  and  C_2
REMARK    2  A    between atoms: C_1  and  C_8
REMARK    3  A    between atoms: C_1  and  N_34
REMARK    4  A    between atoms: C_13  and  C_43
REMARK    5  A    between atoms: C_14  and  C_15
REMARK    6  A    between atoms: C_21  and  O_22
REMARK    7  A    between atoms: O_22  and  C_23
REMARK    8  A    between atoms: C_23  and  C_24
REMARK    9  A    between atoms: C_28  and  C_42
REMARK   10  A    between atoms: O_30  and  C_37
REMARK   11  A    between atoms: O_31  and  C_32
REMARK   12  A    between atoms: O_31  and  C_39
REMARK   13  A    between atoms: C_32  and  C_33
REMARK   14  A    between atoms: C_32  and  C_38
REMARK   15  A    between atoms: N_34  and  C_37
REMARK   16  A    between atoms: N_34  and  C_41
REMARK   17  A    between atoms: C_39  and  C_42
REMARK   18  A    between atoms: C_41  and  C_43
REMARK                            x       y       z     vdW  Elec       q    Type
REMARK                         _______ _______ _______ _____ _____    ______ ____
ROOT
ATOM      1  C   UNL A   1     -23.569   1.073  27.603  0.00  0.00    -0.001 C 
ATOM      2  C   UNL A   1     -24.702   1.164  27.450  0.00  0.00    -0.023 C 
ENDROOT
BRANCH   2   3
ATOM      3  C   UNL A   1     -25.688   1.614  26.461  0.00  0.00    +0.089 C 
ATOM      4  C   UNL A   1     -26.250   2.920  26.395  0.00  0.00    +0.059 C 
ATOM      5  C   UNL A   1     -27.438   3.091  25.645  0.00  0.00    +0.102 C 
ATOM      6  N   UNL A   1     -28.075   2.089  25.003  0.00  0.00    -0.212 NA
ATOM      7  C   UNL A   1     -27.543   0.849  25.079  0.00  0.00    +0.234 C 
ATOM      8  C   UNL A   1     -26.354   0.576  25.777  0.00  0.00    +0.244 C 
ATOM      9  F   UNL A   1     -25.860  -0.681  25.795  0.00  0.00    -0.227 F 
BRANCH   4  10
ATOM     10  C   UNL A   1     -25.642   4.093  27.123  0.00  0.00    +0.263 C 
ATOM     11  N   UNL A   1     -25.614   5.252  26.449  0.00  0.00    -0.200 NA
ATOM     12  C   UNL A   1     -25.026   6.479  26.963  0.00  0.00    +0.139 C 
ATOM     13  O   UNL A   1     -25.143   3.966  28.243  0.00  0.00    -0.269 OA
ENDBRANCH   4  10
BRANCH   7  14
ATOM     14  O   UNL A   1     -28.193  -0.208  24.477  0.00  0.00    -0.459 OA
BRANCH  14  15
ATOM     15  C   UNL A   1     -29.460   0.005  23.866  0.00  0.00    +0.242 C 
BRANCH  15  16
ATOM     16  C   UNL A   1     -30.065  -1.377  23.573  0.00  0.00    +0.229 C 
ATOM     17  O   UNL A   1     -30.729  -1.878  24.721  0.00  0.00    -0.216 OA
ENDBRANCH  15  16
ENDBRANCH  14  15
ENDBRANCH   7  14
ENDBRANCH   2   3
BRANCH   1  18
ATOM     18  C   UNL A   1     -22.595   0.545  28.361  0.00  0.00    +0.170 C 
BRANCH  18  19
ATOM     19  C   UNL A   1     -22.464   0.222  29.585  0.00  0.00    +0.216 C 
ATOM     20  O   UNL A   1     -22.255  -0.573  29.516  0.00  0.00    -0.217 OA
ENDBRANCH  18  19
BRANCH  18  21
ATOM     21  O   UNL A   1     -21.189   0.807  27.749  0.00  0.00    -0.349 OA
BRANCH  21  22
ATOM     22  C   UNL A   1     -21.153   1.521  26.592  0.00  0.00    +0.148 C 
BRANCH  22  23
ATOM     23  C   UNL A   1     -22.457   1.716  26.117  0.00  0.00    +0.104 C 
BRANCH  23  24
ATOM     24  C   UNL A   1     -23.025   2.188  25.092  0.00  0.00    +0.321 C 
ATOM     25  F   UNL A   1     -22.395   3.143  24.611  0.00  0.00    -0.198 F 
ATOM     26  F   UNL A   1     -23.986   1.578  24.400  0.00  0.00    -0.198 F 
ENDBRANCH  23  24
ENDBRANCH  22  23
ENDBRANCH  21  22
ENDBRANCH  18  21
ENDBRANCH   1  18
BRANCH   2  27
ATOM     27  C   UNL A   1     -24.792   0.699  28.153  0.00  0.00    +0.097 C 
BRANCH  27  28
ATOM     28  N   UNL A   1     -25.492  -0.118  29.161  0.00  0.00    -0.237 NA
BRANCH  28  29
ATOM     29  C   UNL A   1     -24.855  -1.012  30.143  0.00  0.00    +0.099 C 
BRANCH  29  30
ATOM     30  C   UNL A   1     -24.973  -2.505  29.788  0.00  0.00    -0.006 C 
ATOM     31  C   UNL A   1     -23.906  -3.173  29.146  0.00  0.00    -0.003 C 
ATOM     32  C   UNL A   1     -23.989  -4.549  28.853  0.00  0.00    -0.000 C 
ATOM     33  C   UNL A   1     -25.137  -5.280  29.205  0.00  0.00    -0.000 C 
ATOM     34  C   UNL A   1     -26.232  -4.611  29.784  0.00  0.00    -0.000 C 
ATOM     35  C   UNL A   1     -26.155  -3.232  30.065  0.00  0.00    -0.003 C 
ENDBRANCH  29  30
BRANCH  29  36
ATOM     36  C   UNL A   1     -25.387  -0.679  31.571  0.00  0.00    +0.092 C 
ATOM     37  C   UNL A   1     -25.189   0.773  32.028  0.00  0.00    +0.021 C 
ATOM     38  C   UNL A   1     -25.336   0.684  33.544  0.00  0.00    +0.020 C 
ATOM     39  C   UNL A   1     -24.829  -0.715  33.905  0.00  0.00    +0.089 C 
ATOM     40  N   UNL A   1     -24.758  -1.481  32.646  0.00  0.00    -0.218 NA
ENDBRANCH  29  36
ENDBRANCH  28  29
BRANCH  28  41
ATOM     41  C   UNL A   1     -26.912  -0.073  28.854  0.00  0.00    +0.263 C 
BRANCH  41  43
ATOM     42  O   UNL A   1     -28.628   1.195  29.279  0.00  0.00    -0.033 OA
ATOM     43  O   UNL A   1     -27.320   1.301  28.901  0.00  0.00    -0.171 OA
ENDBRANCH  41  43
ENDBRANCH  28  41
ENDBRANCH  27  28
ENDBRANCH   2  27
TORSDOF 18
