MODEL 2623
MODEL 1
REMARK VINA RESULT:    -6.464      0.000      0.000
REMARK INTER + INTRA:          -7.047
REMARK INTER:                  -6.842
REMARK INTRA:                  -0.205
REMARK UNBOUND:                -0.205
REMARK  Name = No_2623-gen_results/8p0m/2024-11-27-11-27-31/
REMARK  1 active torsions:
REMARK  status: ('A' for Active; 'I' for Inactive)
REMARK    1  A    between atoms: C_2  and  C_3
REMARK                            x       y       z     vdW  Elec       q    Type
REMARK                         _______ _______ _______ _____ _____    ______ ____
ROOT
ATOM      1  O   UNL A   1     -22.584  -0.875  30.061  0.00  0.00    -0.270 OA
ATOM      2  C   UNL A   1     -23.462  -1.011  29.327  0.00  0.00    +0.250 C 
ATOM      3  N   UNL A   1     -23.708  -0.119  28.178  0.00  0.00    -0.276 N 
ATOM      4  C   UNL A   1     -24.706  -0.208  27.166  0.00  0.00    +0.094 C 
ATOM      5  C   UNL A   1     -24.595   0.597  26.245  0.00  0.00    +0.022 C 
ATOM      6  C   UNL A   1     -22.886   1.153  28.092  0.00  0.00    +0.094 C 
ATOM      7  C   UNL A   1     -22.878   1.850  26.938  0.00  0.00    +0.022 C 
ATOM      8  C   UNL A   1     -23.852   1.672  25.958  0.00  0.00    +0.004 C 
ENDROOT
BRANCH   2   9
ATOM      9  C   UNL A   1     -24.286  -2.117  29.385  0.00  0.00    +0.064 A 
ATOM     10  C   UNL A   1     -25.605  -2.086  29.905  0.00  0.00    +0.062 A 
ATOM     11  C   UNL A   1     -23.859  -3.416  28.893  0.00  0.00    +0.005 A 
ATOM     12  C   UNL A   1     -26.356  -3.275  30.053  0.00  0.00    +0.011 A 
ATOM     13  C   UNL A   1     -24.701  -4.560  28.832  0.00  0.00    +0.000 A 
ATOM     14  C   UNL A   1     -25.976  -4.440  29.457  0.00  0.00    +0.001 A 
ATOM     15 CL   UNL A   1     -26.139  -0.714  30.709  0.00  0.00    -0.082 Cl
ENDBRANCH   2   9
TORSDOF 1
ENDMDL
ENDMDL
