REMARK  Name = outputs/IAG933/test6/raw/output_2625_IAG933_linker_design_.xyz
REMARK  12 active torsions:
REMARK  status: ('A' for Active; 'I' for Inactive)
REMARK    1  A    between atoms: C_1  and  C_2
REMARK    2  A    between atoms: C_1  and  C_8
REMARK    3  A    between atoms: C_1  and  C_36
REMARK    4  A    between atoms: C_13  and  C_35
REMARK    5  A    between atoms: C_14  and  C_15
REMARK    6  A    between atoms: C_21  and  O_22
REMARK    7  A    between atoms: O_22  and  C_23
REMARK    8  A    between atoms: C_23  and  C_24
REMARK    9  A    between atoms: N_29  and  C_36
REMARK   10  A    between atoms: C_31  and  C_36
REMARK   11  A    between atoms: C_32  and  C_43
REMARK   12  A    between atoms: C_43  and  C_46
REMARK                            x       y       z     vdW  Elec       q    Type
REMARK                         _______ _______ _______ _____ _____    ______ ____
ROOT
ATOM      1  C   UNL A   1     -25.281  -0.093  28.979  0.00  0.00    +0.123 C 
ENDROOT
BRANCH   1   3
ATOM      2  C   UNL A   1     -23.307   1.750  26.623  0.00  0.00    +0.154 C 
ATOM      3  C   UNL A   1     -24.369   0.611  28.282  0.00  0.00    -0.001 C 
ATOM      4  C   UNL A   1     -24.491   1.290  27.038  0.00  0.00    +0.026 C 
ATOM      5  F   UNL A   1     -23.029   2.485  25.502  0.00  0.00    -0.206 F 
ATOM      6  F   UNL A   1     -21.109   1.768  27.480  0.00  0.00    -0.225 F 
ATOM      7  C   UNL A   1     -22.434   1.420  27.549  0.00  0.00    +0.232 C 
ATOM      8  C   UNL A   1     -23.020   0.760  28.582  0.00  0.00    +0.013 C 
BRANCH   4   9
ATOM      9  C   UNL A   1     -25.688   1.614  26.461  0.00  0.00    +0.040 C 
ATOM     10  C   UNL A   1     -26.250   2.920  26.395  0.00  0.00    +0.077 C 
ATOM     11  C   UNL A   1     -27.438   3.091  25.645  0.00  0.00    +0.107 C 
ATOM     12  N   UNL A   1     -28.075   2.089  25.003  0.00  0.00    -0.208 NA
ATOM     13  C   UNL A   1     -27.543   0.849  25.079  0.00  0.00    +0.253 C 
ATOM     14  C   UNL A   1     -26.354   0.576  25.777  0.00  0.00    +0.193 C 
ATOM     15  F   UNL A   1     -25.860  -0.681  25.795  0.00  0.00    -0.199 F 
BRANCH  10  16
ATOM     16  C   UNL A   1     -25.642   4.093  27.123  0.00  0.00    +0.266 C 
ATOM     17  N   UNL A   1     -25.614   5.252  26.449  0.00  0.00    -0.200 NA
ATOM     18  C   UNL A   1     -25.026   6.479  26.963  0.00  0.00    +0.139 C 
ATOM     19  O   UNL A   1     -25.143   3.966  28.243  0.00  0.00    -0.268 OA
ENDBRANCH  10  16
BRANCH  13  20
ATOM     20  O   UNL A   1     -28.193  -0.208  24.477  0.00  0.00    -0.456 OA
BRANCH  20  21
ATOM     21  C   UNL A   1     -29.460   0.005  23.866  0.00  0.00    +0.243 C 
BRANCH  21  22
ATOM     22  C   UNL A   1     -30.065  -1.377  23.573  0.00  0.00    +0.229 C 
ATOM     23  O   UNL A   1     -30.729  -1.878  24.721  0.00  0.00    -0.216 OA
ENDBRANCH  21  22
ENDBRANCH  20  21
ENDBRANCH  13  20
ENDBRANCH   4   9
ENDBRANCH   1   3
BRANCH   1  24
ATOM     24  N   UNL A   1     -26.635  -0.098  28.675  0.00  0.00    -0.202 NA
ATOM     25  O   UNL A   1     -28.830  -0.497  28.344  0.00  0.00    -0.273 OA
ATOM     26  C   UNL A   1     -27.916  -0.130  29.055  0.00  0.00    +0.246 C 
BRANCH  26  27
ATOM     27  C   UNL A   1     -28.237   0.406  30.407  0.00  0.00    +0.113 C 
BRANCH  27  29
ATOM     28  C   UNL A   1     -29.467   4.775  27.956  0.00  0.00    +0.031 C 
ATOM     29  C   UNL A   1     -28.749   1.833  30.375  0.00  0.00    -0.013 C 
ATOM     30  C   UNL A   1     -29.939   4.364  30.380  0.00  0.00    -0.004 C 
ATOM     31  C   UNL A   1     -29.396   3.877  29.191  0.00  0.00    -0.022 C 
ATOM     32  C   UNL A   1     -29.289   2.369  31.560  0.00  0.00    -0.004 C 
ATOM     33  C   UNL A   1     -29.868   3.630  31.553  0.00  0.00    -0.001 C 
ATOM     34  C   UNL A   1     -28.785   2.605  29.195  0.00  0.00    -0.008 C 
ENDBRANCH  27  29
ENDBRANCH  26  27
ENDBRANCH   1  24
BRANCH   1  35
ATOM     35  C   UNL A   1     -24.855  -1.012  30.143  0.00  0.00    +0.062 C 
BRANCH  35  36
ATOM     36  C   UNL A   1     -24.973  -2.505  29.788  0.00  0.00    -0.019 C 
ATOM     37  C   UNL A   1     -23.906  -3.173  29.146  0.00  0.00    -0.004 C 
ATOM     38  C   UNL A   1     -23.989  -4.549  28.853  0.00  0.00    -0.000 C 
ATOM     39  C   UNL A   1     -25.137  -5.280  29.205  0.00  0.00    -0.000 C 
ATOM     40  C   UNL A   1     -26.232  -4.611  29.784  0.00  0.00    -0.000 C 
ATOM     41  C   UNL A   1     -26.155  -3.232  30.065  0.00  0.00    -0.004 C 
ENDBRANCH  35  36
BRANCH  35  42
ATOM     42  C   UNL A   1     -25.387  -0.679  31.571  0.00  0.00    +0.079 C 
ATOM     43  C   UNL A   1     -25.189   0.773  32.028  0.00  0.00    +0.019 C 
ATOM     44  C   UNL A   1     -25.336   0.684  33.544  0.00  0.00    +0.020 C 
ATOM     45  C   UNL A   1     -24.829  -0.715  33.905  0.00  0.00    +0.089 C 
ATOM     46  N   UNL A   1     -24.758  -1.481  32.646  0.00  0.00    -0.219 NA
ENDBRANCH  35  42
ENDBRANCH   1  35
TORSDOF 12
