MODEL 2625
MODEL 1
REMARK VINA RESULT:    -4.845      0.000      0.000
REMARK INTER + INTRA:          -5.177
REMARK INTER:                  -5.129
REMARK INTRA:                  -0.049
REMARK UNBOUND:                -0.049
REMARK  Name = No_2625-gen_results/8p0m/2024-11-27-11-27-31/
REMARK  1 active torsions:
REMARK  status: ('A' for Active; 'I' for Inactive)
REMARK    1  A    between atoms: C_1  and  C_8
REMARK                            x       y       z     vdW  Elec       q    Type
REMARK                         _______ _______ _______ _____ _____    ______ ____
ROOT
ATOM      1  C   UNL A   1     -23.363  -1.898  28.937  0.00  0.00    -0.014 C 
ATOM      2  C   UNL A   1     -24.177  -2.763  29.166  0.00  0.00    -0.047 C 
ATOM      3  C   UNL A   1     -24.034  -4.100  28.837  0.00  0.00    +0.022 C 
ATOM      4  C   UNL A   1     -25.020  -5.136  29.024  0.00  0.00    +0.004 C 
ATOM      5  C   UNL A   1     -26.264  -4.790  29.604  0.00  0.00    +0.001 C 
ATOM      6  C   UNL A   1     -26.474  -3.435  29.969  0.00  0.00    +0.004 C 
ATOM      7  C   UNL A   1     -25.493  -2.524  29.724  0.00  0.00    +0.022 C 
ENDROOT
BRANCH   1   8
ATOM      8  C   UNL A   1     -23.569  -0.517  29.492  0.00  0.00    +0.135 C 
ATOM      9  N   UNL A   1     -22.909  -0.083  30.553  0.00  0.00    -0.126 NA
ENDBRANCH   1   8
TORSDOF 1
ENDMDL
ENDMDL
