MODEL 2626
MODEL 1
REMARK VINA RESULT:    -6.838      0.000      0.000
REMARK INTER + INTRA:          -7.091
REMARK INTER:                  -7.238
REMARK INTRA:                   0.147
REMARK UNBOUND:                 0.147
REMARK  Name = No_2626-gen_results/8p0m/2024-11-27-11-27-31/
REMARK  1 active torsions:
REMARK  status: ('A' for Active; 'I' for Inactive)
REMARK    1  A    between atoms: C_1  and  C_2
REMARK                            x       y       z     vdW  Elec       q    Type
REMARK                         _______ _______ _______ _____ _____    ______ ____
ROOT
ATOM      1  C   UNL A   1     -24.149  -1.158  29.044  0.00  0.00    +0.081 A 
ATOM      2  N   UNL A   1     -25.309  -1.174  29.716  0.00  0.00    -0.245 NA
ATOM      3  C   UNL A   1     -26.064  -2.282  30.065  0.00  0.00    +0.081 A 
ATOM      4  C   UNL A   1     -25.720  -3.499  29.483  0.00  0.00    +0.018 A 
ATOM      5  C   UNL A   1     -23.551  -2.471  28.846  0.00  0.00    +0.019 A 
ATOM      6  C   UNL A   1     -24.389  -3.642  29.029  0.00  0.00    +0.003 A 
ATOM      7  C   UNL A   1     -26.507  -4.685  29.849  0.00  0.00    +0.002 A 
ATOM      8  C   UNL A   1     -27.840  -4.476  30.303  0.00  0.00    +0.000 A 
ATOM      9  C   UNL A   1     -28.253  -3.180  30.744  0.00  0.00    +0.002 A 
ATOM     10  C   UNL A   1     -27.391  -2.049  30.530  0.00  0.00    +0.019 A 
ENDROOT
BRANCH   1  11
ATOM     11  C   UNL A   1     -23.556  -0.150  28.737  0.00  0.00    +0.018 A 
ATOM     12  C   UNL A   1     -23.923   0.411  27.420  0.00  0.00    +0.002 A 
ATOM     13  C   UNL A   1     -23.186   1.542  26.899  0.00  0.00    +0.000 A 
ATOM     14  C   UNL A   1     -22.145   1.907  27.480  0.00  0.00    +0.000 A 
ATOM     15  C   UNL A   1     -21.257   1.251  27.948  0.00  0.00    +0.000 A 
ATOM     16  C   UNL A   1     -21.814  -0.057  28.472  0.00  0.00    +0.002 A 
ENDBRANCH   1  11
TORSDOF 1
ENDMDL
ENDMDL
