MODEL 2627
MODEL 1
REMARK VINA RESULT:    -6.722      0.000      0.000
REMARK INTER + INTRA:          -9.544
REMARK INTER:                  -9.080
REMARK INTRA:                  -0.464
REMARK UNBOUND:                -0.464
REMARK  Name = No_2627-gen_results/8p0m/2024-11-27-11-27-31/
REMARK  6 active torsions:
REMARK  status: ('A' for Active; 'I' for Inactive)
REMARK    1  A    between atoms: C_1  and  C_8
REMARK    2  A    between atoms: C_5  and  C_10
REMARK    3  A    between atoms: C_8  and  C_9
REMARK    4  A    between atoms: C_8  and  C_13
REMARK    5  A    between atoms: C_13  and  C_16
REMARK    6  A    between atoms: C_21  and  C_22
REMARK                            x       y       z     vdW  Elec       q    Type
REMARK                         _______ _______ _______ _____ _____    ______ ____
ROOT
ATOM      1  C   UNL A   1     -10.109   2.374  35.163  0.00  0.00    +0.241 C 
ATOM      2  O   UNL A   1     -10.731   1.115  34.662  0.00  0.00    -0.209 OA
ENDROOT
BRANCH   1   3
ATOM      3  C   UNL A   1      -9.813   2.242  36.640  0.00  0.00    +0.200 C 
ATOM      4  C   UNL A   1     -10.322   1.283  37.173  0.00  0.00    -0.007 C 
ATOM      5  C   UNL A   1     -11.272   1.342  38.179  0.00  0.00    +0.026 C 
ATOM      6  C   UNL A   1     -11.836   0.218  38.888  0.00  0.00    +0.016 C 
ATOM      7  C   UNL A   1     -11.405  -1.085  38.543  0.00  0.00    +0.104 C 
ATOM      8  C   UNL A   1     -10.434  -1.215  37.515  0.00  0.00    +0.016 C 
ATOM      9  C   UNL A   1      -9.940  -0.093  36.926  0.00  0.00    +0.026 C 
ATOM     10  O   UNL A   1      -8.494   2.364  36.745  0.00  0.00    -0.289 OA
BRANCH   7  11
ATOM     11  C   UNL A   1     -11.954  -2.265  39.197  0.00  0.00    +0.364 C 
ATOM     12  O   UNL A   1     -12.265  -3.228  38.441  0.00  0.00    -0.246 OA
ATOM     13  O   UNL A   1     -11.849  -2.386  40.482  0.00  0.00    -0.246 OA
ENDBRANCH   7  11
ENDBRANCH   1   3
BRANCH   1  14
ATOM     14  C   UNL A   1      -9.024   2.562  34.284  0.00  0.00    +0.245 C 
ATOM     15  O   UNL A   1      -9.226   2.618  33.048  0.00  0.00    -0.285 OA
ENDBRANCH   1  14
BRANCH   1  16
ATOM     16  C   UNL A   1     -11.156   3.417  34.853  0.00  0.00    +0.072 C 
BRANCH  16  17
ATOM     17  C   UNL A   1     -12.125   3.594  35.666  0.00  0.00    -0.019 A 
ATOM     18  C   UNL A   1     -12.222   4.326  36.441  0.00  0.00    -0.004 A 
ATOM     19  C   UNL A   1     -13.388   4.550  37.371  0.00  0.00    -0.000 A 
ATOM     20  C   UNL A   1     -14.434   3.653  37.178  0.00  0.00    -0.000 A 
ATOM     21  C   UNL A   1     -14.385   2.769  36.181  0.00  0.00    -0.001 A 
ATOM     22  C   UNL A   1     -13.291   2.683  35.410  0.00  0.00    +0.022 A 
BRANCH  22  23
ATOM     23  C   UNL A   1     -13.754   2.912  34.494  0.00  0.00    +0.262 C 
ATOM     24 CL   UNL A   1     -13.608   1.736  33.115  0.00  0.00    -0.072 Cl
ATOM     25  F   UNL A   1     -14.825   3.351  34.282  0.00  0.00    -0.214 F 
ENDBRANCH  22  23
ENDBRANCH  16  17
ENDBRANCH   1  16
TORSDOF 6
ENDMDL
ENDMDL
