MODEL 2628
MODEL 1
REMARK VINA RESULT:    -8.115      0.000      0.000
REMARK INTER + INTRA:         -14.087
REMARK INTER:                 -12.384
REMARK INTRA:                  -1.703
REMARK UNBOUND:                -1.703
REMARK  Name = No_2628-gen_results/8p0m/2024-11-27-11-27-31/
REMARK  9 active torsions:
REMARK  status: ('A' for Active; 'I' for Inactive)
REMARK    1  A    between atoms: C_2  and  C_8
REMARK    2  A    between atoms: C_4  and  C_17
REMARK    3  A    between atoms: C_6  and  O_21
REMARK    4  A    between atoms: C_12  and  C_14
REMARK    5  A    between atoms: O_21  and  C_22
REMARK    6  A    between atoms: C_22  and  C_23
REMARK    7  A    between atoms: C_23  and  C_24
REMARK    8  A    between atoms: C_23  and  N_26
REMARK    9  A    between atoms: N_26  and  C_27
REMARK                            x       y       z     vdW  Elec       q    Type
REMARK                         _______ _______ _______ _____ _____    ______ ____
ROOT
ATOM      1  C   UNL A   1     -25.959   0.670  27.061  0.00  0.00    +0.039 A 
ATOM      2  C   UNL A   1     -25.912   0.739  25.854  0.00  0.00    +0.003 A 
ATOM      3  C   UNL A   1     -24.869   1.286  25.126  0.00  0.00    +0.006 A 
ATOM      4  C   UNL A   1     -23.752   1.777  25.863  0.00  0.00    +0.102 A 
ATOM      5  C   UNL A   1     -23.770   1.549  27.192  0.00  0.00    +0.178 A 
ATOM      6  C   UNL A   1     -24.794   0.930  27.786  0.00  0.00    +0.166 A 
ATOM      7  F   UNL A   1     -22.703   1.934  27.876  0.00  0.00    -0.201 F 
ENDROOT
BRANCH   2   8
ATOM      8  C   UNL A   1     -27.147   0.359  24.954  0.00  0.00    +0.000 A 
ATOM      9  C   UNL A   1     -27.349  -0.617  24.520  0.00  0.00    +0.000 A 
ATOM     10  C   UNL A   1     -28.531  -0.952  23.658  0.00  0.00    +0.000 A 
ATOM     11  C   UNL A   1     -29.441   0.075  23.381  0.00  0.00    +0.005 A 
ATOM     12  C   UNL A   1     -29.127   1.280  23.916  0.00  0.00    +0.057 A 
ATOM     13  C   UNL A   1     -28.041   1.553  24.735  0.00  0.00    +0.005 A 
BRANCH  12  14
ATOM     14  C   UNL A   1     -30.059   2.423  23.547  0.00  0.00    +0.284 C 
ATOM     15  N   UNL A   1     -30.863   2.392  22.545  0.00  0.00    -0.084 NA
ATOM     16  O   UNL A   1     -29.964   3.508  24.234  0.00  0.00    -0.267 OA
ENDBRANCH  12  14
ENDBRANCH   2   8
BRANCH   4  17
ATOM     17  C   UNL A   1     -22.616   2.333  25.109  0.00  0.00    +0.421 C 
ATOM     18  F   UNL A   1     -21.438   2.103  25.571  0.00  0.00    -0.166 F 
ATOM     19  F   UNL A   1     -22.562   1.634  23.904  0.00  0.00    -0.166 F 
ATOM     20  F   UNL A   1     -22.801   3.619  24.831  0.00  0.00    -0.166 F 
ENDBRANCH   4  17
BRANCH   6  21
ATOM     21  O   UNL A   1     -24.791   0.757  29.099  0.00  0.00    -0.471 OA
BRANCH  21  22
ATOM     22  C   UNL A   1     -24.228  -0.289  29.702  0.00  0.00    +0.231 C 
BRANCH  22  23
ATOM     23  C   UNL A   1     -24.999  -1.203  30.297  0.00  0.00    +0.158 C 
BRANCH  23  24
ATOM     24  C   UNL A   1     -25.046  -2.472  29.770  0.00  0.00    +0.001 A 
ATOM     25  C   UNL A   1     -24.093  -2.952  29.205  0.00  0.00    -0.003 A 
ATOM     26  C   UNL A   1     -24.022  -4.329  28.682  0.00  0.00    -0.000 A 
ATOM     27  C   UNL A   1     -25.119  -5.157  28.968  0.00  0.00    -0.000 A 
ATOM     28  C   UNL A   1     -26.233  -4.654  29.658  0.00  0.00    -0.000 A 
ATOM     29  C   UNL A   1     -26.206  -3.333  30.060  0.00  0.00    -0.003 A 
ENDBRANCH  23  24
BRANCH  23  30
ATOM     30  N   UNL A   1     -24.699  -1.380  31.775  0.00  0.00    -0.230 NA
BRANCH  30  31
ATOM     31  C   UNL A   1     -24.551  -0.801  32.604  0.00  0.00    +0.081 C 
ATOM     32  C   UNL A   1     -23.976  -1.230  33.897  0.00  0.00    +0.019 C 
ENDBRANCH  30  31
ENDBRANCH  23  30
ENDBRANCH  22  23
ENDBRANCH  21  22
ENDBRANCH   6  21
TORSDOF 9
ENDMDL
ENDMDL
