REMARK  Name = outputs/IAG933/test6/raw/output_2628_IAG933_linker_design_.xyz
REMARK  17 active torsions:
REMARK  status: ('A' for Active; 'I' for Inactive)
REMARK    1  A    between atoms: C_1  and  C_2
REMARK    2  A    between atoms: C_1  and  C_8
REMARK    3  A    between atoms: C_1  and  N_36
REMARK    4  A    between atoms: C_13  and  N_38
REMARK    5  A    between atoms: C_14  and  C_15
REMARK    6  A    between atoms: C_21  and  O_22
REMARK    7  A    between atoms: O_22  and  C_23
REMARK    8  A    between atoms: C_23  and  C_24
REMARK    9  A    between atoms: C_28  and  N_32
REMARK   10  A    between atoms: C_28  and  C_37
REMARK   11  A    between atoms: N_32  and  C_43
REMARK   12  A    between atoms: C_33  and  C_43
REMARK   13  A    between atoms: N_36  and  C_37
REMARK   14  A    between atoms: N_36  and  C_42
REMARK   15  A    between atoms: C_40  and  O_44
REMARK   16  A    between atoms: C_40  and  C_48
REMARK   17  A    between atoms: C_43  and  C_48
REMARK                            x       y       z     vdW  Elec       q    Type
REMARK                         _______ _______ _______ _____ _____    ______ ____
ROOT
ATOM      1  N   UNL A   1     -25.373  -0.142  29.026  0.00  0.00    -0.253 NA
ENDROOT
BRANCH   1   5
ATOM      2  N   UNL A   1     -24.536   1.337  26.980  0.00  0.00    -0.294 N 
ATOM      3  C   UNL A   1     -22.904   0.318  28.306  0.00  0.00    +0.038 C 
ATOM      4  C   UNL A   1     -22.505   1.764  27.976  0.00  0.00    +0.023 C 
ATOM      5  C   UNL A   1     -24.397   0.195  27.880  0.00  0.00    +0.135 C 
ATOM      6  C   UNL A   1     -20.999   1.902  27.812  0.00  0.00    +0.002 C 
ATOM      7  C   UNL A   1     -23.263   2.109  26.707  0.00  0.00    +0.092 C 
BRANCH   2   8
ATOM      8  C   UNL A   1     -25.688   1.614  26.461  0.00  0.00    +0.087 C 
ATOM      9  C   UNL A   1     -26.250   2.920  26.395  0.00  0.00    +0.090 C 
ATOM     10  C   UNL A   1     -27.438   3.091  25.645  0.00  0.00    +0.108 C 
ATOM     11  N   UNL A   1     -28.075   2.089  25.003  0.00  0.00    -0.208 NA
ATOM     12  C   UNL A   1     -27.543   0.849  25.079  0.00  0.00    +0.255 C 
ATOM     13  C   UNL A   1     -26.354   0.576  25.777  0.00  0.00    +0.206 C 
ATOM     14  F   UNL A   1     -25.860  -0.681  25.795  0.00  0.00    -0.198 F 
BRANCH   9  15
ATOM     15  C   UNL A   1     -25.642   4.093  27.123  0.00  0.00    +0.268 C 
ATOM     16  N   UNL A   1     -25.614   5.252  26.449  0.00  0.00    -0.200 NA
ATOM     17  C   UNL A   1     -25.026   6.479  26.963  0.00  0.00    +0.139 C 
ATOM     18  O   UNL A   1     -25.143   3.966  28.243  0.00  0.00    -0.268 OA
ENDBRANCH   9  15
BRANCH  12  19
ATOM     19  O   UNL A   1     -28.193  -0.208  24.477  0.00  0.00    -0.456 OA
BRANCH  19  20
ATOM     20  C   UNL A   1     -29.460   0.005  23.866  0.00  0.00    +0.243 C 
BRANCH  20  21
ATOM     21  C   UNL A   1     -30.065  -1.377  23.573  0.00  0.00    +0.229 C 
ATOM     22  O   UNL A   1     -30.729  -1.878  24.721  0.00  0.00    -0.216 OA
ENDBRANCH  20  21
ENDBRANCH  19  20
ENDBRANCH  12  19
ENDBRANCH   2   8
ENDBRANCH   1   5
BRANCH   1  23
ATOM     23  C   UNL A   1     -26.926  -0.116  28.866  0.00  0.00    +0.093 C 
BRANCH  23  24
ATOM     24  C   UNL A   1     -27.546   1.242  29.251  0.00  0.00    +0.106 C 
BRANCH  24  25
ATOM     25  N   UNL A   1     -27.400   1.950  30.546  0.00  0.00    -0.213 NA
BRANCH  25  26
ATOM     26  C   UNL A   1     -27.389   3.379  30.502  0.00  0.00    +0.099 C 
BRANCH  26  30
ATOM     27  C   UNL A   1     -30.631   5.600  29.355  0.00  0.00    +0.117 C 
ATOM     28  C   UNL A   1     -30.645   5.028  30.614  0.00  0.00    -0.005 C 
ATOM     29  C   UNL A   1     -29.593   4.180  31.014  0.00  0.00    -0.004 C 
ATOM     30  C   UNL A   1     -28.503   3.990  30.104  0.00  0.00    +0.008 C 
ATOM     31  C   UNL A   1     -29.476   6.339  27.279  0.00  0.00    +0.113 C 
ATOM     32  N   UNL A   1     -29.574   5.431  28.454  0.00  0.00    -0.301 N 
ATOM     33  C   UNL A   1     -28.563   4.510  28.762  0.00  0.00    +0.059 C 
ENDBRANCH  26  30
BRANCH  26  34
ATOM     34  C   UNL A   1     -26.037   4.029  30.627  0.00  0.00    +0.054 C 
BRANCH  34  35
ATOM     35  C   UNL A   1     -25.477   4.162  32.057  0.00  0.00    +0.144 C 
BRANCH  35  36
ATOM     36  O   UNL A   1     -26.456   4.704  32.872  0.00  0.00    -0.351 OA
ATOM     37  C   UNL A   1     -25.829   5.732  33.659  0.00  0.00    +0.174 C 
ENDBRANCH  35  36
ENDBRANCH  34  35
ENDBRANCH  26  34
ENDBRANCH  25  26
ENDBRANCH  24  25
ENDBRANCH  23  24
ENDBRANCH   1  23
BRANCH   1  38
ATOM     38  C   UNL A   1     -24.855  -1.012  30.143  0.00  0.00    +0.098 C 
BRANCH  38  39
ATOM     39  C   UNL A   1     -24.973  -2.505  29.788  0.00  0.00    -0.006 C 
ATOM     40  C   UNL A   1     -23.906  -3.173  29.146  0.00  0.00    -0.003 C 
ATOM     41  C   UNL A   1     -23.989  -4.549  28.853  0.00  0.00    -0.000 C 
ATOM     42  C   UNL A   1     -25.137  -5.280  29.205  0.00  0.00    -0.000 C 
ATOM     43  C   UNL A   1     -26.232  -4.611  29.784  0.00  0.00    -0.000 C 
ATOM     44  C   UNL A   1     -26.155  -3.232  30.065  0.00  0.00    -0.003 C 
ENDBRANCH  38  39
BRANCH  38  45
ATOM     45  C   UNL A   1     -25.387  -0.679  31.571  0.00  0.00    +0.092 C 
ATOM     46  C   UNL A   1     -25.189   0.773  32.028  0.00  0.00    +0.021 C 
ATOM     47  C   UNL A   1     -25.336   0.684  33.544  0.00  0.00    +0.020 C 
ATOM     48  C   UNL A   1     -24.829  -0.715  33.905  0.00  0.00    +0.089 C 
ATOM     49  N   UNL A   1     -24.758  -1.481  32.646  0.00  0.00    -0.218 NA
ENDBRANCH  38  45
ENDBRANCH   1  38
TORSDOF 17
