MODEL 2629
MODEL 1
REMARK VINA RESULT:    -7.069      0.000      0.000
REMARK INTER + INTRA:          -7.519
REMARK INTER:                  -7.483
REMARK INTRA:                  -0.036
REMARK UNBOUND:                -0.036
REMARK  Name = No_2629-gen_results/8p0m/2024-11-27-11-27-31/
REMARK  1 active torsions:
REMARK  status: ('A' for Active; 'I' for Inactive)
REMARK    1  A    between atoms: C_15  and  C_16
REMARK                            x       y       z     vdW  Elec       q    Type
REMARK                         _______ _______ _______ _____ _____    ______ ____
ROOT
ATOM      1  O   UNL A   1     -23.546   2.244  30.762  0.00  0.00    -0.268 OA
ATOM      2  C   UNL A   1     -23.471   1.053  30.436  0.00  0.00    +0.265 C 
ATOM      3  C   UNL A   1     -23.592   0.435  29.609  0.00  0.00    +0.051 A 
ATOM      4  N   UNL A   1     -23.382   0.152  31.774  0.00  0.00    -0.201 NA
ATOM      5  C   UNL A   1     -23.546   0.930  28.253  0.00  0.00    +0.004 A 
ATOM      6  C   UNL A   1     -23.036   1.782  27.883  0.00  0.00    +0.000 A 
ATOM      7  C   UNL A   1     -23.148   2.327  26.449  0.00  0.00    +0.000 A 
ATOM      8  C   UNL A   1     -23.918   1.572  25.570  0.00  0.00    +0.000 A 
ATOM      9  C   UNL A   1     -24.586   0.437  26.000  0.00  0.00    +0.000 A 
ATOM     10  C   UNL A   1     -24.429   0.012  27.277  0.00  0.00    +0.000 A 
ATOM     11  C   UNL A   1     -23.530  -1.134  31.789  0.00  0.00    +0.120 C 
ATOM     12  C   UNL A   1     -23.844  -1.655  30.886  0.00  0.00    +0.050 C 
ATOM     13  C   UNL A   1     -23.848  -1.160  29.597  0.00  0.00    -0.011 A 
ATOM     14  C   UNL A   1     -25.005  -1.226  27.654  0.00  0.00    +0.004 A 
ATOM     15  C   UNL A   1     -24.554  -1.851  28.635  0.00  0.00    +0.053 A 
ENDROOT
BRANCH  15  16
ATOM     16  C   UNL A   1     -24.982  -3.266  28.899  0.00  0.00    +0.284 C 
ATOM     17  O   UNL A   1     -26.098  -3.592  29.448  0.00  0.00    -0.267 OA
ATOM     18  N   UNL A   1     -24.080  -4.279  28.596  0.00  0.00    -0.084 NA
ENDBRANCH  15  16
TORSDOF 1
ENDMDL
ENDMDL
