MODEL 262
MODEL 1
REMARK VINA RESULT:    -6.907      0.000      0.000
REMARK INTER + INTRA:          -9.294
REMARK INTER:                  -8.119
REMARK INTRA:                  -1.175
REMARK UNBOUND:                -1.175
REMARK  Name = No_262-gen_results/8p0m/2024-11-27-11-27-31/
REMARK  3 active torsions:
REMARK  status: ('A' for Active; 'I' for Inactive)
REMARK    1  A    between atoms: C_3  and  C_4
REMARK    2  A    between atoms: C_4  and  C_8
REMARK    3  A    between atoms: C_7  and  C_17
REMARK                            x       y       z     vdW  Elec       q    Type
REMARK                         _______ _______ _______ _____ _____    ______ ____
ROOT
ATOM      1  C   UNL A   1     -23.782   1.508  30.888  0.00  0.00    +0.027 A 
ATOM      2  C   UNL A   1     -24.368   1.393  31.757  0.00  0.00    +0.150 A 
ATOM      3  C   UNL A   1     -23.347   0.221  30.223  0.00  0.00    -0.015 A 
ATOM      4  C   UNL A   1     -25.037   0.222  32.340  0.00  0.00    +0.085 A 
ATOM      5  C   UNL A   1     -24.711  -0.989  31.768  0.00  0.00    +0.013 A 
ATOM      6  C   UNL A   1     -23.884  -1.038  30.675  0.00  0.00    -0.003 A 
ATOM      7  F   UNL A   1     -24.785   2.605  32.396  0.00  0.00    -0.203 F 
ATOM      8 CL   UNL A   1     -26.103   0.367  33.689  0.00  0.00    -0.080 Cl
ENDROOT
BRANCH   6   9
ATOM      9  C   UNL A   1     -23.633  -2.279  30.059  0.00  0.00    -0.005 C 
ATOM     10  C   UNL A   1     -24.571  -2.892  29.368  0.00  0.00    -0.026 C 
ATOM     11  C   UNL A   1     -24.266  -4.196  28.688  0.00  0.00    +0.031 C 
ENDBRANCH   6   9
BRANCH   3  12
ATOM     12  C   UNL A   1     -22.430   0.100  29.118  0.00  0.00    +0.055 C 
BRANCH  12  13
ATOM     13  C   UNL A   1     -22.923   0.574  27.838  0.00  0.00    +0.010 A 
ATOM     14  C   UNL A   1     -22.240   1.613  27.239  0.00  0.00    +0.137 A 
ATOM     15  C   UNL A   1     -22.793   2.218  26.060  0.00  0.00    +0.029 A 
ATOM     16  C   UNL A   1     -24.036   1.713  25.571  0.00  0.00    +0.002 A 
ATOM     17  C   UNL A   1     -24.177   0.238  27.287  0.00  0.00    -0.002 A 
ATOM     18  C   UNL A   1     -24.695   0.808  26.208  0.00  0.00    -0.000 A 
ATOM     19  F   UNL A   1     -21.158   2.117  27.613  0.00  0.00    -0.204 F 
ENDBRANCH  12  13
ENDBRANCH   3  12
TORSDOF 3
ENDMDL
ENDMDL
