MODEL 2630
MODEL 1
REMARK VINA RESULT:    -6.801      0.000      0.000
REMARK INTER + INTRA:          -7.453
REMARK INTER:                  -7.198
REMARK INTRA:                  -0.255
REMARK UNBOUND:                -0.255
REMARK  Name = No_2630-gen_results/8p0m/2024-11-27-11-27-31/
REMARK  1 active torsions:
REMARK  status: ('A' for Active; 'I' for Inactive)
REMARK    1  A    between atoms: C_4  and  C_7
REMARK                            x       y       z     vdW  Elec       q    Type
REMARK                         _______ _______ _______ _____ _____    ______ ____
ROOT
ATOM      1  C   UNL A   1     -23.342   0.687  27.523  0.00  0.00    +0.023 A 
ATOM      2  C   UNL A   1     -22.399   0.658  27.993  0.00  0.00    +0.059 A 
ATOM      3  C   UNL A   1     -24.263  -0.470  27.843  0.00  0.00    +0.059 A 
ATOM      4  C   UNL A   1     -23.880  -1.407  28.826  0.00  0.00    +0.011 A 
ATOM      5  C   UNL A   1     -21.778  -0.163  29.057  0.00  0.00    +0.011 A 
ATOM      6  C   UNL A   1     -22.599  -1.234  29.382  0.00  0.00    +0.002 A 
ATOM      7 CL   UNL A   1     -21.372   2.045  27.391  0.00  0.00    -0.082 Cl
ATOM      8 CL   UNL A   1     -25.798  -0.638  27.114  0.00  0.00    -0.082 Cl
ENDROOT
BRANCH   4   9
ATOM      9  C   UNL A   1     -24.697  -2.525  29.154  0.00  0.00    +0.001 A 
ATOM     10  C   UNL A   1     -25.780  -2.441  29.808  0.00  0.00    +0.000 A 
ATOM     11  C   UNL A   1     -26.684  -3.585  30.021  0.00  0.00    +0.000 A 
ATOM     12  C   UNL A   1     -24.219  -3.874  28.787  0.00  0.00    +0.000 A 
ATOM     13  C   UNL A   1     -25.071  -5.033  29.058  0.00  0.00    +0.000 A 
ATOM     14  C   UNL A   1     -26.312  -4.792  29.665  0.00  0.00    +0.000 A 
ENDBRANCH   4   9
TORSDOF 1
ENDMDL
ENDMDL
