REMARK  Name = outputs/IAG933/test6/raw/output_2630_IAG933_linker_design_.xyz
REMARK  11 active torsions:
REMARK  status: ('A' for Active; 'I' for Inactive)
REMARK    1  A    between atoms: C_1  and  C_2
REMARK    2  A    between atoms: C_1  and  C_8
REMARK    3  A    between atoms: C_1  and  N_39
REMARK    4  A    between atoms: C_13  and  O_33
REMARK    5  A    between atoms: C_14  and  C_15
REMARK    6  A    between atoms: C_21  and  O_22
REMARK    7  A    between atoms: O_22  and  C_23
REMARK    8  A    between atoms: C_23  and  C_24
REMARK    9  A    between atoms: C_28  and  O_33
REMARK   10  A    between atoms: C_38  and  N_39
REMARK   11  A    between atoms: N_39  and  C_41
REMARK                            x       y       z     vdW  Elec       q    Type
REMARK                         _______ _______ _______ _____ _____    ______ ____
ROOT
ATOM      1  C   UNL A   1     -23.805   1.276  27.533  0.00  0.00    +0.169 C 
ATOM      2 CL   UNL A   1     -22.934   2.392  25.296  0.00  0.00    -0.079 Cl
ATOM      3  C   UNL A   1     -21.440   0.975  28.693  0.00  0.00    +0.002 C 
ATOM      4  C   UNL A   1     -21.520   1.685  27.524  0.00  0.00    +0.015 C 
ATOM      5  C   UNL A   1     -22.759   1.792  26.916  0.00  0.00    +0.093 C 
ATOM      6  C   UNL A   1     -23.812   0.553  28.649  0.00  0.00    +0.085 C 
ATOM      7  C   UNL A   1     -22.580   0.431  29.236  0.00  0.00    +0.018 C 
ENDROOT
BRANCH   1   8
ATOM      8  O   UNL A   1     -24.943   1.365  27.049  0.00  0.00    -0.449 OA
BRANCH   8   9
ATOM      9  C   UNL A   1     -25.688   1.614  26.461  0.00  0.00    +0.183 C 
ATOM     10  C   UNL A   1     -26.250   2.920  26.395  0.00  0.00    +0.111 C 
ATOM     11  C   UNL A   1     -27.438   3.091  25.645  0.00  0.00    +0.110 C 
ATOM     12  N   UNL A   1     -28.075   2.089  25.003  0.00  0.00    -0.208 NA
ATOM     13  C   UNL A   1     -27.543   0.849  25.079  0.00  0.00    +0.256 C 
ATOM     14  C   UNL A   1     -26.354   0.576  25.777  0.00  0.00    +0.227 C 
ATOM     15  F   UNL A   1     -25.860  -0.681  25.795  0.00  0.00    -0.196 F 
BRANCH  10  16
ATOM     16  C   UNL A   1     -25.642   4.093  27.123  0.00  0.00    +0.269 C 
ATOM     17  N   UNL A   1     -25.614   5.252  26.449  0.00  0.00    -0.200 NA
ATOM     18  C   UNL A   1     -25.026   6.479  26.963  0.00  0.00    +0.139 C 
ATOM     19  O   UNL A   1     -25.143   3.966  28.243  0.00  0.00    -0.268 OA
ENDBRANCH  10  16
BRANCH  13  20
ATOM     20  O   UNL A   1     -28.193  -0.208  24.477  0.00  0.00    -0.456 OA
BRANCH  20  21
ATOM     21  C   UNL A   1     -29.460   0.005  23.866  0.00  0.00    +0.243 C 
BRANCH  21  22
ATOM     22  C   UNL A   1     -30.065  -1.377  23.573  0.00  0.00    +0.229 C 
ATOM     23  O   UNL A   1     -30.729  -1.878  24.721  0.00  0.00    -0.216 OA
ENDBRANCH  21  22
ENDBRANCH  20  21
ENDBRANCH  13  20
ENDBRANCH   8   9
ENDBRANCH   1   8
BRANCH   6  24
ATOM     24  N   UNL A   1     -24.933   0.001  29.181  0.00  0.00    -0.286 N 
BRANCH  24  29
ATOM     25  C   UNL A   1     -28.225   1.948  29.098  0.00  0.00    +0.090 C 
ATOM     26  N   UNL A   1     -27.411  -0.241  28.969  0.00  0.00    -0.187 NA
ATOM     27  C   UNL A   1     -26.928   1.877  29.874  0.00  0.00    +0.052 C 
ATOM     28  C   UNL A   1     -28.338   0.565  28.482  0.00  0.00    +0.243 C 
ATOM     29  C   UNL A   1     -26.221   0.657  29.249  0.00  0.00    +0.171 C 
ATOM     30  O   UNL A   1     -29.075   0.267  27.618  0.00  0.00    -0.273 OA
ENDBRANCH  24  29
BRANCH  24  31
ATOM     31  C   UNL A   1     -24.855  -1.012  30.143  0.00  0.00    +0.113 C 
BRANCH  31  32
ATOM     32  C   UNL A   1     -24.973  -2.505  29.788  0.00  0.00    -0.003 C 
ATOM     33  C   UNL A   1     -23.906  -3.173  29.146  0.00  0.00    -0.003 C 
ATOM     34  C   UNL A   1     -23.989  -4.549  28.853  0.00  0.00    -0.000 C 
ATOM     35  C   UNL A   1     -25.137  -5.280  29.205  0.00  0.00    -0.000 C 
ATOM     36  C   UNL A   1     -26.232  -4.611  29.784  0.00  0.00    -0.000 C 
ATOM     37  C   UNL A   1     -26.155  -3.232  30.065  0.00  0.00    -0.003 C 
ENDBRANCH  31  32
BRANCH  31  38
ATOM     38  C   UNL A   1     -25.387  -0.679  31.571  0.00  0.00    +0.095 C 
ATOM     39  C   UNL A   1     -25.189   0.773  32.028  0.00  0.00    +0.021 C 
ATOM     40  C   UNL A   1     -25.336   0.684  33.544  0.00  0.00    +0.020 C 
ATOM     41  C   UNL A   1     -24.829  -0.715  33.905  0.00  0.00    +0.089 C 
ATOM     42  N   UNL A   1     -24.758  -1.481  32.646  0.00  0.00    -0.217 NA
ENDBRANCH  31  38
ENDBRANCH  24  31
ENDBRANCH   6  24
TORSDOF 11
