REMARK  Name = No_2631-gen_results/8p0m/2024-11-27-11-27-31/
REMARK  3 active torsions:
REMARK  status: ('A' for Active; 'I' for Inactive)
REMARK    1  A    between atoms: C_2  and  O_9
REMARK    2  A    between atoms: O_9  and  C_10
REMARK    3  A    between atoms: C_11  and  C_12
REMARK                            x       y       z     vdW  Elec       q    Type
REMARK                         _______ _______ _______ _____ _____    ______ ____
ROOT
ATOM      1  O   UNL A   1     -27.172   1.031  27.821  0.00  0.00    -0.449 OA
ENDROOT
BRANCH   1   3
ATOM      2  C   UNL A   1     -28.016  -0.814  28.878  0.00  0.00    +0.051 A 
ATOM      3  C   UNL A   1     -27.064  -0.119  28.608  0.00  0.00    +0.173 A 
ATOM      4  C   UNL A   1     -25.765  -0.390  29.036  0.00  0.00    +0.174 A 
ATOM      5  C   UNL A   1     -25.530  -1.530  29.901  0.00  0.00    +0.034 A 
ATOM      6  C   UNL A   1     -26.658  -2.292  30.203  0.00  0.00    +0.014 A 
ATOM      7  C   UNL A   1     -27.855  -1.956  29.763  0.00  0.00    +0.061 A 
ATOM      8  F   UNL A   1     -24.699   0.359  28.778  0.00  0.00    -0.201 F 
ATOM      9 CL   UNL A   1     -29.205  -2.946  30.217  0.00  0.00    -0.082 Cl
ENDBRANCH   1   3
BRANCH   1  10
ATOM     10  C   UNL A   1     -27.264   2.135  28.092  0.00  0.00    +0.175 C 
ATOM     11  C   UNL A   1     -26.966   3.079  27.250  0.00  0.00    +0.012 C 
ATOM     12  C   UNL A   1     -27.893   4.368  27.416  0.00  0.00    +0.034 C 
BRANCH  11  13
ATOM     13  C   UNL A   1     -25.994   3.568  27.127  0.00  0.00    -0.019 C 
ATOM     14  C   UNL A   1     -24.824   3.314  27.945  0.00  0.00    -0.004 C 
ATOM     15  C   UNL A   1     -23.483   3.693  27.627  0.00  0.00    -0.005 C 
ATOM     16  C   UNL A   1     -23.410   3.898  26.186  0.00  0.00    -0.021 C 
ATOM     17  C   UNL A   1     -24.878   3.873  25.897  0.00  0.00    +0.052 C 
ENDBRANCH  11  13
ENDBRANCH   1  10
TORSDOF 3
