MODEL 2631
MODEL 1
REMARK VINA RESULT:    -7.096      0.000      0.000
REMARK INTER + INTRA:          -8.960
REMARK INTER:                  -8.341
REMARK INTRA:                  -0.619
REMARK UNBOUND:                -0.619
REMARK  Name = No_2631-gen_results/8p0m/2024-11-27-11-27-31/
REMARK  3 active torsions:
REMARK  status: ('A' for Active; 'I' for Inactive)
REMARK    1  A    between atoms: C_2  and  O_9
REMARK    2  A    between atoms: O_9  and  C_10
REMARK    3  A    between atoms: C_11  and  C_12
REMARK                            x       y       z     vdW  Elec       q    Type
REMARK                         _______ _______ _______ _____ _____    ______ ____
ROOT
ATOM      1  O   UNL A   1     -24.487  -0.231  29.693  0.00  0.00    -0.449 OA
ENDROOT
BRANCH   1   3
ATOM      2  C   UNL A   1     -23.970   1.178  27.967  0.00  0.00    +0.051 A 
ATOM      3  C   UNL A   1     -23.599   0.416  28.829  0.00  0.00    +0.173 A 
ATOM      4  C   UNL A   1     -22.259   0.109  29.065  0.00  0.00    +0.174 A 
ATOM      5  C   UNL A   1     -21.243   0.680  28.202  0.00  0.00    +0.034 A 
ATOM      6  C   UNL A   1     -21.716   1.537  27.209  0.00  0.00    +0.014 A 
ATOM      7  C   UNL A   1     -23.005   1.763  27.050  0.00  0.00    +0.061 A 
ATOM      8  F   UNL A   1     -21.815  -0.737  29.987  0.00  0.00    -0.201 F 
ATOM      9 CL   UNL A   1     -23.502   2.819  25.767  0.00  0.00    -0.082 Cl
ENDBRANCH   1   3
BRANCH   1  10
ATOM     10  C   UNL A   1     -25.483  -0.756  29.510  0.00  0.00    +0.175 C 
ATOM     11  C   UNL A   1     -25.710  -1.967  29.924  0.00  0.00    +0.012 C 
ATOM     12  C   UNL A   1     -27.229  -2.196  30.358  0.00  0.00    +0.034 C 
BRANCH  11  13
ATOM     13  C   UNL A   1     -25.537  -2.895  29.370  0.00  0.00    -0.019 C 
ATOM     14  C   UNL A   1     -24.245  -3.359  28.904  0.00  0.00    -0.004 C 
ATOM     15  C   UNL A   1     -23.942  -4.684  28.460  0.00  0.00    -0.005 C 
ATOM     16  C   UNL A   1     -24.949  -5.579  29.015  0.00  0.00    -0.021 C 
ATOM     17  C   UNL A   1     -25.906  -4.538  29.505  0.00  0.00    +0.052 C 
ENDBRANCH  11  13
ENDBRANCH   1  10
TORSDOF 3
ENDMDL
ENDMDL
