REMARK  Name = No_2632-gen_results/8p0m/2024-11-27-11-27-31/
REMARK  5 active torsions:
REMARK  status: ('A' for Active; 'I' for Inactive)
REMARK    1  A    between atoms: C_3  and  C_17
REMARK    2  A    between atoms: C_6  and  C_8
REMARK    3  A    between atoms: N_9  and  C_11
REMARK    4  A    between atoms: C_13  and  C_23
REMARK    5  A    between atoms: C_27  and  C_29
REMARK                            x       y       z     vdW  Elec       q    Type
REMARK                         _______ _______ _______ _____ _____    ______ ____
ROOT
ATOM      1  C   UNL A   1     -29.164  -2.628  30.140  0.00  0.00    +0.269 C 
ATOM      2  N   UNL A   1     -29.160  -3.884  30.418  0.00  0.00    -0.175 NA
ATOM      3  O   UNL A   1     -30.245  -2.045  30.165  0.00  0.00    -0.268 OA
ENDROOT
BRANCH   1   9
ATOM      4  C   UNL A   1     -28.016  -0.814  28.878  0.00  0.00    +0.016 A 
ATOM      5  C   UNL A   1     -27.064  -0.119  28.608  0.00  0.00    +0.058 A 
ATOM      6  C   UNL A   1     -25.792  -0.430  29.076  0.00  0.00    +0.011 A 
ATOM      7  C   UNL A   1     -25.576  -1.565  29.936  0.00  0.00    +0.001 A 
ATOM      8  C   UNL A   1     -26.735  -2.300  30.217  0.00  0.00    +0.005 A 
ATOM      9  C   UNL A   1     -27.918  -1.954  29.763  0.00  0.00    +0.056 A 
ATOM     10 CL   UNL A   1     -27.146   1.292  27.641  0.00  0.00    -0.082 Cl
BRANCH   6  11
ATOM     11  C   UNL A   1     -24.520   0.347  28.718  0.00  0.00    +0.001 A 
ATOM     12  C   UNL A   1     -23.339  -0.154  29.096  0.00  0.00    +0.000 A 
ATOM     13  C   UNL A   1     -22.152   0.599  28.816  0.00  0.00    +0.000 A 
ATOM     14  C   UNL A   1     -22.173   1.621  27.896  0.00  0.00    +0.000 A 
ATOM     15  C   UNL A   1     -23.393   2.146  27.486  0.00  0.00    +0.000 A 
ATOM     16  C   UNL A   1     -24.548   1.488  27.881  0.00  0.00    +0.000 A 
ENDBRANCH   6  11
ENDBRANCH   1   9
BRANCH   2  17
ATOM     17  C   UNL A   1     -30.315  -4.731  30.746  0.00  0.00    +0.074 A 
ATOM     18  C   UNL A   1     -30.956  -5.138  29.612  0.00  0.00    +0.017 A 
ATOM     19  C   UNL A   1     -31.592  -6.322  29.650  0.00  0.00    +0.001 A 
ATOM     20  C   UNL A   1     -31.767  -7.018  30.909  0.00  0.00    +0.000 A 
ATOM     21  C   UNL A   1     -31.063  -6.551  32.020  0.00  0.00    +0.001 A 
ATOM     22  C   UNL A   1     -30.183  -5.460  31.938  0.00  0.00    +0.017 A 
BRANCH  19  23
ATOM     23  C   UNL A   1     -32.400  -6.779  28.505  0.00  0.00    +0.000 A 
ATOM     24  C   UNL A   1     -31.824  -7.738  27.723  0.00  0.00    +0.000 A 
ATOM     25  C   UNL A   1     -32.228  -7.954  26.391  0.00  0.00    +0.000 A 
ATOM     26  C   UNL A   1     -33.278  -7.132  25.908  0.00  0.00    -0.000 A 
ATOM     27  C   UNL A   1     -33.314  -5.941  27.888  0.00  0.00    -0.000 A 
ATOM     28  C   UNL A   1     -33.764  -6.110  26.623  0.00  0.00    -0.000 A 
BRANCH  27  29
ATOM     29  C   UNL A   1     -33.837  -4.787  28.673  0.00  0.00    -0.005 C 
ATOM     30  C   UNL A   1     -34.894  -5.071  29.504  0.00  0.00    -0.026 C 
ATOM     31  C   UNL A   1     -35.438  -4.029  30.307  0.00  0.00    +0.031 C 
ENDBRANCH  27  29
ENDBRANCH  19  23
ENDBRANCH   2  17
TORSDOF 5
