MODEL 2632
MODEL 1
REMARK VINA RESULT:    -8.132      0.000      0.000
REMARK INTER + INTRA:         -12.074
REMARK INTER:                 -10.509
REMARK INTRA:                  -1.565
REMARK UNBOUND:                -1.565
REMARK  Name = No_2632-gen_results/8p0m/2024-11-27-11-27-31/
REMARK  5 active torsions:
REMARK  status: ('A' for Active; 'I' for Inactive)
REMARK    1  A    between atoms: C_3  and  C_17
REMARK    2  A    between atoms: C_6  and  C_8
REMARK    3  A    between atoms: N_9  and  C_11
REMARK    4  A    between atoms: C_13  and  C_23
REMARK    5  A    between atoms: C_27  and  C_29
REMARK                            x       y       z     vdW  Elec       q    Type
REMARK                         _______ _______ _______ _____ _____    ______ ____
ROOT
ATOM      1  C   UNL A   1     -27.043   2.584  25.660  0.00  0.00    +0.269 C 
ATOM      2  N   UNL A   1     -26.151   1.691  25.904  0.00  0.00    -0.175 NA
ATOM      3  O   UNL A   1     -26.930   3.669  26.226  0.00  0.00    -0.268 OA
ENDROOT
BRANCH   1   9
ATOM      4  C   UNL A   1     -29.361   3.088  24.899  0.00  0.00    +0.016 A 
ATOM      5  C   UNL A   1     -30.293   2.993  24.135  0.00  0.00    +0.058 A 
ATOM      6  C   UNL A   1     -30.304   2.031  23.131  0.00  0.00    +0.011 A 
ATOM      7  C   UNL A   1     -29.184   1.147  22.940  0.00  0.00    +0.001 A 
ATOM      8  C   UNL A   1     -28.139   1.340  23.853  0.00  0.00    +0.005 A 
ATOM      9  C   UNL A   1     -28.170   2.276  24.774  0.00  0.00    +0.056 A 
ATOM     10 CL   UNL A   1     -31.683   3.992  24.186  0.00  0.00    -0.082 Cl
BRANCH   6  11
ATOM     11  C   UNL A   1     -31.476   1.789  22.173  0.00  0.00    +0.001 A 
ATOM     12  C   UNL A   1     -32.371   0.846  22.485  0.00  0.00    +0.000 A 
ATOM     13  C   UNL A   1     -33.434   0.575  21.563  0.00  0.00    +0.000 A 
ATOM     14  C   UNL A   1     -33.738   1.469  20.564  0.00  0.00    +0.000 A 
ATOM     15  C   UNL A   1     -32.822   2.461  20.234  0.00  0.00    +0.000 A 
ATOM     16  C   UNL A   1     -31.718   2.625  21.056  0.00  0.00    +0.000 A 
ENDBRANCH   6  11
ENDBRANCH   1   9
BRANCH   2  17
ATOM     17  C   UNL A   1     -25.001   1.800  26.812  0.00  0.00    +0.074 A 
ATOM     18  C   UNL A   1     -25.258   1.178  27.998  0.00  0.00    +0.017 A 
ATOM     19  C   UNL A   1     -24.213   0.656  28.665  0.00  0.00    +0.001 A 
ATOM     20  C   UNL A   1     -22.858   0.944  28.241  0.00  0.00    +0.000 A 
ATOM     21  C   UNL A   1     -22.676   1.567  27.005  0.00  0.00    +0.001 A 
ATOM     22  C   UNL A   1     -23.757   1.889  26.168  0.00  0.00    +0.017 A 
BRANCH  19  23
ATOM     23  C   UNL A   1     -24.394   0.068  30.005  0.00  0.00    +0.000 A 
ATOM     24  C   UNL A   1     -24.430   0.958  31.039  0.00  0.00    +0.000 A 
ATOM     25  C   UNL A   1     -24.147   0.572  32.363  0.00  0.00    +0.000 A 
ATOM     26  C   UNL A   1     -23.836  -0.796  32.570  0.00  0.00    -0.000 A 
ATOM     27  C   UNL A   1     -23.940  -1.207  30.298  0.00  0.00    -0.000 A 
ATOM     28  C   UNL A   1     -23.677  -1.649  31.550  0.00  0.00    -0.000 A 
BRANCH  27  29
ATOM     29  C   UNL A   1     -23.737  -2.150  29.162  0.00  0.00    -0.005 C 
ATOM     30  C   UNL A   1     -24.212  -3.424  29.362  0.00  0.00    -0.026 C 
ATOM     31  C   UNL A   1     -24.079  -4.381  28.317  0.00  0.00    +0.031 C 
ENDBRANCH  27  29
ENDBRANCH  19  23
ENDBRANCH   2  17
TORSDOF 5
ENDMDL
ENDMDL
