REMARK  Name = outputs/IAG933/test6/raw/output_2633_IAG933_linker_design_.xyz
REMARK  11 active torsions:
REMARK  status: ('A' for Active; 'I' for Inactive)
REMARK    1  A    between atoms: C_1  and  C_2
REMARK    2  A    between atoms: C_1  and  C_8
REMARK    3  A    between atoms: C_1  and  N_37
REMARK    4  A    between atoms: C_13  and  C_30
REMARK    5  A    between atoms: C_14  and  C_15
REMARK    6  A    between atoms: C_21  and  O_22
REMARK    7  A    between atoms: O_22  and  C_23
REMARK    8  A    between atoms: C_23  and  C_24
REMARK    9  A    between atoms: N_28  and  C_31
REMARK   10  A    between atoms: C_30  and  C_33
REMARK   11  A    between atoms: C_31  and  C_36
REMARK                            x       y       z     vdW  Elec       q    Type
REMARK                         _______ _______ _______ _____ _____    ______ ____
ROOT
ATOM      1  N   UNL A   1     -22.491   1.000  28.262  0.00  0.00    -0.215 NA
ATOM      2  C   UNL A   1     -22.698   1.709  27.177  0.00  0.00    +0.246 C 
ATOM      3  O   UNL A   1     -21.282   1.609  26.616  0.00  0.00    -0.202 OA
ATOM      4  C   UNL A   1     -21.033  -0.767  29.244  0.00  0.00    +0.054 C 
ATOM      5  C   UNL A   1     -21.374   0.121  28.150  0.00  0.00    +0.215 C 
ATOM      6  O   UNL A   1     -20.485   0.999  27.552  0.00  0.00    -0.205 OA
ENDROOT
BRANCH   2   7
ATOM      7  C   UNL A   1     -24.145   1.589  26.443  0.00  0.00    +0.205 C 
ATOM      8  O   UNL A   1     -23.805   0.883  25.213  0.00  0.00    -0.218 OA
BRANCH   7   9
ATOM      9  C   UNL A   1     -25.688   1.614  26.461  0.00  0.00    +0.104 C 
ATOM     10  C   UNL A   1     -26.250   2.920  26.395  0.00  0.00    +0.057 C 
ATOM     11  C   UNL A   1     -27.438   3.091  25.645  0.00  0.00    +0.102 C 
ATOM     12  N   UNL A   1     -28.075   2.089  25.003  0.00  0.00    -0.212 NA
ATOM     13  C   UNL A   1     -27.543   0.849  25.079  0.00  0.00    +0.234 C 
ATOM     14  C   UNL A   1     -26.354   0.576  25.777  0.00  0.00    +0.243 C 
ATOM     15  F   UNL A   1     -25.860  -0.681  25.795  0.00  0.00    -0.227 F 
BRANCH  10  16
ATOM     16  C   UNL A   1     -25.642   4.093  27.123  0.00  0.00    +0.263 C 
ATOM     17  N   UNL A   1     -25.614   5.252  26.449  0.00  0.00    -0.200 NA
ATOM     18  C   UNL A   1     -25.026   6.479  26.963  0.00  0.00    +0.139 C 
ATOM     19  O   UNL A   1     -25.143   3.966  28.243  0.00  0.00    -0.269 OA
ENDBRANCH  10  16
BRANCH  13  20
ATOM     20  O   UNL A   1     -28.193  -0.208  24.477  0.00  0.00    -0.459 OA
BRANCH  20  21
ATOM     21  C   UNL A   1     -29.460   0.005  23.866  0.00  0.00    +0.242 C 
BRANCH  21  22
ATOM     22  C   UNL A   1     -30.065  -1.377  23.573  0.00  0.00    +0.229 C 
ATOM     23  O   UNL A   1     -30.729  -1.878  24.721  0.00  0.00    -0.216 OA
ENDBRANCH  21  22
ENDBRANCH  20  21
ENDBRANCH  13  20
ENDBRANCH   7   9
ENDBRANCH   2   7
BRANCH   1  24
ATOM     24  C   UNL A   1     -23.170   1.333  29.439  0.00  0.00    +0.126 C 
BRANCH  24  27
ATOM     25  O   UNL A   1     -26.407  -0.286  28.674  0.00  0.00    -0.419 OA
ATOM     26  O   UNL A   1     -25.497   2.047  29.354  0.00  0.00    -0.540 OA
ATOM     27  C   UNL A   1     -24.725   1.086  29.229  0.00  0.00    +0.084 C 
ATOM     28  N   UNL A   1     -25.111  -0.108  29.084  0.00  0.00    -0.279 N 
BRANCH  28  29
ATOM     29  C   UNL A   1     -24.855  -1.012  30.143  0.00  0.00    +0.117 C 
BRANCH  29  30
ATOM     30  C   UNL A   1     -24.973  -2.505  29.788  0.00  0.00    -0.003 C 
ATOM     31  C   UNL A   1     -23.906  -3.173  29.146  0.00  0.00    -0.003 C 
ATOM     32  C   UNL A   1     -23.989  -4.549  28.853  0.00  0.00    -0.000 C 
ATOM     33  C   UNL A   1     -25.137  -5.280  29.205  0.00  0.00    -0.000 C 
ATOM     34  C   UNL A   1     -26.232  -4.611  29.784  0.00  0.00    -0.000 C 
ATOM     35  C   UNL A   1     -26.155  -3.232  30.065  0.00  0.00    -0.003 C 
ENDBRANCH  29  30
BRANCH  29  36
ATOM     36  C   UNL A   1     -25.387  -0.679  31.571  0.00  0.00    +0.096 C 
ATOM     37  C   UNL A   1     -25.189   0.773  32.028  0.00  0.00    +0.021 C 
ATOM     38  C   UNL A   1     -25.336   0.684  33.544  0.00  0.00    +0.020 C 
ATOM     39  C   UNL A   1     -24.829  -0.715  33.905  0.00  0.00    +0.089 C 
ATOM     40  N   UNL A   1     -24.758  -1.481  32.646  0.00  0.00    -0.217 NA
ENDBRANCH  29  36
ENDBRANCH  28  29
ENDBRANCH  24  27
ENDBRANCH   1  24
TORSDOF 11
