REMARK  Name = outputs/IAG933/test6/raw/output_2634_IAG933_linker_design_.xyz
REMARK  11 active torsions:
REMARK  status: ('A' for Active; 'I' for Inactive)
REMARK    1  A    between atoms: C_1  and  C_2
REMARK    2  A    between atoms: C_1  and  C_8
REMARK    3  A    between atoms: C_9  and  N_37
REMARK    4  A    between atoms: C_13  and  C_41
REMARK    5  A    between atoms: C_14  and  C_15
REMARK    6  A    between atoms: C_21  and  O_22
REMARK    7  A    between atoms: O_22  and  C_23
REMARK    8  A    between atoms: C_23  and  C_24
REMARK    9  A    between atoms: C_30  and  C_38
REMARK   10  A    between atoms: C_38  and  C_40
REMARK   11  A    between atoms: N_39  and  C_40
REMARK                            x       y       z     vdW  Elec       q    Type
REMARK                         _______ _______ _______ _____ _____    ______ ____
ROOT
ATOM      1  C   UNL A   1     -23.670   1.509  29.450  0.00  0.00    +0.074 C 
ENDROOT
BRANCH   1   5
ATOM      2  C   UNL A   1     -21.980   1.850  26.195  0.00  0.00    +0.019 C 
ATOM      3  C   UNL A   1     -22.035   1.573  27.722  0.00  0.00    +0.072 C 
ATOM      4  C   UNL A   1     -23.415   1.825  25.648  0.00  0.00    +0.022 C 
ATOM      5  N   UNL A   1     -23.465   1.938  28.063  0.00  0.00    -0.270 NA
ATOM      6  C   UNL A   1     -24.288   1.399  26.932  0.00  0.00    +0.083 C 
BRANCH   6   7
ATOM      7  C   UNL A   1     -25.688   1.614  26.461  0.00  0.00    +0.030 C 
ATOM      8  C   UNL A   1     -26.250   2.920  26.395  0.00  0.00    +0.074 C 
ATOM      9  C   UNL A   1     -27.438   3.091  25.645  0.00  0.00    +0.106 C 
ATOM     10  N   UNL A   1     -28.075   2.089  25.003  0.00  0.00    -0.208 NA
ATOM     11  C   UNL A   1     -27.543   0.849  25.079  0.00  0.00    +0.253 C 
ATOM     12  C   UNL A   1     -26.354   0.576  25.777  0.00  0.00    +0.190 C 
ATOM     13  F   UNL A   1     -25.860  -0.681  25.795  0.00  0.00    -0.200 F 
BRANCH   8  14
ATOM     14  C   UNL A   1     -25.642   4.093  27.123  0.00  0.00    +0.266 C 
ATOM     15  N   UNL A   1     -25.614   5.252  26.449  0.00  0.00    -0.200 NA
ATOM     16  C   UNL A   1     -25.026   6.479  26.963  0.00  0.00    +0.139 C 
ATOM     17  O   UNL A   1     -25.143   3.966  28.243  0.00  0.00    -0.268 OA
ENDBRANCH   8  14
BRANCH  11  18
ATOM     18  O   UNL A   1     -28.193  -0.208  24.477  0.00  0.00    -0.456 OA
BRANCH  18  19
ATOM     19  C   UNL A   1     -29.460   0.005  23.866  0.00  0.00    +0.243 C 
BRANCH  19  20
ATOM     20  C   UNL A   1     -30.065  -1.377  23.573  0.00  0.00    +0.229 C 
ATOM     21  O   UNL A   1     -30.729  -1.878  24.721  0.00  0.00    -0.216 OA
ENDBRANCH  19  20
ENDBRANCH  18  19
ENDBRANCH  11  18
ENDBRANCH   6   7
ENDBRANCH   1   5
BRANCH   1  22
ATOM     22  C   UNL A   1     -23.816   2.426  30.439  0.00  0.00    +0.042 C 
BRANCH  22  25
ATOM     23  C   UNL A   1     -26.514   5.060  34.089  0.00  0.00    +0.053 C 
ATOM     24  C   UNL A   1     -27.153   2.784  32.812  0.00  0.00    +0.057 C 
ATOM     25  C   UNL A   1     -24.904   3.026  31.466  0.00  0.00    +0.096 C 
ATOM     26  C   UNL A   1     -24.800   4.451  32.230  0.00  0.00    -0.011 C 
ATOM     27  C   UNL A   1     -27.324   4.059  33.706  0.00  0.00    -0.006 C 
ATOM     28  C   UNL A   1     -25.268   5.399  33.109  0.00  0.00    -0.024 C 
ATOM     29  N   UNL A   1     -25.991   2.065  31.804  0.00  0.00    -0.305 N 
BRANCH  29  31
ATOM     30  C   UNL A   1     -25.387  -0.679  31.571  0.00  0.00    +0.095 C 
ATOM     31  C   UNL A   1     -25.189   0.773  32.028  0.00  0.00    +0.091 C 
ATOM     32  C   UNL A   1     -25.336   0.684  33.544  0.00  0.00    +0.040 C 
ATOM     33  C   UNL A   1     -24.829  -0.715  33.905  0.00  0.00    +0.090 C 
ATOM     34  N   UNL A   1     -24.758  -1.481  32.646  0.00  0.00    -0.217 NA
BRANCH  30  35
ATOM     35  C   UNL A   1     -24.855  -1.012  30.143  0.00  0.00    +0.045 C 
BRANCH  35  36
ATOM     36  C   UNL A   1     -24.973  -2.505  29.788  0.00  0.00    -0.021 C 
ATOM     37  C   UNL A   1     -23.906  -3.173  29.146  0.00  0.00    -0.004 C 
ATOM     38  C   UNL A   1     -23.989  -4.549  28.853  0.00  0.00    -0.000 C 
ATOM     39  C   UNL A   1     -25.137  -5.280  29.205  0.00  0.00    -0.000 C 
ATOM     40  C   UNL A   1     -26.232  -4.611  29.784  0.00  0.00    -0.000 C 
ATOM     41  C   UNL A   1     -26.155  -3.232  30.065  0.00  0.00    -0.004 C 
ENDBRANCH  35  36
ENDBRANCH  30  35
ENDBRANCH  29  31
ENDBRANCH  22  25
ENDBRANCH   1  22
TORSDOF 11
