MODEL 2634
MODEL 1
REMARK VINA RESULT:    -6.534      0.000      0.000
REMARK INTER + INTRA:          -7.271
REMARK INTER:                  -6.916
REMARK INTRA:                  -0.355
REMARK UNBOUND:                -0.355
REMARK  Name = No_2634-gen_results/8p0m/2024-11-27-11-27-31/
REMARK  1 active torsions:
REMARK  status: ('A' for Active; 'I' for Inactive)
REMARK    1  A    between atoms: C_4  and  C_8
REMARK                            x       y       z     vdW  Elec       q    Type
REMARK                         _______ _______ _______ _____ _____    ______ ____
ROOT
ATOM      1  C   UNL A   1     -24.601   0.400  26.672  0.00  0.00    +0.011 A 
ATOM      2  C   UNL A   1     -23.728   0.885  27.008  0.00  0.00    +0.058 A 
ATOM      3  C   UNL A   1     -25.027  -0.789  27.427  0.00  0.00    +0.001 A 
ATOM      4  C   UNL A   1     -24.349  -1.217  28.355  0.00  0.00    +0.000 A 
ATOM      5  C   UNL A   1     -22.832   0.633  28.152  0.00  0.00    +0.011 A 
ATOM      6  C   UNL A   1     -23.182  -0.502  28.817  0.00  0.00    +0.001 A 
ATOM      7 CL   UNL A   1     -23.202   2.411  26.158  0.00  0.00    -0.082 Cl
ENDROOT
BRANCH   4   8
ATOM      8  C   UNL A   1     -24.722  -2.465  29.171  0.00  0.00    +0.000 A 
ATOM      9  C   UNL A   1     -23.883  -3.632  28.880  0.00  0.00    +0.000 A 
ATOM     10  C   UNL A   1     -24.549  -4.876  28.798  0.00  0.00    +0.000 A 
ATOM     11  C   UNL A   1     -25.770  -5.014  29.495  0.00  0.00    +0.000 A 
ATOM     12  C   UNL A   1     -26.482  -3.911  29.857  0.00  0.00    +0.000 A 
ATOM     13  C   UNL A   1     -25.983  -2.642  29.623  0.00  0.00    +0.000 A 
ENDBRANCH   4   8
TORSDOF 1
ENDMDL
ENDMDL
