REMARK  Name = outputs/IAG933/test6/raw/output_2635_IAG933_linker_design_.xyz
REMARK  9 active torsions:
REMARK  status: ('A' for Active; 'I' for Inactive)
REMARK    1  A    between atoms: C_1  and  C_2
REMARK    2  A    between atoms: C_14  and  C_15
REMARK    3  A    between atoms: C_15  and  O_18
REMARK    4  A    between atoms: O_18  and  C_41
REMARK    5  A    between atoms: C_21  and  O_22
REMARK    6  A    between atoms: O_22  and  C_23
REMARK    7  A    between atoms: C_23  and  C_24
REMARK    8  A    between atoms: C_30  and  C_36
REMARK    9  A    between atoms: C_37  and  N_40
REMARK                            x       y       z     vdW  Elec       q    Type
REMARK                         _______ _______ _______ _____ _____    ______ ____
ROOT
ATOM      1  C   UNL A   1     -24.855  -1.012  30.143  0.00  0.00    +0.101 C 
ATOM      2  C   UNL A   1     -25.387  -0.679  31.571  0.00  0.00    +0.110 C 
ATOM      3  C   UNL A   1     -25.189   0.773  32.028  0.00  0.00    +0.095 C 
ATOM      4  C   UNL A   1     -25.336   0.684  33.544  0.00  0.00    +0.040 C 
ATOM      5  C   UNL A   1     -24.829  -0.715  33.905  0.00  0.00    +0.090 C 
ATOM      6  N   UNL A   1     -24.758  -1.481  32.646  0.00  0.00    -0.216 NA
ATOM      7  C   UNL A   1     -21.569   0.453  28.451  0.00  0.00    +0.023 C 
ATOM      8  C   UNL A   1     -22.667   1.948  27.131  0.00  0.00    +0.051 C 
ATOM      9  N   UNL A   1     -23.779   1.876  28.160  0.00  0.00    -0.244 NA
ATOM     10  C   UNL A   1     -21.531   1.374  27.383  0.00  0.00    +0.044 C 
ATOM     11  C   UNL A   1     -24.149   1.478  29.667  0.00  0.00    +0.245 C 
ATOM     12  N   UNL A   1     -24.845   1.714  30.825  0.00  0.00    -0.275 N 
ATOM     13  N   UNL A   1     -23.863   0.035  29.832  0.00  0.00    -0.235 NA
ATOM     14  C   UNL A   1     -22.581  -0.314  29.193  0.00  0.00    +0.076 C 
ENDROOT
BRANCH   1  15
ATOM     15  C   UNL A   1     -24.973  -2.505  29.788  0.00  0.00    -0.006 C 
ATOM     16  C   UNL A   1     -23.906  -3.173  29.146  0.00  0.00    -0.003 C 
ATOM     17  C   UNL A   1     -23.989  -4.549  28.853  0.00  0.00    -0.000 C 
ATOM     18  C   UNL A   1     -25.137  -5.280  29.205  0.00  0.00    -0.000 C 
ATOM     19  C   UNL A   1     -26.232  -4.611  29.784  0.00  0.00    -0.000 C 
ATOM     20  C   UNL A   1     -26.155  -3.232  30.065  0.00  0.00    -0.003 C 
ENDBRANCH   1  15
BRANCH  12  23
ATOM     21  C   UNL A   1     -26.122   4.731  32.301  0.00  0.00    +0.002 C 
ATOM     22  C   UNL A   1     -26.304   5.660  31.300  0.00  0.00    +0.003 C 
ATOM     23  C   UNL A   1     -25.328   3.151  30.862  0.00  0.00    +0.085 C 
ATOM     24  C   UNL A   1     -25.635   3.493  32.079  0.00  0.00    +0.018 C 
ATOM     25  C   UNL A   1     -25.953   5.328  29.998  0.00  0.00    +0.039 C 
ATOM     26  C   UNL A   1     -25.466   4.097  29.647  0.00  0.00    +0.160 C 
BRANCH  26  27
ATOM     27  O   UNL A   1     -25.143   3.966  28.243  0.00  0.00    -0.435 OA
BRANCH  27  28
ATOM     28  C   UNL A   1     -25.642   4.093  27.123  0.00  0.00    +0.227 C 
ATOM     29  N   UNL A   1     -25.614   5.252  26.449  0.00  0.00    -0.235 NA
ATOM     30  C   UNL A   1     -25.026   6.479  26.963  0.00  0.00    +0.155 C 
BRANCH  28  32
ATOM     31  C   UNL A   1     -25.688   1.614  26.461  0.00  0.00    +0.041 C 
ATOM     32  C   UNL A   1     -26.250   2.920  26.395  0.00  0.00    +0.075 C 
ATOM     33  C   UNL A   1     -27.438   3.091  25.645  0.00  0.00    +0.107 C 
ATOM     34  N   UNL A   1     -28.075   2.089  25.003  0.00  0.00    -0.208 NA
ATOM     35  C   UNL A   1     -27.543   0.849  25.079  0.00  0.00    +0.253 C 
ATOM     36  C   UNL A   1     -26.354   0.576  25.777  0.00  0.00    +0.193 C 
ATOM     37  F   UNL A   1     -25.860  -0.681  25.795  0.00  0.00    -0.199 F 
BRANCH  35  38
ATOM     38  O   UNL A   1     -28.193  -0.208  24.477  0.00  0.00    -0.456 OA
BRANCH  38  39
ATOM     39  C   UNL A   1     -29.460   0.005  23.866  0.00  0.00    +0.243 C 
BRANCH  39  40
ATOM     40  C   UNL A   1     -30.065  -1.377  23.573  0.00  0.00    +0.229 C 
ATOM     41  O   UNL A   1     -30.729  -1.878  24.721  0.00  0.00    -0.216 OA
ENDBRANCH  39  40
ENDBRANCH  38  39
ENDBRANCH  35  38
ENDBRANCH  28  32
ENDBRANCH  27  28
ENDBRANCH  26  27
ENDBRANCH  12  23
BRANCH   8  43
ATOM     42 CL   UNL A   1     -22.054   2.411  24.652  0.00  0.00    -0.107 Cl
ATOM     43  C   UNL A   1     -23.088   2.704  25.867  0.00  0.00    +0.136 C 
ENDBRANCH   8  43
TORSDOF 9
