MODEL 2635
MODEL 1
REMARK VINA RESULT:    -7.125      0.000      0.000
REMARK INTER + INTRA:          -9.892
REMARK INTER:                  -9.208
REMARK INTRA:                  -0.684
REMARK UNBOUND:                -0.684
REMARK  Name = No_2635-gen_results/8p0m/2024-11-27-11-27-31/
REMARK  5 active torsions:
REMARK  status: ('A' for Active; 'I' for Inactive)
REMARK    1  A    between atoms: C_3  and  C_17
REMARK    2  A    between atoms: C_5  and  C_9
REMARK    3  A    between atoms: C_17  and  N_18
REMARK    4  A    between atoms: C_19  and  C_21
REMARK    5  A    between atoms: C_22  and  C_23
REMARK                            x       y       z     vdW  Elec       q    Type
REMARK                         _______ _______ _______ _____ _____    ______ ____
ROOT
ATOM      1  C   UNL A   1     -24.171   0.950  30.311  0.00  0.00    +0.121 C 
ATOM      2  C   UNL A   1     -24.251  -0.228  30.050  0.00  0.00    -0.002 A 
ATOM      3  C   UNL A   1     -23.303  -0.915  29.317  0.00  0.00    +0.053 A 
ATOM      4  C   UNL A   1     -23.391  -2.305  28.912  0.00  0.00    +0.011 A 
ATOM      5  C   UNL A   1     -24.525  -3.055  29.293  0.00  0.00    +0.080 A 
ATOM      6  C   UNL A   1     -25.529  -2.346  30.047  0.00  0.00    +0.002 A 
ATOM      7  C   UNL A   1     -25.441  -1.017  30.388  0.00  0.00    -0.022 A 
ATOM      8  N   UNL A   1     -25.228   1.547  31.101  0.00  0.00    -0.262 N 
ATOM      9  C   UNL A   1     -25.138   2.797  31.634  0.00  0.00    +0.310 C 
ATOM     10  C   UNL A   1     -26.476   0.979  31.266  0.00  0.00    +0.100 C 
ATOM     11  C   UNL A   1     -26.507  -0.359  31.009  0.00  0.00    +0.048 C 
ATOM     12  O   UNL A   1     -24.213   3.261  31.996  0.00  0.00    -0.257 OA
ATOM     13 CL   UNL A   1     -26.491   4.006  31.128  0.00  0.00    -0.022 Cl
ENDROOT
BRANCH   5  14
ATOM     14  C   UNL A   1     -24.692  -4.432  28.960  0.00  0.00    +0.388 C 
ATOM     15  O   UNL A   1     -25.533  -5.071  29.577  0.00  0.00    -0.241 OA
ATOM     16  O   UNL A   1     -23.859  -4.971  28.169  0.00  0.00    -0.241 OA
ENDBRANCH   5  14
BRANCH   3  17
ATOM     17  C   UNL A   1     -22.047  -0.266  28.909  0.00  0.00    +0.269 C 
ATOM     18  O   UNL A   1     -21.007  -1.020  28.905  0.00  0.00    -0.268 OA
BRANCH  17  19
ATOM     19  N   UNL A   1     -21.890   0.911  28.708  0.00  0.00    -0.174 NA
ATOM     20  C   UNL A   1     -21.468   1.511  27.599  0.00  0.00    +0.089 C 
BRANCH  20  21
ATOM     21  C   UNL A   1     -22.276   1.585  26.679  0.00  0.00    +0.018 C 
ATOM     22  C   UNL A   1     -23.544   1.697  26.771  0.00  0.00    +0.001 C 
BRANCH  22  23
ATOM     23  C   UNL A   1     -24.529   1.806  25.621  0.00  0.00    -0.004 C 
ATOM     24  C   UNL A   1     -25.431   0.767  25.495  0.00  0.00    -0.026 C 
ATOM     25  C   UNL A   1     -25.468  -0.225  26.484  0.00  0.00    +0.031 C 
ENDBRANCH  22  23
ENDBRANCH  20  21
ENDBRANCH  17  19
ENDBRANCH   3  17
TORSDOF 5
ENDMDL
ENDMDL
