REMARK  Name = outputs/IAG933/test6/raw/output_2636_IAG933_linker_design_.xyz
REMARK  13 active torsions:
REMARK  status: ('A' for Active; 'I' for Inactive)
REMARK    1  A    between atoms: C_1  and  C_2
REMARK    2  A    between atoms: C_1  and  C_8
REMARK    3  A    between atoms: C_1  and  C_42
REMARK    4  A    between atoms: C_13  and  C_33
REMARK    5  A    between atoms: C_14  and  C_15
REMARK    6  A    between atoms: C_21  and  O_22
REMARK    7  A    between atoms: O_22  and  C_23
REMARK    8  A    between atoms: C_23  and  C_24
REMARK    9  A    between atoms: C_29  and  N_35
REMARK   10  A    between atoms: C_32  and  C_34
REMARK   11  A    between atoms: C_34  and  N_37
REMARK   12  A    between atoms: N_37  and  C_42
REMARK   13  A    between atoms: C_42  and  C_45
REMARK                            x       y       z     vdW  Elec       q    Type
REMARK                         _______ _______ _______ _____ _____    ______ ____
ROOT
ATOM      1  C   UNL A   1     -25.026  -0.400  28.771  0.00  0.00    +0.100 C 
ENDROOT
BRANCH   1   8
ATOM      2  F   UNL A   1     -20.704   1.737  28.160  0.00  0.00    -0.204 F 
ATOM      3  C   UNL A   1     -23.474   1.764  25.958  0.00  0.00    +0.002 C 
ATOM      4  C   UNL A   1     -24.474   1.270  26.893  0.00  0.00    -0.000 C 
ATOM      5  C   UNL A   1     -21.849   1.407  27.687  0.00  0.00    +0.140 C 
ATOM      6  C   UNL A   1     -22.776   0.688  28.466  0.00  0.00    +0.027 C 
ATOM      7  C   UNL A   1     -22.146   1.831  26.400  0.00  0.00    +0.030 C 
ATOM      8  C   UNL A   1     -24.118   0.549  28.078  0.00  0.00    -0.004 C 
BRANCH   4   9
ATOM      9  C   UNL A   1     -25.688   1.614  26.461  0.00  0.00    +0.038 C 
ATOM     10  C   UNL A   1     -26.250   2.920  26.395  0.00  0.00    +0.076 C 
ATOM     11  C   UNL A   1     -27.438   3.091  25.645  0.00  0.00    +0.107 C 
ATOM     12  N   UNL A   1     -28.075   2.089  25.003  0.00  0.00    -0.208 NA
ATOM     13  C   UNL A   1     -27.543   0.849  25.079  0.00  0.00    +0.253 C 
ATOM     14  C   UNL A   1     -26.354   0.576  25.777  0.00  0.00    +0.193 C 
ATOM     15  F   UNL A   1     -25.860  -0.681  25.795  0.00  0.00    -0.199 F 
BRANCH  10  16
ATOM     16  C   UNL A   1     -25.642   4.093  27.123  0.00  0.00    +0.266 C 
ATOM     17  N   UNL A   1     -25.614   5.252  26.449  0.00  0.00    -0.200 NA
ATOM     18  C   UNL A   1     -25.026   6.479  26.963  0.00  0.00    +0.139 C 
ATOM     19  O   UNL A   1     -25.143   3.966  28.243  0.00  0.00    -0.268 OA
ENDBRANCH  10  16
BRANCH  13  20
ATOM     20  O   UNL A   1     -28.193  -0.208  24.477  0.00  0.00    -0.456 OA
BRANCH  20  21
ATOM     21  C   UNL A   1     -29.460   0.005  23.866  0.00  0.00    +0.243 C 
BRANCH  21  22
ATOM     22  C   UNL A   1     -30.065  -1.377  23.573  0.00  0.00    +0.229 C 
ATOM     23  O   UNL A   1     -30.729  -1.878  24.721  0.00  0.00    -0.216 OA
ENDBRANCH  21  22
ENDBRANCH  20  21
ENDBRANCH  13  20
ENDBRANCH   4   9
ENDBRANCH   1   8
BRANCH   1  24
ATOM     24  C   UNL A   1     -24.855  -1.012  30.143  0.00  0.00    +0.059 C 
BRANCH  24  25
ATOM     25  C   UNL A   1     -24.973  -2.505  29.788  0.00  0.00    -0.019 C 
ATOM     26  C   UNL A   1     -23.906  -3.173  29.146  0.00  0.00    -0.004 C 
ATOM     27  C   UNL A   1     -23.989  -4.549  28.853  0.00  0.00    -0.000 C 
ATOM     28  C   UNL A   1     -25.137  -5.280  29.205  0.00  0.00    -0.000 C 
ATOM     29  C   UNL A   1     -26.232  -4.611  29.784  0.00  0.00    -0.000 C 
ATOM     30  C   UNL A   1     -26.155  -3.232  30.065  0.00  0.00    -0.004 C 
ENDBRANCH  24  25
BRANCH  24  31
ATOM     31  C   UNL A   1     -25.387  -0.679  31.571  0.00  0.00    +0.079 C 
ATOM     32  C   UNL A   1     -25.189   0.773  32.028  0.00  0.00    +0.019 C 
ATOM     33  C   UNL A   1     -25.336   0.684  33.544  0.00  0.00    +0.020 C 
ATOM     34  C   UNL A   1     -24.829  -0.715  33.905  0.00  0.00    +0.089 C 
ATOM     35  N   UNL A   1     -24.758  -1.481  32.646  0.00  0.00    -0.219 NA
ENDBRANCH  24  31
ENDBRANCH   1  24
BRANCH   1  36
ATOM     36  N   UNL A   1     -26.459  -0.400  28.433  0.00  0.00    -0.214 NA
BRANCH  36  37
ATOM     37  C   UNL A   1     -27.637  -0.561  29.258  0.00  0.00    +0.098 C 
BRANCH  37  39
ATOM     38  C   UNL A   1     -29.829   0.300  28.142  0.00  0.00    +0.032 C 
ATOM     39  C   UNL A   1     -28.671   0.406  28.912  0.00  0.00    +0.096 C 
ATOM     40  N   UNL A   1     -29.586   2.378  28.884  0.00  0.00    -0.280 N 
ATOM     41  C   UNL A   1     -28.548   1.788  29.321  0.00  0.00    +0.227 C 
ATOM     42  C   UNL A   1     -30.497   1.510  28.287  0.00  0.00    +0.094 C 
ATOM     43  O   UNL A   1     -27.526   2.120  29.990  0.00  0.00    -0.275 OA
BRANCH  40  44
ATOM     44  C   UNL A   1     -29.798   3.809  28.731  0.00  0.00    +0.093 C 
ATOM     45  C   UNL A   1     -28.664   4.545  29.429  0.00  0.00    +0.023 C 
ENDBRANCH  40  44
ENDBRANCH  37  39
ENDBRANCH  36  37
ENDBRANCH   1  36
TORSDOF 13
