MODEL 2636
MODEL 1
REMARK VINA RESULT:    -6.701      0.000      0.000
REMARK INTER + INTRA:         -11.264
REMARK INTER:                  -9.051
REMARK INTRA:                  -2.212
REMARK UNBOUND:                -2.212
REMARK  Name = No_2636-gen_results/8p0m/2024-11-27-11-27-31/
REMARK  6 active torsions:
REMARK  status: ('A' for Active; 'I' for Inactive)
REMARK    1  A    between atoms: C_1  and  C_16
REMARK    2  A    between atoms: C_3  and  C_11
REMARK    3  A    between atoms: C_16  and  O_18
REMARK    4  A    between atoms: O_18  and  C_19
REMARK    5  A    between atoms: C_19  and  C_20
REMARK    6  A    between atoms: C_21  and  C_22
REMARK                            x       y       z     vdW  Elec       q    Type
REMARK                         _______ _______ _______ _____ _____    ______ ____
ROOT
ATOM      1  C   UNL A   1     -23.206  -0.212  29.747  0.00  0.00    +0.076 A 
ATOM      2  C   UNL A   1     -23.537   0.643  30.535  0.00  0.00    +0.010 A 
ATOM      3  C   UNL A   1     -24.697   0.623  31.291  0.00  0.00    +0.072 A 
ATOM      4  C   UNL A   1     -25.547  -0.512  31.145  0.00  0.00    +0.004 A 
ATOM      5  C   UNL A   1     -25.075  -1.512  30.374  0.00  0.00    +0.000 A 
ATOM      6  C   UNL A   1     -23.895  -1.426  29.755  0.00  0.00    +0.009 A 
ATOM      7  C   UNL A   1     -25.958  -2.691  30.282  0.00  0.00    +0.002 A 
ATOM      8  C   UNL A   1     -25.593  -3.614  29.479  0.00  0.00    +0.030 A 
ATOM      9  C   UNL A   1     -24.266  -3.598  28.861  0.00  0.00    +0.140 A 
ATOM     10  C   UNL A   1     -23.499  -2.528  28.951  0.00  0.00    +0.030 A 
ATOM     11  F   UNL A   1     -23.919  -4.666  28.100  0.00  0.00    -0.204 F 
ENDROOT
BRANCH   3  12
ATOM     12  C   UNL A   1     -25.132   1.832  32.120  0.00  0.00    +0.419 C 
ATOM     13  F   UNL A   1     -26.198   2.358  31.854  0.00  0.00    -0.166 F 
ATOM     14  F   UNL A   1     -24.142   2.809  32.075  0.00  0.00    -0.166 F 
ATOM     15  F   UNL A   1     -25.214   1.392  33.421  0.00  0.00    -0.166 F 
ENDBRANCH   3  12
BRANCH   1  16
ATOM     16  C   UNL A   1     -21.880  -0.092  29.026  0.00  0.00    +0.342 C 
ATOM     17  O   UNL A   1     -21.086  -0.865  28.864  0.00  0.00    -0.245 OA
BRANCH  16  18
ATOM     18  O   UNL A   1     -21.806   1.171  28.552  0.00  0.00    -0.440 OA
BRANCH  18  19
ATOM     19  C   UNL A   1     -22.112   1.360  27.210  0.00  0.00    +0.235 C 
BRANCH  19  20
ATOM     20  C   UNL A   1     -23.195   2.390  27.048  0.00  0.00    +0.021 C 
ATOM     21  C   UNL A   1     -24.496   1.748  26.859  0.00  0.00    -0.001 C 
BRANCH  21  22
ATOM     22  C   UNL A   1     -24.546   0.439  26.312  0.00  0.00    -0.005 C 
ATOM     23  C   UNL A   1     -25.624  -0.317  26.791  0.00  0.00    -0.026 C 
ATOM     24  C   UNL A   1     -26.596   0.202  27.608  0.00  0.00    +0.031 C 
ENDBRANCH  21  22
ENDBRANCH  19  20
ENDBRANCH  18  19
ENDBRANCH  16  18
ENDBRANCH   1  16
TORSDOF 6
ENDMDL
ENDMDL
