MODEL 2637
MODEL 1
REMARK VINA RESULT:    -4.542      0.000      0.000
REMARK INTER + INTRA:          -4.542
REMARK INTER:                  -4.542
REMARK INTRA:                   0.000
REMARK UNBOUND:                 0.000
REMARK  Name = No_2637-gen_results/8p0m/2024-11-27-11-27-31/
REMARK  0 active torsions:
REMARK  status: ('A' for Active; 'I' for Inactive)
REMARK                            x       y       z     vdW  Elec       q    Type
REMARK                         _______ _______ _______ _____ _____    ______ ____
ROOT
ATOM      1  C   UNL A   1      -8.203  -9.828  19.758  0.00  0.00    +0.058 A 
ATOM      2  C   UNL A   1      -9.252  -9.274  19.993  0.00  0.00    +0.011 A 
ATOM      3  C   UNL A   1     -10.336  -9.298  19.138  0.00  0.00    +0.001 A 
ATOM      4  C   UNL A   1     -10.221 -10.049  17.935  0.00  0.00    +0.000 A 
ATOM      5  C   UNL A   1      -9.095 -10.787  17.800  0.00  0.00    +0.001 A 
ATOM      6  C   UNL A   1      -8.123 -10.735  18.691  0.00  0.00    +0.011 A 
ATOM      7 CL   UNL A   1      -6.896  -9.773  20.903  0.00  0.00    -0.082 Cl
ENDROOT
TORSDOF 0
ENDMDL
ENDMDL
