MODEL 2638
MODEL 1
REMARK VINA RESULT:    -7.826      0.000      0.000
REMARK INTER + INTRA:          -9.450
REMARK INTER:                  -8.741
REMARK INTRA:                  -0.709
REMARK UNBOUND:                -0.709
REMARK  Name = No_2638-gen_results/8p0m/2024-11-27-11-27-31/
REMARK  2 active torsions:
REMARK  status: ('A' for Active; 'I' for Inactive)
REMARK    1  A    between atoms: C_7  and  C_12
REMARK    2  A    between atoms: C_13  and  C_15
REMARK                            x       y       z     vdW  Elec       q    Type
REMARK                         _______ _______ _______ _____ _____    ______ ____
ROOT
ATOM      1  C   UNL A   1     -26.180  -4.474  29.691  0.00  0.00    -0.000 A 
ATOM      2  C   UNL A   1     -26.066  -3.308  29.990  0.00  0.00    -0.003 A 
ATOM      3  C   UNL A   1     -24.970  -2.524  29.633  0.00  0.00    -0.015 A 
ATOM      4  C   UNL A   1     -23.868  -3.135  28.916  0.00  0.00    -0.004 A 
ATOM      5  C   UNL A   1     -24.067  -4.501  28.610  0.00  0.00    -0.000 A 
ATOM      6  C   UNL A   1     -25.132  -5.158  28.995  0.00  0.00    -0.000 A 
ATOM      7  C   UNL A   1     -24.769  -1.086  29.954  0.00  0.00    +0.062 C 
ATOM      8  C   UNL A   1     -25.775  -0.290  30.207  0.00  0.00    -0.018 C 
ATOM      9  C   UNL A   1     -26.946  -0.361  30.311  0.00  0.00    -0.004 C 
ATOM     10  C   UNL A   1     -27.565  -1.628  30.138  0.00  0.00    -0.000 C 
ATOM     11  C   UNL A   1     -27.122  -2.796  30.028  0.00  0.00    -0.000 C 
ENDROOT
BRANCH   7  12
ATOM     12  C   UNL A   1     -23.357  -0.570  29.753  0.00  0.00    -0.036 C 
ATOM     13  C   UNL A   1     -22.991  -0.157  28.552  0.00  0.00    -0.008 C 
ATOM     14  C   UNL A   1     -22.436  -0.694  30.786  0.00  0.00    +0.027 C 
BRANCH  13  15
ATOM     15  C   UNL A   1     -23.585   0.380  27.781  0.00  0.00    -0.001 A 
ATOM     16  C   UNL A   1     -24.648  -0.050  26.782  0.00  0.00    -0.000 A 
ATOM     17  C   UNL A   1     -25.303   0.762  25.856  0.00  0.00    -0.000 A 
ATOM     18  C   UNL A   1     -24.913   2.115  25.867  0.00  0.00    -0.000 A 
ATOM     19  C   UNL A   1     -23.961   2.605  26.716  0.00  0.00    -0.000 A 
ATOM     20  C   UNL A   1     -23.296   1.825  27.528  0.00  0.00    -0.000 A 
ENDBRANCH  13  15
ENDBRANCH   7  12
TORSDOF 2
ENDMDL
ENDMDL
