REMARK  Name = No_2639-gen_results/8p0m/2024-11-27-11-27-31/
REMARK  2 active torsions:
REMARK  status: ('A' for Active; 'I' for Inactive)
REMARK    1  A    between atoms: C_6  and  C_22
REMARK    2  A    between atoms: N_13  and  C_15
REMARK                            x       y       z     vdW  Elec       q    Type
REMARK                         _______ _______ _______ _____ _____    ______ ____
ROOT
ATOM      1  C   UNL A   1     -28.016  -0.814  28.878  0.00  0.00    +0.016 A 
ATOM      2  C   UNL A   1     -28.469  -0.785  29.829  0.00  0.00    +0.001 A 
ATOM      3  C   UNL A   1     -26.504  -0.778  28.877  0.00  0.00    +0.006 A 
ATOM      4  C   UNL A   1     -25.762  -0.002  27.971  0.00  0.00    +0.057 A 
ATOM      5  C   UNL A   1     -24.391   0.120  28.138  0.00  0.00    +0.015 A 
ATOM      6  C   UNL A   1     -23.712  -0.720  29.086  0.00  0.00    +0.069 A 
ATOM      7  C   UNL A   1     -24.421  -1.536  29.916  0.00  0.00    +0.010 A 
ATOM      8  C   UNL A   1     -25.802  -1.584  29.812  0.00  0.00    +0.001 A 
ATOM      9  C   UNL A   1     -29.940  -0.615  29.952  0.00  0.00    +0.000 A 
ATOM     10  C   UNL A   1     -30.553  -0.349  28.738  0.00  0.00    +0.002 A 
ATOM     11  C   UNL A   1     -29.831  -0.135  27.633  0.00  0.00    +0.018 A 
ATOM     12  C   UNL A   1     -28.501  -0.162  27.699  0.00  0.00    +0.067 A 
ATOM     13  N   UNL A   1     -27.658   0.109  26.639  0.00  0.00    -0.275 N 
ATOM     14  C   UNL A   1     -26.409   0.512  26.852  0.00  0.00    +0.265 A 
ATOM     15  O   UNL A   1     -25.705   1.102  26.006  0.00  0.00    -0.267 OA
ENDROOT
BRANCH  13  16
ATOM     16  C   UNL A   1     -28.291   0.594  25.406  0.00  0.00    +0.067 A 
ATOM     17  C   UNL A   1     -28.658   1.861  25.268  0.00  0.00    +0.018 A 
ATOM     18  C   UNL A   1     -28.534  -0.412  24.486  0.00  0.00    +0.018 A 
ATOM     19  C   UNL A   1     -29.306   2.266  24.106  0.00  0.00    +0.002 A 
ATOM     20  C   UNL A   1     -29.637   1.343  23.122  0.00  0.00    +0.000 A 
ATOM     21  C   UNL A   1     -29.256   0.040  23.396  0.00  0.00    +0.002 A 
ENDBRANCH  13  16
BRANCH   6  22
ATOM     22  C   UNL A   1     -22.241  -0.578  29.172  0.00  0.00    +0.100 C 
ATOM     23  N   UNL A   1     -21.288   0.150  29.182  0.00  0.00    -0.191 NA
ENDBRANCH   6  22
TORSDOF 2
