MODEL 2639
MODEL 1
REMARK VINA RESULT:    -7.182      0.000      0.000
REMARK INTER + INTRA:          -8.215
REMARK INTER:                  -8.022
REMARK INTRA:                  -0.193
REMARK UNBOUND:                -0.193
REMARK  Name = No_2639-gen_results/8p0m/2024-11-27-11-27-31/
REMARK  2 active torsions:
REMARK  status: ('A' for Active; 'I' for Inactive)
REMARK    1  A    between atoms: C_6  and  C_22
REMARK    2  A    between atoms: N_13  and  C_15
REMARK                            x       y       z     vdW  Elec       q    Type
REMARK                         _______ _______ _______ _____ _____    ______ ____
ROOT
ATOM      1  C   UNL A   1     -11.175   1.097  35.749  0.00  0.00    +0.016 A 
ATOM      2  C   UNL A   1     -10.600   1.476  34.951  0.00  0.00    +0.001 A 
ATOM      3  C   UNL A   1     -12.439   1.865  36.062  0.00  0.00    +0.006 A 
ATOM      4  C   UNL A   1     -12.850   2.151  37.375  0.00  0.00    +0.057 A 
ATOM      5  C   UNL A   1     -13.921   3.006  37.585  0.00  0.00    +0.015 A 
ATOM      6  C   UNL A   1     -14.739   3.409  36.474  0.00  0.00    +0.069 A 
ATOM      7  C   UNL A   1     -14.390   3.068  35.201  0.00  0.00    +0.010 A 
ATOM      8  C   UNL A   1     -13.262   2.292  34.986  0.00  0.00    +0.001 A 
ATOM      9  C   UNL A   1      -9.246   0.929  34.678  0.00  0.00    +0.000 A 
ATOM     10  C   UNL A   1      -8.818   0.043  35.654  0.00  0.00    +0.002 A 
ATOM     11  C   UNL A   1      -9.528  -0.149  36.770  0.00  0.00    +0.018 A 
ATOM     12  C   UNL A   1     -10.657   0.533  36.959  0.00  0.00    +0.067 A 
ATOM     13  N   UNL A   1     -11.433   0.463  38.099  0.00  0.00    -0.275 N 
ATOM     14  C   UNL A   1     -12.253   1.459  38.423  0.00  0.00    +0.265 A 
ATOM     15  O   UNL A   1     -12.713   1.649  39.568  0.00  0.00    -0.267 OA
ENDROOT
BRANCH  13  16
ATOM     16  C   UNL A   1     -10.883  -0.310  39.220  0.00  0.00    +0.067 A 
ATOM     17  C   UNL A   1      -9.751   0.041  39.814  0.00  0.00    +0.018 A 
ATOM     18  C   UNL A   1     -11.611  -1.454  39.502  0.00  0.00    +0.018 A 
ATOM     19  C   UNL A   1      -9.235  -0.752  40.834  0.00  0.00    +0.002 A 
ATOM     20  C   UNL A   1      -9.856  -1.943  41.186  0.00  0.00    +0.000 A 
ATOM     21  C   UNL A   1     -11.000  -2.239  40.463  0.00  0.00    +0.002 A 
ENDBRANCH  13  16
BRANCH   6  22
ATOM     22  C   UNL A   1     -15.900   4.276  36.778  0.00  0.00    +0.100 C 
ATOM     23  N   UNL A   1     -17.019   4.610  36.506  0.00  0.00    -0.191 NA
ENDBRANCH   6  22
TORSDOF 2
ENDMDL
ENDMDL
