MODEL 263
MODEL 1
REMARK VINA RESULT:    -4.597      0.000      0.000
REMARK INTER + INTRA:          -4.597
REMARK INTER:                  -4.597
REMARK INTRA:                   0.000
REMARK UNBOUND:                 0.000
REMARK  Name = No_263-gen_results/8p0m/2024-11-27-11-27-31/
REMARK  0 active torsions:
REMARK  status: ('A' for Active; 'I' for Inactive)
REMARK                            x       y       z     vdW  Elec       q    Type
REMARK                         _______ _______ _______ _____ _____    ______ ____
ROOT
ATOM      1  C   UNL A   1     -24.972  -5.300  29.278  0.00  0.00    +0.009 C 
ATOM      2  C   UNL A   1     -24.334  -4.824  28.587  0.00  0.00    +0.026 C 
ATOM      3  C   UNL A   1     -26.295  -4.609  29.525  0.00  0.00    +0.026 C 
ATOM      4  C   UNL A   1     -26.300  -3.490  29.890  0.00  0.00    -0.026 C 
ATOM      5  C   UNL A   1     -23.880  -3.346  28.778  0.00  0.00    -0.026 C 
ATOM      6  C   UNL A   1     -25.386  -2.815  29.976  0.00  0.00    -0.005 C 
ATOM      7  C   UNL A   1     -24.430  -2.306  29.539  0.00  0.00    -0.005 C 
ENDROOT
TORSDOF 0
ENDMDL
ENDMDL
