REMARK  Name = outputs/IAG933/test6/raw/output_2640_IAG933_linker_design_.xyz
REMARK  14 active torsions:
REMARK  status: ('A' for Active; 'I' for Inactive)
REMARK    1  A    between atoms: C_1  and  C_2
REMARK    2  A    between atoms: C_1  and  C_8
REMARK    3  A    between atoms: C_1  and  C_38
REMARK    4  A    between atoms: C_13  and  C_42
REMARK    5  A    between atoms: C_14  and  C_15
REMARK    6  A    between atoms: C_21  and  O_22
REMARK    7  A    between atoms: O_22  and  C_23
REMARK    8  A    between atoms: C_23  and  C_24
REMARK    9  A    between atoms: N_29  and  C_38
REMARK   10  A    between atoms: N_29  and  C_42
REMARK   11  A    between atoms: N_31  and  C_38
REMARK   12  A    between atoms: C_33  and  C_35
REMARK   13  A    between atoms: C_40  and  C_42
REMARK   14  A    between atoms: C_40  and  C_44
REMARK                            x       y       z     vdW  Elec       q    Type
REMARK                         _______ _______ _______ _____ _____    ______ ____
ROOT
ATOM      1  C   UNL A   1     -25.259  -0.115  29.018  0.00  0.00    +0.181 C 
ENDROOT
BRANCH   1   2
ATOM      2  N   UNL A   1     -26.481  -0.339  28.407  0.00  0.00    -0.253 NA
ATOM      3  C   UNL A   1     -27.649  -0.483  29.227  0.00  0.00    +0.094 C 
BRANCH   3   7
ATOM      4  C   UNL A   1     -29.601  -1.032  30.330  0.00  0.00    +0.018 C 
ATOM      5  N   UNL A   1     -31.843  -0.091  29.917  0.00  0.00    -0.218 N 
ATOM      6  C   UNL A   1     -31.514   0.749  28.738  0.00  0.00    +0.116 C 
ATOM      7  C   UNL A   1     -28.944  -0.719  29.200  0.00  0.00    +0.016 C 
ATOM      8  C   UNL A   1     -29.546  -0.388  27.741  0.00  0.00    -0.023 C 
ATOM      9  C   UNL A   1     -31.037  -0.173  27.583  0.00  0.00    +0.049 C 
ATOM     10  C   UNL A   1     -30.923  -0.664  30.823  0.00  0.00    +0.080 C 
ATOM     11  N   UNL A   1     -33.022  -0.452  30.004  0.00  0.00    -0.016 NA
ENDBRANCH   3   7
ENDBRANCH   1   2
BRANCH   1  12
ATOM     12  C   UNL A   1     -24.855  -1.012  30.143  0.00  0.00    +0.077 C 
BRANCH  12  13
ATOM     13  C   UNL A   1     -24.973  -2.505  29.788  0.00  0.00    -0.018 C 
ATOM     14  C   UNL A   1     -23.906  -3.173  29.146  0.00  0.00    -0.004 C 
ATOM     15  C   UNL A   1     -23.989  -4.549  28.853  0.00  0.00    -0.000 C 
ATOM     16  C   UNL A   1     -25.137  -5.280  29.205  0.00  0.00    -0.000 C 
ATOM     17  C   UNL A   1     -26.232  -4.611  29.784  0.00  0.00    -0.000 C 
ATOM     18  C   UNL A   1     -26.155  -3.232  30.065  0.00  0.00    -0.004 C 
ENDBRANCH  12  13
BRANCH  12  19
ATOM     19  C   UNL A   1     -25.387  -0.679  31.571  0.00  0.00    +0.080 C 
ATOM     20  C   UNL A   1     -25.189   0.773  32.028  0.00  0.00    +0.019 C 
ATOM     21  C   UNL A   1     -25.336   0.684  33.544  0.00  0.00    +0.020 C 
ATOM     22  C   UNL A   1     -24.829  -0.715  33.905  0.00  0.00    +0.089 C 
ATOM     23  N   UNL A   1     -24.758  -1.481  32.646  0.00  0.00    -0.219 NA
ENDBRANCH  12  19
ENDBRANCH   1  12
BRANCH   1  24
ATOM     24  N   UNL A   1     -24.702   1.051  28.896  0.00  0.00    -0.193 NA
BRANCH  24  25
ATOM     25  C   UNL A   1     -24.570   1.502  27.420  0.00  0.00    +0.102 C 
BRANCH  25  26
ATOM     26  C   UNL A   1     -25.688   1.614  26.461  0.00  0.00    +0.032 C 
ATOM     27  C   UNL A   1     -26.250   2.920  26.395  0.00  0.00    +0.074 C 
ATOM     28  C   UNL A   1     -27.438   3.091  25.645  0.00  0.00    +0.106 C 
ATOM     29  N   UNL A   1     -28.075   2.089  25.003  0.00  0.00    -0.208 NA
ATOM     30  C   UNL A   1     -27.543   0.849  25.079  0.00  0.00    +0.253 C 
ATOM     31  C   UNL A   1     -26.354   0.576  25.777  0.00  0.00    +0.190 C 
ATOM     32  F   UNL A   1     -25.860  -0.681  25.795  0.00  0.00    -0.200 F 
BRANCH  27  33
ATOM     33  C   UNL A   1     -25.642   4.093  27.123  0.00  0.00    +0.266 C 
ATOM     34  N   UNL A   1     -25.614   5.252  26.449  0.00  0.00    -0.200 NA
ATOM     35  C   UNL A   1     -25.026   6.479  26.963  0.00  0.00    +0.139 C 
ATOM     36  O   UNL A   1     -25.143   3.966  28.243  0.00  0.00    -0.268 OA
ENDBRANCH  27  33
BRANCH  30  37
ATOM     37  O   UNL A   1     -28.193  -0.208  24.477  0.00  0.00    -0.456 OA
BRANCH  37  38
ATOM     38  C   UNL A   1     -29.460   0.005  23.866  0.00  0.00    +0.243 C 
BRANCH  38  39
ATOM     39  C   UNL A   1     -30.065  -1.377  23.573  0.00  0.00    +0.229 C 
ATOM     40  O   UNL A   1     -30.729  -1.878  24.721  0.00  0.00    -0.216 OA
ENDBRANCH  38  39
ENDBRANCH  37  38
ENDBRANCH  30  37
ENDBRANCH  25  26
BRANCH  25  41
ATOM     41  C   UNL A   1     -23.162   0.955  27.032  0.00  0.00    +0.055 C 
BRANCH  41  44
ATOM     42  C   UNL A   1     -21.027   1.776  27.878  0.00  0.00    +0.035 C 
ATOM     43  O   UNL A   1     -22.157   0.307  29.356  0.00  0.00    -0.223 OA
ATOM     44  C   UNL A   1     -22.237   0.909  28.207  0.00  0.00    +0.154 C 
ENDBRANCH  41  44
ENDBRANCH  25  41
ENDBRANCH  24  25
ENDBRANCH   1  24
TORSDOF 14
