MODEL 2641
MODEL 1
REMARK VINA RESULT:    -6.124      0.000      0.000
REMARK INTER + INTRA:          -6.648
REMARK INTER:                  -6.483
REMARK INTRA:                  -0.166
REMARK UNBOUND:                -0.166
REMARK  Name = No_2641-gen_results/8p0m/2024-11-27-11-27-31/
REMARK  1 active torsions:
REMARK  status: ('A' for Active; 'I' for Inactive)
REMARK    1  A    between atoms: C_9  and  C_13
REMARK                            x       y       z     vdW  Elec       q    Type
REMARK                         _______ _______ _______ _____ _____    ______ ____
ROOT
ATOM      1  C   UNL A   1     -24.891  -1.406  29.834  0.00  0.00    +0.003 A 
ATOM      2  C   UNL A   1     -24.358  -0.783  28.945  0.00  0.00    -0.000 A 
ATOM      3  C   UNL A   1     -23.166  -0.089  29.061  0.00  0.00    +0.004 A 
ATOM      4  C   UNL A   1     -22.504  -0.142  30.323  0.00  0.00    +0.042 A 
ATOM      5  C   UNL A   1     -23.047  -0.966  31.243  0.00  0.00    +0.196 A 
ATOM      6  C   UNL A   1     -24.159  -1.661  30.996  0.00  0.00    +0.042 A 
ATOM      7  O   UNL A   1     -22.366  -1.064  32.419  0.00  0.00    -0.287 OA
ATOM      8  C   UNL A   1     -25.069  -0.537  27.573  0.00  0.00    -0.003 A 
ATOM      9  C   UNL A   1     -24.780   0.463  26.791  0.00  0.00    -0.012 A 
ATOM     10  C   UNL A   1     -23.467   1.155  27.017  0.00  0.00    +0.054 A 
ATOM     11  C   UNL A   1     -22.744   0.963  28.115  0.00  0.00    +0.011 A 
ATOM     12 CL   UNL A   1     -22.990   2.265  25.755  0.00  0.00    -0.083 Cl
ENDROOT
BRANCH   9  13
ATOM     13  C   UNL A   1     -25.403   0.694  25.451  0.00  0.00    +0.023 C 
ATOM     14  C   UNL A   1     -25.132  -0.031  24.459  0.00  0.00    +0.005 C 
ATOM     15  C   UNL A   1     -26.385   1.750  25.479  0.00  0.00    +0.005 C 
ENDBRANCH   9  13
TORSDOF 1
ENDMDL
ENDMDL
