REMARK  Name = outputs/IAG933/test6/raw/output_2641_IAG933_linker_design_.xyz
REMARK  12 active torsions:
REMARK  status: ('A' for Active; 'I' for Inactive)
REMARK    1  A    between atoms: C_1  and  C_2
REMARK    2  A    between atoms: C_1  and  C_8
REMARK    3  A    between atoms: C_1  and  N_30
REMARK    4  A    between atoms: C_13  and  C_42
REMARK    5  A    between atoms: C_14  and  C_15
REMARK    6  A    between atoms: C_21  and  O_22
REMARK    7  A    between atoms: O_22  and  C_23
REMARK    8  A    between atoms: C_23  and  C_24
REMARK    9  A    between atoms: C_29  and  C_34
REMARK   10  A    between atoms: N_30  and  C_39
REMARK   11  A    between atoms: C_31  and  C_34
REMARK   12  A    between atoms: C_35  and  O_41
REMARK                            x       y       z     vdW  Elec       q    Type
REMARK                         _______ _______ _______ _____ _____    ______ ____
ROOT
ATOM      1  C   UNL A   1     -22.023   0.022  29.067  0.00  0.00    -0.003 C 
ATOM      2  C   UNL A   1     -22.026   1.635  26.715  0.00  0.00    +0.182 C 
ATOM      3  C   UNL A   1     -20.864   0.508  28.517  0.00  0.00    +0.003 C 
ATOM      4  C   UNL A   1     -23.269   1.210  27.321  0.00  0.00    +0.019 C 
ATOM      5  C   UNL A   1     -24.562   0.624  28.262  0.00  0.00    +0.106 C 
ATOM      6  C   UNL A   1     -20.826   1.309  27.349  0.00  0.00    +0.041 C 
ATOM      7  C   UNL A   1     -24.455   1.178  27.174  0.00  0.00    +0.072 C 
ATOM      8  C   UNL A   1     -23.181   0.459  28.361  0.00  0.00    -0.004 C 
ENDROOT
BRANCH   7   9
ATOM      9  C   UNL A   1     -25.688   1.614  26.461  0.00  0.00    +0.022 C 
ATOM     10  C   UNL A   1     -26.250   2.920  26.395  0.00  0.00    +0.073 C 
ATOM     11  C   UNL A   1     -27.438   3.091  25.645  0.00  0.00    +0.106 C 
ATOM     12  N   UNL A   1     -28.075   2.089  25.003  0.00  0.00    -0.208 NA
ATOM     13  C   UNL A   1     -27.543   0.849  25.079  0.00  0.00    +0.253 C 
ATOM     14  C   UNL A   1     -26.354   0.576  25.777  0.00  0.00    +0.190 C 
ATOM     15  F   UNL A   1     -25.860  -0.681  25.795  0.00  0.00    -0.200 F 
BRANCH  10  16
ATOM     16  C   UNL A   1     -25.642   4.093  27.123  0.00  0.00    +0.266 C 
ATOM     17  N   UNL A   1     -25.614   5.252  26.449  0.00  0.00    -0.200 NA
ATOM     18  C   UNL A   1     -25.026   6.479  26.963  0.00  0.00    +0.139 C 
ATOM     19  O   UNL A   1     -25.143   3.966  28.243  0.00  0.00    -0.268 OA
ENDBRANCH  10  16
BRANCH  13  20
ATOM     20  O   UNL A   1     -28.193  -0.208  24.477  0.00  0.00    -0.456 OA
BRANCH  20  21
ATOM     21  C   UNL A   1     -29.460   0.005  23.866  0.00  0.00    +0.243 C 
BRANCH  21  22
ATOM     22  C   UNL A   1     -30.065  -1.377  23.573  0.00  0.00    +0.229 C 
ATOM     23  O   UNL A   1     -30.729  -1.878  24.721  0.00  0.00    -0.216 OA
ENDBRANCH  21  22
ENDBRANCH  20  21
ENDBRANCH  13  20
ENDBRANCH   7   9
BRANCH   5  24
ATOM     24  N   UNL A   1     -25.329  -0.045  29.161  0.00  0.00    -0.268 N 
ATOM     25  C   UNL A   1     -26.713   0.357  29.168  0.00  0.00    +0.284 C 
ATOM     26  O   UNL A   1     -27.596  -0.354  28.843  0.00  0.00    -0.267 OA
BRANCH  25  28
ATOM     27  O   UNL A   1     -25.904   2.514  30.185  0.00  0.00    -0.286 OA
ATOM     28  C   UNL A   1     -26.800   1.775  29.711  0.00  0.00    +0.226 C 
BRANCH  28  29
ATOM     29  C   UNL A   1     -28.221   2.272  29.915  0.00  0.00    +0.074 C 
ATOM     30  C   UNL A   1     -29.190   2.316  28.773  0.00  0.00    +0.009 C 
ENDBRANCH  28  29
ENDBRANCH  25  28
BRANCH  24  31
ATOM     31  C   UNL A   1     -24.855  -1.012  30.143  0.00  0.00    +0.114 C 
BRANCH  31  32
ATOM     32  C   UNL A   1     -24.973  -2.505  29.788  0.00  0.00    -0.003 C 
ATOM     33  C   UNL A   1     -23.906  -3.173  29.146  0.00  0.00    -0.003 C 
ATOM     34  C   UNL A   1     -23.989  -4.549  28.853  0.00  0.00    -0.000 C 
ATOM     35  C   UNL A   1     -25.137  -5.280  29.205  0.00  0.00    -0.000 C 
ATOM     36  C   UNL A   1     -26.232  -4.611  29.784  0.00  0.00    -0.000 C 
ATOM     37  C   UNL A   1     -26.155  -3.232  30.065  0.00  0.00    -0.003 C 
ENDBRANCH  31  32
BRANCH  31  38
ATOM     38  C   UNL A   1     -25.387  -0.679  31.571  0.00  0.00    +0.095 C 
ATOM     39  C   UNL A   1     -25.189   0.773  32.028  0.00  0.00    +0.021 C 
ATOM     40  C   UNL A   1     -25.336   0.684  33.544  0.00  0.00    +0.020 C 
ATOM     41  C   UNL A   1     -24.829  -0.715  33.905  0.00  0.00    +0.089 C 
ATOM     42  N   UNL A   1     -24.758  -1.481  32.646  0.00  0.00    -0.217 NA
ENDBRANCH  31  38
ENDBRANCH  24  31
ENDBRANCH   5  24
BRANCH   2  44
ATOM     43  O   UNL A   1     -23.149   2.262  24.836  0.00  0.00    +0.028 OA
ATOM     44  O   UNL A   1     -21.909   2.141  25.435  0.00  0.00    -0.303 OA
ENDBRANCH   2  44
TORSDOF 12
