MODEL 2642
MODEL 1
REMARK VINA RESULT:    -6.013      0.000      0.000
REMARK INTER + INTRA:          -6.997
REMARK INTER:                  -6.716
REMARK INTRA:                  -0.281
REMARK UNBOUND:                -0.281
REMARK  Name = No_2642-gen_results/8p0m/2024-11-27-11-27-31/
REMARK  2 active torsions:
REMARK  status: ('A' for Active; 'I' for Inactive)
REMARK    1  A    between atoms: C_3  and  C_4
REMARK    2  A    between atoms: C_4  and  N_8
REMARK                            x       y       z     vdW  Elec       q    Type
REMARK                         _______ _______ _______ _____ _____    ______ ____
ROOT
ATOM      1  C   UNL A   1     -25.380  -1.189  29.359  0.00  0.00    +0.099 C 
ENDROOT
BRANCH   1   4
ATOM      2  C   UNL A   1     -23.955  -3.311  28.716  0.00  0.00    -0.003 A 
ATOM      3  C   UNL A   1     -24.036  -4.357  28.617  0.00  0.00    -0.000 A 
ATOM      4  C   UNL A   1     -25.180  -2.614  29.264  0.00  0.00    -0.006 A 
ATOM      5  C   UNL A   1     -25.033  -5.314  29.114  0.00  0.00    -0.000 A 
ATOM      6  C   UNL A   1     -26.170  -4.753  29.654  0.00  0.00    -0.000 A 
ATOM      7  C   UNL A   1     -26.278  -3.392  29.781  0.00  0.00    -0.003 A 
ENDBRANCH   1   4
BRANCH   1   8
ATOM      8  N   UNL A   1     -24.475  -0.413  28.744  0.00  0.00    -0.269 NA
ATOM      9  C   UNL A   1     -24.688  -0.039  27.521  0.00  0.00    +0.072 C 
ATOM     10  C   UNL A   1     -23.719   0.916  26.936  0.00  0.00    +0.017 C 
ATOM     11  C   UNL A   1     -23.373   0.105  29.361  0.00  0.00    +0.072 C 
ATOM     12  C   UNL A   1     -22.679   0.668  28.790  0.00  0.00    +0.017 C 
ATOM     13  C   UNL A   1     -22.686   1.304  27.506  0.00  0.00    +0.003 C 
ENDBRANCH   1   8
TORSDOF 2
ENDMDL
ENDMDL
