REMARK  Name = outputs/IAG933/test6/raw/output_2642_IAG933_linker_design_.xyz
REMARK  15 active torsions:
REMARK  status: ('A' for Active; 'I' for Inactive)
REMARK    1  A    between atoms: C_1  and  C_2
REMARK    2  A    between atoms: C_1  and  C_8
REMARK    3  A    between atoms: C_1  and  N_40
REMARK    4  A    between atoms: C_13  and  C_41
REMARK    5  A    between atoms: C_14  and  C_15
REMARK    6  A    between atoms: C_21  and  O_22
REMARK    7  A    between atoms: O_22  and  C_23
REMARK    8  A    between atoms: C_23  and  C_24
REMARK    9  A    between atoms: C_28  and  C_37
REMARK   10  A    between atoms: C_29  and  C_41
REMARK   11  A    between atoms: C_30  and  C_31
REMARK   12  A    between atoms: C_30  and  C_36
REMARK   13  A    between atoms: C_31  and  O_43
REMARK   14  A    between atoms: C_36  and  C_37
REMARK   15  A    between atoms: O_38  and  C_42
REMARK                            x       y       z     vdW  Elec       q    Type
REMARK                         _______ _______ _______ _____ _____    ______ ____
ROOT
ATOM      1  C   UNL A   1     -23.835   1.081  27.882  0.00  0.00    +0.017 C 
ATOM      2  C   UNL A   1     -25.028   1.210  27.685  0.00  0.00    +0.039 C 
ENDROOT
BRANCH   2   3
ATOM      3  C   UNL A   1     -25.688   1.614  26.461  0.00  0.00    +0.097 C 
ATOM      4  C   UNL A   1     -26.250   2.920  26.395  0.00  0.00    +0.059 C 
ATOM      5  C   UNL A   1     -27.438   3.091  25.645  0.00  0.00    +0.102 C 
ATOM      6  N   UNL A   1     -28.075   2.089  25.003  0.00  0.00    -0.212 NA
ATOM      7  C   UNL A   1     -27.543   0.849  25.079  0.00  0.00    +0.234 C 
ATOM      8  C   UNL A   1     -26.354   0.576  25.777  0.00  0.00    +0.244 C 
ATOM      9  F   UNL A   1     -25.860  -0.681  25.795  0.00  0.00    -0.227 F 
BRANCH   4  10
ATOM     10  C   UNL A   1     -25.642   4.093  27.123  0.00  0.00    +0.263 C 
ATOM     11  N   UNL A   1     -25.614   5.252  26.449  0.00  0.00    -0.200 NA
ATOM     12  C   UNL A   1     -25.026   6.479  26.963  0.00  0.00    +0.139 C 
ATOM     13  O   UNL A   1     -25.143   3.966  28.243  0.00  0.00    -0.269 OA
ENDBRANCH   4  10
BRANCH   7  14
ATOM     14  O   UNL A   1     -28.193  -0.208  24.477  0.00  0.00    -0.459 OA
BRANCH  14  15
ATOM     15  C   UNL A   1     -29.460   0.005  23.866  0.00  0.00    +0.242 C 
BRANCH  15  16
ATOM     16  C   UNL A   1     -30.065  -1.377  23.573  0.00  0.00    +0.229 C 
ATOM     17  O   UNL A   1     -30.729  -1.878  24.721  0.00  0.00    -0.216 OA
ENDBRANCH  15  16
ENDBRANCH  14  15
ENDBRANCH   7  14
ENDBRANCH   2   3
BRANCH   2  18
ATOM     18  C   UNL A   1     -25.947   0.467  28.719  0.00  0.00    +0.261 C 
ATOM     19  O   UNL A   1     -27.122   0.517  28.955  0.00  0.00    -0.269 OA
ATOM     20  N   UNL A   1     -25.174  -0.133  29.286  0.00  0.00    -0.198 NA
BRANCH  20  21
ATOM     21  C   UNL A   1     -24.855  -1.012  30.143  0.00  0.00    +0.134 C 
BRANCH  21  22
ATOM     22  C   UNL A   1     -24.973  -2.505  29.788  0.00  0.00    -0.001 C 
ATOM     23  C   UNL A   1     -23.906  -3.173  29.146  0.00  0.00    -0.003 C 
ATOM     24  C   UNL A   1     -23.989  -4.549  28.853  0.00  0.00    -0.000 C 
ATOM     25  C   UNL A   1     -25.137  -5.280  29.205  0.00  0.00    -0.000 C 
ATOM     26  C   UNL A   1     -26.232  -4.611  29.784  0.00  0.00    -0.000 C 
ATOM     27  C   UNL A   1     -26.155  -3.232  30.065  0.00  0.00    -0.003 C 
ENDBRANCH  21  22
BRANCH  21  28
ATOM     28  C   UNL A   1     -25.387  -0.679  31.571  0.00  0.00    +0.097 C 
ATOM     29  C   UNL A   1     -25.189   0.773  32.028  0.00  0.00    +0.021 C 
ATOM     30  C   UNL A   1     -25.336   0.684  33.544  0.00  0.00    +0.020 C 
ATOM     31  C   UNL A   1     -24.829  -0.715  33.905  0.00  0.00    +0.089 C 
ATOM     32  N   UNL A   1     -24.758  -1.481  32.646  0.00  0.00    -0.217 NA
ENDBRANCH  21  28
ENDBRANCH  20  21
ENDBRANCH   2  18
BRANCH   1  33
ATOM     33  C   UNL A   1     -23.260   0.471  28.807  0.00  0.00    +0.043 C 
ATOM     34  C   UNL A   1     -22.185  -0.111  29.407  0.00  0.00    +0.223 C 
BRANCH  34  36
ATOM     35  O   UNL A   1     -21.433  -1.116  28.761  0.00  0.00    +0.029 OA
ATOM     36  O   UNL A   1     -21.163  -0.277  28.913  0.00  0.00    -0.300 OA
ENDBRANCH  34  36
ENDBRANCH   1  33
BRANCH   1  38
ATOM     37  F   UNL A   1     -23.205   1.633  25.549  0.00  0.00    -0.229 F 
ATOM     38  C   UNL A   1     -22.945   1.479  26.884  0.00  0.00    +0.218 C 
BRANCH  38  39
ATOM     39  C   UNL A   1     -21.546   1.635  27.016  0.00  0.00    +0.227 C 
ATOM     40  F   UNL A   1     -20.855   2.060  25.913  0.00  0.00    -0.231 F 
BRANCH  39  41
ATOM     41  C   UNL A   1     -20.672   0.956  27.956  0.00  0.00    +0.181 C 
BRANCH  41  43
ATOM     42  C   UNL A   1     -19.130   3.016  27.737  0.00  0.00    +0.174 C 
ATOM     43  O   UNL A   1     -19.564   1.727  28.053  0.00  0.00    -0.348 OA
ENDBRANCH  41  43
ENDBRANCH  39  41
ENDBRANCH  38  39
ENDBRANCH   1  38
TORSDOF 15
