REMARK  Name = outputs/IAG933/test6/raw/output_2643_IAG933_linker_design_.xyz
REMARK  9 active torsions:
REMARK  status: ('A' for Active; 'I' for Inactive)
REMARK    1  A    between atoms: C_1  and  C_2
REMARK    2  A    between atoms: C_1  and  C_8
REMARK    3  A    between atoms: C_1  and  N_38
REMARK    4  A    between atoms: C_13  and  C_30
REMARK    5  A    between atoms: C_14  and  C_15
REMARK    6  A    between atoms: C_21  and  O_22
REMARK    7  A    between atoms: O_22  and  C_23
REMARK    8  A    between atoms: C_23  and  C_24
REMARK    9  A    between atoms: C_29  and  N_36
REMARK                            x       y       z     vdW  Elec       q    Type
REMARK                         _______ _______ _______ _____ _____    ______ ____
ROOT
ATOM      1  C   UNL A   1     -22.569   1.774  26.837  0.00  0.00    +0.197 C 
ATOM      2  C   UNL A   1     -25.454   0.824  28.596  0.00  0.00    +0.136 A 
ATOM      3  C   UNL A   1     -24.890   1.213  27.545  0.00  0.00    +0.021 A 
ATOM      4  O   UNL A   1     -22.844   2.465  25.707  0.00  0.00    -0.286 OA
ATOM      5  C   UNL A   1     -23.594   1.112  27.612  0.00  0.00    +0.054 A 
ATOM      6  C   UNL A   1     -21.251   1.614  27.278  0.00  0.00    +0.042 C 
ATOM      7  C   UNL A   1     -20.924   0.714  28.297  0.00  0.00    +0.005 C 
ATOM      8  N   UNL A   1     -24.604  -0.001  29.228  0.00  0.00    -0.311 N 
ATOM      9  C   UNL A   1     -23.276   0.282  28.701  0.00  0.00    +0.064 A 
ATOM     10  C   UNL A   1     -21.911   0.011  29.022  0.00  0.00    +0.017 C 
ENDROOT
BRANCH   3  11
ATOM     11  C   UNL A   1     -25.688   1.614  26.461  0.00  0.00    +0.095 C 
ATOM     12  C   UNL A   1     -26.250   2.920  26.395  0.00  0.00    +0.059 C 
ATOM     13  C   UNL A   1     -27.438   3.091  25.645  0.00  0.00    +0.102 C 
ATOM     14  N   UNL A   1     -28.075   2.089  25.003  0.00  0.00    -0.212 NA
ATOM     15  C   UNL A   1     -27.543   0.849  25.079  0.00  0.00    +0.234 C 
ATOM     16  C   UNL A   1     -26.354   0.576  25.777  0.00  0.00    +0.244 C 
ATOM     17  F   UNL A   1     -25.860  -0.681  25.795  0.00  0.00    -0.227 F 
BRANCH  12  18
ATOM     18  C   UNL A   1     -25.642   4.093  27.123  0.00  0.00    +0.263 C 
ATOM     19  N   UNL A   1     -25.614   5.252  26.449  0.00  0.00    -0.200 NA
ATOM     20  C   UNL A   1     -25.026   6.479  26.963  0.00  0.00    +0.139 C 
ATOM     21  O   UNL A   1     -25.143   3.966  28.243  0.00  0.00    -0.269 OA
ENDBRANCH  12  18
BRANCH  15  22
ATOM     22  O   UNL A   1     -28.193  -0.208  24.477  0.00  0.00    -0.459 OA
BRANCH  22  23
ATOM     23  C   UNL A   1     -29.460   0.005  23.866  0.00  0.00    +0.242 C 
BRANCH  23  24
ATOM     24  C   UNL A   1     -30.065  -1.377  23.573  0.00  0.00    +0.229 C 
ATOM     25  O   UNL A   1     -30.729  -1.878  24.721  0.00  0.00    -0.216 OA
ENDBRANCH  23  24
ENDBRANCH  22  23
ENDBRANCH  15  22
ENDBRANCH   3  11
BRANCH   2  27
ATOM     26  O   UNL A   1     -27.829  -0.531  28.427  0.00  0.00    -0.220 OA
ATOM     27  N   UNL A   1     -26.585   1.165  29.242  0.00  0.00    -0.123 NA
ATOM     28  O   UNL A   1     -28.538   0.474  30.212  0.00  0.00    -0.220 OA
ATOM     29  C   UNL A   1     -27.708   0.297  29.371  0.00  0.00    +0.468 C 
ENDBRANCH   2  27
BRANCH   8  30
ATOM     30  C   UNL A   1     -24.855  -1.012  30.143  0.00  0.00    +0.125 C 
BRANCH  30  31
ATOM     31  C   UNL A   1     -24.973  -2.505  29.788  0.00  0.00    -0.000 C 
ATOM     32  C   UNL A   1     -23.906  -3.173  29.146  0.00  0.00    -0.002 C 
ATOM     33  C   UNL A   1     -23.989  -4.549  28.853  0.00  0.00    -0.000 C 
ATOM     34  C   UNL A   1     -25.137  -5.280  29.205  0.00  0.00    -0.000 C 
ATOM     35  C   UNL A   1     -26.232  -4.611  29.784  0.00  0.00    -0.000 C 
ATOM     36  C   UNL A   1     -26.155  -3.232  30.065  0.00  0.00    -0.002 C 
ENDBRANCH  30  31
BRANCH  30  37
ATOM     37  C   UNL A   1     -25.387  -0.679  31.571  0.00  0.00    +0.098 C 
ATOM     38  C   UNL A   1     -25.189   0.773  32.028  0.00  0.00    +0.021 C 
ATOM     39  C   UNL A   1     -25.336   0.684  33.544  0.00  0.00    +0.020 C 
ATOM     40  C   UNL A   1     -24.829  -0.715  33.905  0.00  0.00    +0.089 C 
ATOM     41  N   UNL A   1     -24.758  -1.481  32.646  0.00  0.00    -0.217 NA
ENDBRANCH  30  37
ENDBRANCH   8  30
TORSDOF 9
