MODEL 2644
MODEL 1
REMARK VINA RESULT:    -5.362      0.000      0.000
REMARK INTER + INTRA:          -5.362
REMARK INTER:                  -5.362
REMARK INTRA:                   0.000
REMARK UNBOUND:                 0.000
REMARK  Name = No_2644-gen_results/8p0m/2024-11-27-11-27-31/
REMARK  0 active torsions:
REMARK  status: ('A' for Active; 'I' for Inactive)
REMARK                            x       y       z     vdW  Elec       q    Type
REMARK                         _______ _______ _______ _____ _____    ______ ____
ROOT
ATOM      1  C   UNL A   1     -22.162   1.842  27.113  0.00  0.00    +0.000 A 
ATOM      2  C   UNL A   1     -22.761   2.186  26.317  0.00  0.00    +0.000 A 
ATOM      3  C   UNL A   1     -22.633   0.743  27.864  0.00  0.00    +0.002 A 
ATOM      4  C   UNL A   1     -23.841   0.134  27.589  0.00  0.00    +0.028 A 
ATOM      5  C   UNL A   1     -24.069   1.720  25.817  0.00  0.00    +0.000 A 
ATOM      6  C   UNL A   1     -24.557   0.668  26.510  0.00  0.00    +0.002 A 
ATOM      7  C   UNL A   1     -21.697   0.245  28.888  0.00  0.00    +0.000 A 
ATOM      8  C   UNL A   1     -22.244  -0.749  29.809  0.00  0.00    +0.002 A 
ATOM      9  C   UNL A   1     -23.294  -1.477  29.439  0.00  0.00    +0.030 A 
ATOM     10  C   UNL A   1     -24.218  -0.941  28.407  0.00  0.00    +0.140 A 
ATOM     11  F   UNL A   1     -25.364  -1.584  28.200  0.00  0.00    -0.204 F 
ENDROOT
TORSDOF 0
ENDMDL
ENDMDL
