REMARK  Name = outputs/IAG933/test6/raw/output_2645_IAG933_linker_design_.xyz
REMARK  11 active torsions:
REMARK  status: ('A' for Active; 'I' for Inactive)
REMARK    1  A    between atoms: C_1  and  C_2
REMARK    2  A    between atoms: C_1  and  C_8
REMARK    3  A    between atoms: C_1  and  C_35
REMARK    4  A    between atoms: C_13  and  N_39
REMARK    5  A    between atoms: C_14  and  C_15
REMARK    6  A    between atoms: C_21  and  O_22
REMARK    7  A    between atoms: O_22  and  C_23
REMARK    8  A    between atoms: C_23  and  C_24
REMARK    9  A    between atoms: C_29  and  C_35
REMARK   10  A    between atoms: N_33  and  C_34
REMARK   11  A    between atoms: C_34  and  C_38
REMARK                            x       y       z     vdW  Elec       q    Type
REMARK                         _______ _______ _______ _____ _____    ______ ____
ROOT
ATOM      1  C   UNL A   1     -24.519   0.492  28.325  0.00  0.00    +0.087 C 
ATOM      2  C   UNL A   1     -23.252   1.735  26.850  0.00  0.00    +0.083 C 
ATOM      3  N   UNL A   1     -22.319  -0.333  29.736  0.00  0.00    -0.126 NA
ATOM      4  C   UNL A   1     -23.034   0.442  28.715  0.00  0.00    +0.116 C 
ATOM      5  N   UNL A   1     -24.553   1.311  27.177  0.00  0.00    -0.259 N 
ATOM      6 CL   UNL A   1     -20.707   1.595  27.873  0.00  0.00    -0.079 Cl
ATOM      7  C   UNL A   1     -22.382   1.251  27.783  0.00  0.00    +0.091 C 
ENDROOT
BRANCH   5   8
ATOM      8  C   UNL A   1     -25.688   1.614  26.461  0.00  0.00    +0.094 C 
ATOM      9  C   UNL A   1     -26.250   2.920  26.395  0.00  0.00    +0.090 C 
ATOM     10  C   UNL A   1     -27.438   3.091  25.645  0.00  0.00    +0.108 C 
ATOM     11  N   UNL A   1     -28.075   2.089  25.003  0.00  0.00    -0.208 NA
ATOM     12  C   UNL A   1     -27.543   0.849  25.079  0.00  0.00    +0.255 C 
ATOM     13  C   UNL A   1     -26.354   0.576  25.777  0.00  0.00    +0.207 C 
ATOM     14  F   UNL A   1     -25.860  -0.681  25.795  0.00  0.00    -0.198 F 
BRANCH   9  15
ATOM     15  C   UNL A   1     -25.642   4.093  27.123  0.00  0.00    +0.268 C 
ATOM     16  N   UNL A   1     -25.614   5.252  26.449  0.00  0.00    -0.200 NA
ATOM     17  C   UNL A   1     -25.026   6.479  26.963  0.00  0.00    +0.139 C 
ATOM     18  O   UNL A   1     -25.143   3.966  28.243  0.00  0.00    -0.268 OA
ENDBRANCH   9  15
BRANCH  12  19
ATOM     19  O   UNL A   1     -28.193  -0.208  24.477  0.00  0.00    -0.456 OA
BRANCH  19  20
ATOM     20  C   UNL A   1     -29.460   0.005  23.866  0.00  0.00    +0.243 C 
BRANCH  20  21
ATOM     21  C   UNL A   1     -30.065  -1.377  23.573  0.00  0.00    +0.229 C 
ATOM     22  O   UNL A   1     -30.729  -1.878  24.721  0.00  0.00    -0.216 OA
ENDBRANCH  20  21
ENDBRANCH  19  20
ENDBRANCH  12  19
ENDBRANCH   5   8
BRANCH   1  24
ATOM     23  N   UNL A   1     -26.896  -0.265  28.969  0.00  0.00    -0.273 NA
ATOM     24  C   UNL A   1     -25.492  -0.104  29.096  0.00  0.00    +0.074 C 
BRANCH  24  25
ATOM     25  C   UNL A   1     -24.855  -1.012  30.143  0.00  0.00    +0.079 C 
BRANCH  25  26
ATOM     26  C   UNL A   1     -24.973  -2.505  29.788  0.00  0.00    -0.015 C 
ATOM     27  C   UNL A   1     -23.906  -3.173  29.146  0.00  0.00    -0.004 C 
ATOM     28  C   UNL A   1     -23.989  -4.549  28.853  0.00  0.00    -0.000 C 
ATOM     29  C   UNL A   1     -25.137  -5.280  29.205  0.00  0.00    -0.000 C 
ATOM     30  C   UNL A   1     -26.232  -4.611  29.784  0.00  0.00    -0.000 C 
ATOM     31  C   UNL A   1     -26.155  -3.232  30.065  0.00  0.00    -0.004 C 
ENDBRANCH  25  26
BRANCH  25  32
ATOM     32  C   UNL A   1     -25.387  -0.679  31.571  0.00  0.00    +0.082 C 
ATOM     33  C   UNL A   1     -25.189   0.773  32.028  0.00  0.00    +0.020 C 
ATOM     34  C   UNL A   1     -25.336   0.684  33.544  0.00  0.00    +0.020 C 
ATOM     35  C   UNL A   1     -24.829  -0.715  33.905  0.00  0.00    +0.089 C 
ATOM     36  N   UNL A   1     -24.758  -1.481  32.646  0.00  0.00    -0.219 NA
ENDBRANCH  25  32
ENDBRANCH  24  25
BRANCH  23  37
ATOM     37  C   UNL A   1     -27.962  -0.058  28.154  0.00  0.00    +0.130 C 
BRANCH  37  41
ATOM     38  C   UNL A   1     -29.322   0.847  30.035  0.00  0.00    +0.149 C 
ATOM     39  C   UNL A   1     -30.398   2.446  28.357  0.00  0.00    +0.294 C 
ATOM     40  C   UNL A   1     -30.450   0.024  27.706  0.00  0.00    +0.149 C 
ATOM     41  C   UNL A   1     -29.352  -0.224  28.856  0.00  0.00    +0.084 C 
ATOM     42  O   UNL A   1     -30.362   1.408  27.197  0.00  0.00    -0.327 OA
ATOM     43  O   UNL A   1     -29.294   2.219  29.500  0.00  0.00    -0.327 OA
ENDBRANCH  37  41
ENDBRANCH  23  37
ENDBRANCH   1  24
TORSDOF 11
