MODEL 2645
MODEL 1
REMARK VINA RESULT:    -4.914      0.000      0.000
REMARK INTER + INTRA:          -5.280
REMARK INTER:                  -5.201
REMARK INTRA:                  -0.079
REMARK UNBOUND:                -0.079
REMARK  Name = No_2645-gen_results/8p0m/2024-11-27-11-27-31/
REMARK  1 active torsions:
REMARK  status: ('A' for Active; 'I' for Inactive)
REMARK    1  A    between atoms: C_2  and  C_7
REMARK                            x       y       z     vdW  Elec       q    Type
REMARK                         _______ _______ _______ _____ _____    ______ ____
ROOT
ATOM      1  C   UNL A   1     -23.906  -3.541  28.547  0.00  0.00    -0.000 A 
ATOM      2  C   UNL A   1     -24.673  -2.674  28.898  0.00  0.00    -0.000 A 
ATOM      3  C   UNL A   1     -25.876  -2.989  29.520  0.00  0.00    -0.000 A 
ATOM      4  C   UNL A   1     -26.268  -4.359  29.726  0.00  0.00    -0.000 A 
ATOM      5  C   UNL A   1     -25.333  -5.297  29.269  0.00  0.00    -0.000 A 
ATOM      6  C   UNL A   1     -24.217  -4.948  28.671  0.00  0.00    -0.000 A 
ENDROOT
BRANCH   2   7
ATOM      7  C   UNL A   1     -24.473  -1.202  28.750  0.00  0.00    -0.005 C 
ATOM      8  C   UNL A   1     -23.654  -0.510  29.466  0.00  0.00    -0.026 C 
ATOM      9  C   UNL A   1     -23.322  -1.034  30.863  0.00  0.00    +0.031 C 
ENDBRANCH   2   7
TORSDOF 1
ENDMDL
ENDMDL
