MODEL 2646
MODEL 1
REMARK VINA RESULT:    -4.575      0.000      0.000
REMARK INTER + INTRA:          -4.575
REMARK INTER:                  -4.575
REMARK INTRA:                   0.000
REMARK UNBOUND:                 0.000
REMARK  Name = No_2646-gen_results/8p0m/2024-11-27-11-27-31/
REMARK  0 active torsions:
REMARK  status: ('A' for Active; 'I' for Inactive)
REMARK                            x       y       z     vdW  Elec       q    Type
REMARK                         _______ _______ _______ _____ _____    ______ ____
ROOT
ATOM      1  C   UNL A   1     -10.172  -9.766  18.363  0.00  0.00    +0.030 A 
ATOM      2  C   UNL A   1      -9.141 -10.309  18.041  0.00  0.00    +0.140 A 
ATOM      3  C   UNL A   1      -8.055 -10.360  18.909  0.00  0.00    +0.030 A 
ATOM      4  C   UNL A   1      -8.109  -9.727  20.201  0.00  0.00    +0.002 A 
ATOM      5  C   UNL A   1      -9.331  -9.102  20.483  0.00  0.00    +0.000 A 
ATOM      6  C   UNL A   1     -10.321  -9.067  19.621  0.00  0.00    +0.002 A 
ATOM      7  F   UNL A   1      -8.936 -10.878  16.853  0.00  0.00    -0.204 F 
ENDROOT
TORSDOF 0
ENDMDL
ENDMDL
