REMARK  Name = outputs/IAG933/test6/raw/output_2647_IAG933_linker_design_.xyz
REMARK  9 active torsions:
REMARK  status: ('A' for Active; 'I' for Inactive)
REMARK    1  A    between atoms: C_1  and  C_2
REMARK    2  A    between atoms: C_1  and  C_8
REMARK    3  A    between atoms: C_1  and  C_41
REMARK    4  A    between atoms: C_13  and  C_29
REMARK    5  A    between atoms: C_14  and  C_15
REMARK    6  A    between atoms: C_21  and  O_22
REMARK    7  A    between atoms: O_22  and  C_23
REMARK    8  A    between atoms: C_23  and  C_24
REMARK    9  A    between atoms: N_37  and  C_41
REMARK                            x       y       z     vdW  Elec       q    Type
REMARK                         _______ _______ _______ _____ _____    ______ ____
ROOT
ATOM      1  C   UNL A   1     -23.095   0.749  28.802  0.00  0.00    +0.034 C 
ATOM      2  C   UNL A   1     -24.507   1.274  27.216  0.00  0.00    +0.018 C 
ATOM      3  C   UNL A   1     -24.455   0.582  28.384  0.00  0.00    +0.040 C 
ATOM      4  C   UNL A   1     -22.501   1.378  27.824  0.00  0.00    +0.151 C 
ATOM      5 CL   UNL A   1     -22.800   2.538  25.346  0.00  0.00    -0.080 Cl
ATOM      6  C   UNL A   1     -23.306   1.669  26.850  0.00  0.00    +0.085 C 
ATOM      7  C   UNL A   1     -25.418  -0.145  29.072  0.00  0.00    +0.166 C 
ATOM      8  F   UNL A   1     -21.246   1.840  27.720  0.00  0.00    -0.203 F 
ENDROOT
BRANCH   2   9
ATOM      9  C   UNL A   1     -25.688   1.614  26.461  0.00  0.00    +0.039 C 
ATOM     10  C   UNL A   1     -26.250   2.920  26.395  0.00  0.00    +0.077 C 
ATOM     11  C   UNL A   1     -27.438   3.091  25.645  0.00  0.00    +0.107 C 
ATOM     12  N   UNL A   1     -28.075   2.089  25.003  0.00  0.00    -0.208 NA
ATOM     13  C   UNL A   1     -27.543   0.849  25.079  0.00  0.00    +0.253 C 
ATOM     14  C   UNL A   1     -26.354   0.576  25.777  0.00  0.00    +0.193 C 
ATOM     15  F   UNL A   1     -25.860  -0.681  25.795  0.00  0.00    -0.199 F 
BRANCH  10  16
ATOM     16  C   UNL A   1     -25.642   4.093  27.123  0.00  0.00    +0.266 C 
ATOM     17  N   UNL A   1     -25.614   5.252  26.449  0.00  0.00    -0.200 NA
ATOM     18  C   UNL A   1     -25.026   6.479  26.963  0.00  0.00    +0.139 C 
ATOM     19  O   UNL A   1     -25.143   3.966  28.243  0.00  0.00    -0.268 OA
ENDBRANCH  10  16
BRANCH  13  20
ATOM     20  O   UNL A   1     -28.193  -0.208  24.477  0.00  0.00    -0.456 OA
BRANCH  20  21
ATOM     21  C   UNL A   1     -29.460   0.005  23.866  0.00  0.00    +0.243 C 
BRANCH  21  22
ATOM     22  C   UNL A   1     -30.065  -1.377  23.573  0.00  0.00    +0.229 C 
ATOM     23  O   UNL A   1     -30.729  -1.878  24.721  0.00  0.00    -0.216 OA
ENDBRANCH  21  22
ENDBRANCH  20  21
ENDBRANCH  13  20
ENDBRANCH   2   9
BRANCH   7  27
ATOM     24  C   UNL A   1     -28.712   0.060  32.011  0.00  0.00    +0.236 C 
ATOM     25  C   UNL A   1     -30.198   0.524  30.129  0.00  0.00    +0.012 C 
ATOM     26  N   UNL A   1     -27.822  -0.489  31.116  0.00  0.00    -0.032 NA
ATOM     27  N   UNL A   1     -26.833  -0.335  28.815  0.00  0.00    -0.010 NA
ATOM     28  C   UNL A   1     -27.903  -0.320  29.761  0.00  0.00    +0.366 C 
ATOM     29  C   UNL A   1     -29.207   0.038  29.248  0.00  0.00    +0.094 C 
ATOM     30  C   UNL A   1     -29.933   0.594  31.525  0.00  0.00    +0.051 C 
ENDBRANCH   7  27
BRANCH   7  31
ATOM     31  C   UNL A   1     -24.855  -1.012  30.143  0.00  0.00    +0.102 C 
BRANCH  31  32
ATOM     32  C   UNL A   1     -24.973  -2.505  29.788  0.00  0.00    -0.013 C 
ATOM     33  C   UNL A   1     -23.906  -3.173  29.146  0.00  0.00    -0.004 C 
ATOM     34  C   UNL A   1     -23.989  -4.549  28.853  0.00  0.00    -0.000 C 
ATOM     35  C   UNL A   1     -25.137  -5.280  29.205  0.00  0.00    -0.000 C 
ATOM     36  C   UNL A   1     -26.232  -4.611  29.784  0.00  0.00    -0.000 C 
ATOM     37  C   UNL A   1     -26.155  -3.232  30.065  0.00  0.00    -0.004 C 
ENDBRANCH  31  32
BRANCH  31  38
ATOM     38  C   UNL A   1     -25.387  -0.679  31.571  0.00  0.00    +0.084 C 
ATOM     39  C   UNL A   1     -25.189   0.773  32.028  0.00  0.00    +0.020 C 
ATOM     40  C   UNL A   1     -25.336   0.684  33.544  0.00  0.00    +0.020 C 
ATOM     41  C   UNL A   1     -24.829  -0.715  33.905  0.00  0.00    +0.089 C 
ATOM     42  N   UNL A   1     -24.758  -1.481  32.646  0.00  0.00    -0.219 NA
ENDBRANCH  31  38
ENDBRANCH   7  31
TORSDOF 9
