REMARK  Name = outputs/IAG933/test6/raw/output_2648_IAG933_linker_design_.xyz
REMARK  12 active torsions:
REMARK  status: ('A' for Active; 'I' for Inactive)
REMARK    1  A    between atoms: C_1  and  C_2
REMARK    2  A    between atoms: C_1  and  C_8
REMARK    3  A    between atoms: C_1  and  C_29
REMARK    4  A    between atoms: C_13  and  C_31
REMARK    5  A    between atoms: C_14  and  C_15
REMARK    6  A    between atoms: C_21  and  O_22
REMARK    7  A    between atoms: O_22  and  C_23
REMARK    8  A    between atoms: C_23  and  C_24
REMARK    9  A    between atoms: O_28  and  C_46
REMARK   10  A    between atoms: C_29  and  C_32
REMARK   11  A    between atoms: C_29  and  O_39
REMARK   12  A    between atoms: C_31  and  O_39
REMARK                            x       y       z     vdW  Elec       q    Type
REMARK                         _______ _______ _______ _____ _____    ______ ____
ROOT
ATOM      1  C   UNL A   1     -26.086  -0.322  29.276  0.00  0.00    +0.143 C 
ENDROOT
BRANCH   1   3
ATOM      2  C   UNL A   1     -31.211  -0.214  28.291  0.00  0.00    +0.240 C 
ATOM      3  C   UNL A   1     -27.679  -0.163  29.245  0.00  0.00    +0.004 C 
ATOM      4  C   UNL A   1     -28.141   1.052  29.852  0.00  0.00    +0.033 C 
ATOM      5  C   UNL A   1     -30.029  -1.075  28.223  0.00  0.00    +0.078 C 
ATOM      6  C   UNL A   1     -30.726   0.763  29.422  0.00  0.00    +0.252 C 
ATOM      7  O   UNL A   1     -31.588   0.367  27.040  0.00  0.00    -0.203 OA
ATOM      8  N   UNL A   1     -32.424  -1.032  28.587  0.00  0.00    -0.097 NA
ATOM      9  C   UNL A   1     -29.471   1.473  29.907  0.00  0.00    +0.150 C 
ATOM     10  O   UNL A   1     -31.815   1.169  30.015  0.00  0.00    -0.211 OA
ATOM     11  C   UNL A   1     -28.591  -1.081  28.544  0.00  0.00    -0.024 C 
BRANCH   9  12
ATOM     12  O   UNL A   1     -29.651   2.774  30.383  0.00  0.00    -0.473 OA
ATOM     13  C   UNL A   1     -28.671   3.263  31.327  0.00  0.00    +0.252 C 
ENDBRANCH   9  12
ENDBRANCH   1   3
BRANCH   1  14
ATOM     14  C   UNL A   1     -24.855  -1.012  30.143  0.00  0.00    +0.070 C 
BRANCH  14  15
ATOM     15  C   UNL A   1     -24.973  -2.505  29.788  0.00  0.00    -0.018 C 
ATOM     16  C   UNL A   1     -23.906  -3.173  29.146  0.00  0.00    -0.004 C 
ATOM     17  C   UNL A   1     -23.989  -4.549  28.853  0.00  0.00    -0.000 C 
ATOM     18  C   UNL A   1     -25.137  -5.280  29.205  0.00  0.00    -0.000 C 
ATOM     19  C   UNL A   1     -26.232  -4.611  29.784  0.00  0.00    -0.000 C 
ATOM     20  C   UNL A   1     -26.155  -3.232  30.065  0.00  0.00    -0.004 C 
ENDBRANCH  14  15
BRANCH  14  21
ATOM     21  C   UNL A   1     -25.387  -0.679  31.571  0.00  0.00    +0.080 C 
ATOM     22  C   UNL A   1     -25.189   0.773  32.028  0.00  0.00    +0.019 C 
ATOM     23  C   UNL A   1     -25.336   0.684  33.544  0.00  0.00    +0.020 C 
ATOM     24  C   UNL A   1     -24.829  -0.715  33.905  0.00  0.00    +0.089 C 
ATOM     25  N   UNL A   1     -24.758  -1.481  32.646  0.00  0.00    -0.219 NA
ENDBRANCH  14  21
ENDBRANCH   1  14
BRANCH   1  26
ATOM     26  O   UNL A   1     -25.652  -0.205  27.934  0.00  0.00    -0.348 OA
BRANCH  26  27
ATOM     27  C   UNL A   1     -24.861   1.101  27.609  0.00  0.00    +0.137 C 
ATOM     28  C   UNL A   1     -22.410   2.227  26.140  0.00  0.00    +0.230 C 
ATOM     29  C   UNL A   1     -23.568   1.654  26.769  0.00  0.00    +0.026 C 
ATOM     30  O   UNL A   1     -21.285   1.767  26.739  0.00  0.00    -0.468 OA
ATOM     31  C   UNL A   1     -21.243   0.916  27.800  0.00  0.00    +0.172 C 
ATOM     32  C   UNL A   1     -22.414   0.437  28.265  0.00  0.00    +0.038 C 
ATOM     33  C   UNL A   1     -23.531   0.884  27.668  0.00  0.00    +0.007 C 
BRANCH  27  34
ATOM     34  C   UNL A   1     -25.688   1.614  26.461  0.00  0.00    +0.103 C 
ATOM     35  C   UNL A   1     -26.250   2.920  26.395  0.00  0.00    +0.058 C 
ATOM     36  C   UNL A   1     -27.438   3.091  25.645  0.00  0.00    +0.102 C 
ATOM     37  N   UNL A   1     -28.075   2.089  25.003  0.00  0.00    -0.212 NA
ATOM     38  C   UNL A   1     -27.543   0.849  25.079  0.00  0.00    +0.234 C 
ATOM     39  C   UNL A   1     -26.354   0.576  25.777  0.00  0.00    +0.243 C 
ATOM     40  F   UNL A   1     -25.860  -0.681  25.795  0.00  0.00    -0.227 F 
BRANCH  35  41
ATOM     41  C   UNL A   1     -25.642   4.093  27.123  0.00  0.00    +0.263 C 
ATOM     42  N   UNL A   1     -25.614   5.252  26.449  0.00  0.00    -0.200 NA
ATOM     43  C   UNL A   1     -25.026   6.479  26.963  0.00  0.00    +0.139 C 
ATOM     44  O   UNL A   1     -25.143   3.966  28.243  0.00  0.00    -0.269 OA
ENDBRANCH  35  41
BRANCH  38  45
ATOM     45  O   UNL A   1     -28.193  -0.208  24.477  0.00  0.00    -0.459 OA
BRANCH  45  46
ATOM     46  C   UNL A   1     -29.460   0.005  23.866  0.00  0.00    +0.242 C 
BRANCH  46  47
ATOM     47  C   UNL A   1     -30.065  -1.377  23.573  0.00  0.00    +0.229 C 
ATOM     48  O   UNL A   1     -30.729  -1.878  24.721  0.00  0.00    -0.216 OA
ENDBRANCH  46  47
ENDBRANCH  45  46
ENDBRANCH  38  45
ENDBRANCH  27  34
ENDBRANCH  26  27
ENDBRANCH   1  26
TORSDOF 12
