REMARK  Name = outputs/IAG933/test6/raw/output_2649_IAG933_linker_design_.xyz
REMARK  11 active torsions:
REMARK  status: ('A' for Active; 'I' for Inactive)
REMARK    1  A    between atoms: C_1  and  C_2
REMARK    2  A    between atoms: C_1  and  C_8
REMARK    3  A    between atoms: C_1  and  N_39
REMARK    4  A    between atoms: C_13  and  C_42
REMARK    5  A    between atoms: C_14  and  C_15
REMARK    6  A    between atoms: C_21  and  O_22
REMARK    7  A    between atoms: O_22  and  C_23
REMARK    8  A    between atoms: C_23  and  C_24
REMARK    9  A    between atoms: C_31  and  N_39
REMARK   10  A    between atoms: N_39  and  C_45
REMARK   11  A    between atoms: C_45  and  C_46
REMARK                            x       y       z     vdW  Elec       q    Type
REMARK                         _______ _______ _______ _____ _____    ______ ____
ROOT
ATOM      1  C   UNL A   1     -20.803   1.332  27.426  0.00  0.00    +0.204 C 
ATOM      2  O   UNL A   1     -20.525   0.285  28.344  0.00  0.00    -0.235 OA
ATOM      3  C   UNL A   1     -22.970   0.664  28.372  0.00  0.00    +0.099 C 
ATOM      4  C   UNL A   1     -24.330   0.652  28.320  0.00  0.00    +0.124 C 
ATOM      5  N   UNL A   1     -21.984   0.073  29.054  0.00  0.00    -0.146 N 
ATOM      6  C   UNL A   1     -22.230   1.351  27.235  0.00  0.00    +0.037 C 
ATOM      7 CL   UNL A   1     -23.120   2.209  24.682  0.00  0.00    -0.083 Cl
ATOM      8  C   UNL A   1     -23.282   1.742  26.294  0.00  0.00    +0.055 C 
ATOM      9  C   UNL A   1     -24.531   1.342  27.084  0.00  0.00    +0.011 C 
ATOM     10  N   UNL A   1     -21.980  -0.600  30.109  0.00  0.00    +0.022 NA
ENDROOT
BRANCH   9  11
ATOM     11  C   UNL A   1     -25.688   1.614  26.461  0.00  0.00    +0.036 C 
ATOM     12  C   UNL A   1     -26.250   2.920  26.395  0.00  0.00    +0.076 C 
ATOM     13  C   UNL A   1     -27.438   3.091  25.645  0.00  0.00    +0.107 C 
ATOM     14  N   UNL A   1     -28.075   2.089  25.003  0.00  0.00    -0.208 NA
ATOM     15  C   UNL A   1     -27.543   0.849  25.079  0.00  0.00    +0.253 C 
ATOM     16  C   UNL A   1     -26.354   0.576  25.777  0.00  0.00    +0.193 C 
ATOM     17  F   UNL A   1     -25.860  -0.681  25.795  0.00  0.00    -0.199 F 
BRANCH  12  18
ATOM     18  C   UNL A   1     -25.642   4.093  27.123  0.00  0.00    +0.266 C 
ATOM     19  N   UNL A   1     -25.614   5.252  26.449  0.00  0.00    -0.200 NA
ATOM     20  C   UNL A   1     -25.026   6.479  26.963  0.00  0.00    +0.139 C 
ATOM     21  O   UNL A   1     -25.143   3.966  28.243  0.00  0.00    -0.268 OA
ENDBRANCH  12  18
BRANCH  15  22
ATOM     22  O   UNL A   1     -28.193  -0.208  24.477  0.00  0.00    -0.456 OA
BRANCH  22  23
ATOM     23  C   UNL A   1     -29.460   0.005  23.866  0.00  0.00    +0.243 C 
BRANCH  23  24
ATOM     24  C   UNL A   1     -30.065  -1.377  23.573  0.00  0.00    +0.229 C 
ATOM     25  O   UNL A   1     -30.729  -1.878  24.721  0.00  0.00    -0.216 OA
ENDBRANCH  23  24
ENDBRANCH  22  23
ENDBRANCH  15  22
ENDBRANCH   9  11
BRANCH   4  26
ATOM     26  N   UNL A   1     -25.278  -0.019  29.140  0.00  0.00    -0.254 NA
BRANCH  26  27
ATOM     27  C   UNL A   1     -24.855  -1.012  30.143  0.00  0.00    +0.097 C 
BRANCH  27  28
ATOM     28  C   UNL A   1     -24.973  -2.505  29.788  0.00  0.00    -0.006 C 
ATOM     29  C   UNL A   1     -23.906  -3.173  29.146  0.00  0.00    -0.003 C 
ATOM     30  C   UNL A   1     -23.989  -4.549  28.853  0.00  0.00    -0.000 C 
ATOM     31  C   UNL A   1     -25.137  -5.280  29.205  0.00  0.00    -0.000 C 
ATOM     32  C   UNL A   1     -26.232  -4.611  29.784  0.00  0.00    -0.000 C 
ATOM     33  C   UNL A   1     -26.155  -3.232  30.065  0.00  0.00    -0.003 C 
ENDBRANCH  27  28
BRANCH  27  34
ATOM     34  C   UNL A   1     -25.387  -0.679  31.571  0.00  0.00    +0.092 C 
ATOM     35  C   UNL A   1     -25.189   0.773  32.028  0.00  0.00    +0.021 C 
ATOM     36  C   UNL A   1     -25.336   0.684  33.544  0.00  0.00    +0.020 C 
ATOM     37  C   UNL A   1     -24.829  -0.715  33.905  0.00  0.00    +0.089 C 
ATOM     38  N   UNL A   1     -24.758  -1.481  32.646  0.00  0.00    -0.218 NA
ENDBRANCH  27  34
ENDBRANCH  26  27
BRANCH  26  39
ATOM     39  C   UNL A   1     -26.921  -0.024  28.923  0.00  0.00    +0.159 C 
BRANCH  39  46
ATOM     40  C   UNL A   1     -29.575   1.375  30.628  0.00  0.00    +0.093 C 
ATOM     41  N   UNL A   1     -29.289   1.101  29.237  0.00  0.00    -0.278 N 
ATOM     42  C   UNL A   1     -29.143   3.434  29.244  0.00  0.00    +0.023 C 
ATOM     43  O   UNL A   1     -29.068  -0.502  28.002  0.00  0.00    -0.273 OA
ATOM     44  C   UNL A   1     -29.757   2.303  28.409  0.00  0.00    +0.093 C 
ATOM     45  C   UNL A   1     -29.304   2.906  30.670  0.00  0.00    +0.023 C 
ATOM     46  C   UNL A   1     -28.523   0.170  28.688  0.00  0.00    +0.242 C 
ENDBRANCH  39  46
ENDBRANCH  26  39
ENDBRANCH   4  26
TORSDOF 11
