MODEL 2649
MODEL 1
REMARK VINA RESULT:    -8.374      0.000      0.000
REMARK INTER + INTRA:         -11.588
REMARK INTER:                 -10.332
REMARK INTRA:                  -1.256
REMARK UNBOUND:                -1.256
REMARK  Name = No_2649-gen_results/8p0m/2024-11-27-11-27-31/
REMARK  4 active torsions:
REMARK  status: ('A' for Active; 'I' for Inactive)
REMARK    1  A    between atoms: C_4  and  C_8
REMARK    2  A    between atoms: C_8  and  C_9
REMARK    3  A    between atoms: C_12  and  C_15
REMARK    4  A    between atoms: C_15  and  C_16
REMARK                            x       y       z     vdW  Elec       q    Type
REMARK                         _______ _______ _______ _____ _____    ______ ____
ROOT
ATOM      1  C   UNL A   1     -22.858   1.585  27.622  0.00  0.00    -0.018 A 
ATOM      2  C   UNL A   1     -21.449   1.382  27.435  0.00  0.00    -0.004 A 
ATOM      3  C   UNL A   1     -23.489   0.896  28.669  0.00  0.00    -0.008 A 
ATOM      4  C   UNL A   1     -22.813  -0.233  29.284  0.00  0.00    -0.018 A 
ATOM      5  C   UNL A   1     -20.740   0.423  28.181  0.00  0.00    -0.001 A 
ATOM      6  C   UNL A   1     -21.402  -0.381  29.091  0.00  0.00    -0.004 A 
ENDROOT
BRANCH   1   7
ATOM      7  C   UNL A   1     -23.560   2.276  26.682  0.00  0.00    +0.053 C 
BRANCH   7  11
ATOM      8  C   UNL A   1     -25.824  -0.081  24.655  0.00  0.00    +0.011 A 
ATOM      9  C   UNL A   1     -26.665   0.551  24.594  0.00  0.00    +0.058 A 
ATOM     10  C   UNL A   1     -24.639   0.463  25.339  0.00  0.00    -0.003 A 
ATOM     11  C   UNL A   1     -24.699   1.724  26.000  0.00  0.00    -0.018 A 
ATOM     12  C   UNL A   1     -27.000   1.854  25.231  0.00  0.00    +0.011 A 
ATOM     13  C   UNL A   1     -25.923   2.395  25.867  0.00  0.00    -0.003 A 
ATOM     14 CL   UNL A   1     -28.227  -0.072  23.843  0.00  0.00    -0.082 Cl
ENDBRANCH   7  11
ENDBRANCH   1   7
BRANCH   4  15
ATOM     15  C   UNL A   1     -23.471  -1.136  30.237  0.00  0.00    +0.053 C 
BRANCH  15  16
ATOM     16  C   UNL A   1     -24.178  -2.202  29.785  0.00  0.00    -0.018 A 
ATOM     17  C   UNL A   1     -23.842  -3.111  29.084  0.00  0.00    -0.004 A 
ATOM     18  C   UNL A   1     -24.128  -4.149  28.712  0.00  0.00    -0.000 A 
ATOM     19  C   UNL A   1     -25.519  -4.429  29.130  0.00  0.00    -0.000 A 
ATOM     20  C   UNL A   1     -26.198  -3.483  29.845  0.00  0.00    -0.000 A 
ATOM     21  C   UNL A   1     -25.516  -2.394  30.317  0.00  0.00    -0.004 A 
ENDBRANCH  15  16
ENDBRANCH   4  15
TORSDOF 4
ENDMDL
ENDMDL
