MODEL 264
MODEL 1
REMARK VINA RESULT:    -5.146      0.000      0.000
REMARK INTER + INTRA:          -6.476
REMARK INTER:                  -6.049
REMARK INTRA:                  -0.427
REMARK UNBOUND:                -0.427
REMARK  Name = No_264-gen_results/8p0m/2024-11-27-11-27-31/
REMARK  3 active torsions:
REMARK  status: ('A' for Active; 'I' for Inactive)
REMARK    1  A    between atoms: C_2  and  O_7
REMARK    2  A    between atoms: O_7  and  C_8
REMARK    3  A    between atoms: C_9  and  C_10
REMARK                            x       y       z     vdW  Elec       q    Type
REMARK                         _______ _______ _______ _____ _____    ______ ____
ROOT
ATOM      1  C   UNL A   1     -25.896  -3.099  30.020  0.00  0.00    +0.037 A 
ATOM      2  C   UNL A   1     -25.000  -2.728  29.606  0.00  0.00    +0.145 A 
ATOM      3  C   UNL A   1     -26.214  -4.541  29.694  0.00  0.00    +0.003 A 
ATOM      4  C   UNL A   1     -25.261  -5.320  29.005  0.00  0.00    +0.000 A 
ATOM      5  C   UNL A   1     -23.842  -3.321  28.900  0.00  0.00    +0.037 A 
ATOM      6  C   UNL A   1     -24.096  -4.650  28.588  0.00  0.00    +0.003 A 
ENDROOT
BRANCH   2   7
ATOM      7  O   UNL A   1     -24.686  -1.326  29.919  0.00  0.00    -0.450 OA
BRANCH   7   8
ATOM      8  C   UNL A   1     -23.970  -1.017  30.998  0.00  0.00    +0.179 C 
ATOM      9  C   UNL A   1     -22.946  -0.342  30.820  0.00  0.00    +0.041 C 
BRANCH   9  10
ATOM     10  C   UNL A   1     -22.547   0.150  29.527  0.00  0.00    +0.003 C 
ATOM     11  C   UNL A   1     -21.510  -0.340  28.999  0.00  0.00    +0.000 C 
ENDBRANCH   9  10
ENDBRANCH   7   8
ENDBRANCH   2   7
TORSDOF 3
ENDMDL
ENDMDL
