REMARK  Name = No_2650-gen_results/8p0m/2024-11-27-11-27-31/
REMARK  2 active torsions:
REMARK  status: ('A' for Active; 'I' for Inactive)
REMARK    1  A    between atoms: C_1  and  C_2
REMARK    2  A    between atoms: C_4  and  C_12
REMARK                            x       y       z     vdW  Elec       q    Type
REMARK                         _______ _______ _______ _____ _____    ______ ____
ROOT
ATOM      1  C   UNL A   1     -27.811   1.612  25.840  0.00  0.00    +0.025 C 
ATOM      2  C   UNL A   1     -28.389   1.132  24.660  0.00  0.00    +0.009 C 
ATOM      3  C   UNL A   1     -27.689   2.961  26.130  0.00  0.00    +0.009 C 
ATOM      4  C   UNL A   1     -29.747   0.851  24.662  0.00  0.00    +0.022 C 
ATOM      5  C   UNL A   1     -30.560   1.550  25.274  0.00  0.00    -0.026 A 
ATOM      6  C   UNL A   1     -31.987   1.229  25.321  0.00  0.00    -0.005 A 
ATOM      7  C   UNL A   1     -32.920   1.841  26.125  0.00  0.00    -0.000 A 
ATOM      8  C   UNL A   1     -32.461   2.898  26.956  0.00  0.00    -0.000 A 
ATOM      9  C   UNL A   1     -31.123   3.233  27.021  0.00  0.00    -0.005 A 
ATOM     10  C   UNL A   1     -30.272   2.573  26.327  0.00  0.00    -0.026 A 
ATOM     11  C   UNL A   1     -28.893   3.122  26.505  0.00  0.00    +0.022 C 
ATOM     12  C   UNL A   1     -30.104  -0.245  23.751  0.00  0.00    +0.005 C 
ATOM     13  C   UNL A   1     -28.978   4.407  27.352  0.00  0.00    +0.005 C 
ENDROOT
BRANCH   1  16
ATOM     14  C   UNL A   1     -28.016  -0.814  28.878  0.00  0.00    +0.055 A 
ATOM     15  C   UNL A   1     -28.182   0.428  28.113  0.00  0.00    +0.003 A 
ATOM     16  C   UNL A   1     -27.450   0.643  26.850  0.00  0.00    +0.005 A 
ATOM     17  C   UNL A   1     -26.181   0.036  26.715  0.00  0.00    +0.136 A 
ATOM     18  C   UNL A   1     -25.780  -0.933  27.694  0.00  0.00    +0.029 A 
ATOM     19  C   UNL A   1     -26.557  -1.213  28.741  0.00  0.00    +0.007 A 
ATOM     20  F   UNL A   1     -25.370   0.298  25.696  0.00  0.00    -0.204 F 
BRANCH  14  21
ATOM     21  C   UNL A   1     -28.469  -0.785  29.829  0.00  0.00    +0.265 C 
ATOM     22  N   UNL A   1     -29.592  -0.315  30.205  0.00  0.00    -0.200 NA
ATOM     23  O   UNL A   1     -28.358  -2.026  30.631  0.00  0.00    -0.268 OA
ATOM     24  C   UNL A   1     -30.514  -0.658  31.304  0.00  0.00    +0.139 C 
ENDBRANCH  14  21
ENDBRANCH   1  16
TORSDOF 2
