MODEL 2650
MODEL 1
REMARK VINA RESULT:    -8.022      0.000      0.000
REMARK INTER + INTRA:          -9.911
REMARK INTER:                  -8.960
REMARK INTRA:                  -0.951
REMARK UNBOUND:                -0.951
REMARK  Name = No_2650-gen_results/8p0m/2024-11-27-11-27-31/
REMARK  2 active torsions:
REMARK  status: ('A' for Active; 'I' for Inactive)
REMARK    1  A    between atoms: C_1  and  C_2
REMARK    2  A    between atoms: C_4  and  C_12
REMARK                            x       y       z     vdW  Elec       q    Type
REMARK                         _______ _______ _______ _____ _____    ______ ____
ROOT
ATOM      1  C   UNL A   1     -23.116  -0.241  29.143  0.00  0.00    +0.025 C 
ATOM      2  C   UNL A   1     -23.285   0.402  30.374  0.00  0.00    +0.009 C 
ATOM      3  C   UNL A   1     -22.721  -1.564  29.027  0.00  0.00    +0.009 C 
ATOM      4  C   UNL A   1     -24.545   0.386  30.954  0.00  0.00    +0.022 C 
ATOM      5  C   UNL A   1     -25.283  -0.601  30.891  0.00  0.00    -0.026 A 
ATOM      6  C   UNL A   1     -26.632  -0.605  31.457  0.00  0.00    -0.005 A 
ATOM      7  C   UNL A   1     -27.578  -1.585  31.268  0.00  0.00    -0.000 A 
ATOM      8  C   UNL A   1     -27.197  -2.705  30.481  0.00  0.00    -0.000 A 
ATOM      9  C   UNL A   1     -25.966  -2.762  29.859  0.00  0.00    -0.005 A 
ATOM     10  C   UNL A   1     -25.150  -1.782  29.983  0.00  0.00    -0.026 A 
ATOM     11  C   UNL A   1     -23.864  -2.062  29.273  0.00  0.00    +0.022 C 
ATOM     12  C   UNL A   1     -24.817   1.585  31.759  0.00  0.00    +0.005 C 
ATOM     13  C   UNL A   1     -23.891  -3.513  28.755  0.00  0.00    +0.005 C 
ENDROOT
BRANCH   1  16
ATOM     14  C   UNL A   1     -25.239   1.182  26.206  0.00  0.00    +0.055 A 
ATOM     15  C   UNL A   1     -24.692   0.183  27.132  0.00  0.00    +0.003 A 
ATOM     16  C   UNL A   1     -23.502   0.482  27.952  0.00  0.00    +0.005 A 
ATOM     17  C   UNL A   1     -22.545   1.374  27.419  0.00  0.00    +0.136 A 
ATOM     18  C   UNL A   1     -22.885   2.114  26.238  0.00  0.00    +0.029 A 
ATOM     19  C   UNL A   1     -24.051   1.923  25.620  0.00  0.00    +0.007 A 
ATOM     20  F   UNL A   1     -21.366   1.582  27.995  0.00  0.00    -0.204 F 
BRANCH  14  21
ATOM     21  C   UNL A   1     -25.990   0.800  25.572  0.00  0.00    +0.265 C 
ATOM     22  N   UNL A   1     -27.015   1.358  25.062  0.00  0.00    -0.200 NA
ATOM     23  O   UNL A   1     -25.517  -0.068  24.469  0.00  0.00    -0.268 OA
ATOM     24  C   UNL A   1     -27.787   1.118  23.829  0.00  0.00    +0.139 C 
ENDBRANCH  14  21
ENDBRANCH   1  16
TORSDOF 2
ENDMDL
ENDMDL
