MODEL 2652
MODEL 1
REMARK VINA RESULT:    -4.236      0.000      0.000
REMARK INTER + INTRA:          -4.236
REMARK INTER:                  -4.236
REMARK INTRA:                   0.000
REMARK UNBOUND:                 0.000
REMARK  Name = No_2652-gen_results/8p0m/2024-11-27-11-27-31/
REMARK  0 active torsions:
REMARK  status: ('A' for Active; 'I' for Inactive)
REMARK                            x       y       z     vdW  Elec       q    Type
REMARK                         _______ _______ _______ _____ _____    ______ ____
ROOT
ATOM      1  C   UNL A   1     -25.836  -2.907  29.581  0.00  0.00    +0.007 A 
ATOM      2  C   UNL A   1     -24.808  -2.661  28.995  0.00  0.00    +0.035 A 
ATOM      3  C   UNL A   1     -23.962  -3.610  28.517  0.00  0.00    +0.007 A 
ATOM      4  C   UNL A   1     -24.296  -4.963  28.714  0.00  0.00    +0.001 A 
ATOM      5  C   UNL A   1     -26.288  -4.267  29.733  0.00  0.00    +0.001 A 
ATOM      6  C   UNL A   1     -25.460  -5.258  29.297  0.00  0.00    +0.000 A 
ATOM      7 BR   UNL A   1     -24.259  -0.855  28.663  0.00  0.00    -0.049 Br
ENDROOT
TORSDOF 0
ENDMDL
ENDMDL
