REMARK  Name = No_2652-gen_results/8p0m/2024-11-27-11-27-31/
REMARK  0 active torsions:
REMARK  status: ('A' for Active; 'I' for Inactive)
REMARK                            x       y       z     vdW  Elec       q    Type
REMARK                         _______ _______ _______ _____ _____    ______ ____
ROOT
ATOM      1  C   UNL A   1     -28.016  -0.814  28.878  0.00  0.00    +0.007 A 
ATOM      2  C   UNL A   1     -27.064  -0.119  28.608  0.00  0.00    +0.035 A 
ATOM      3  C   UNL A   1     -26.929   1.171  29.008  0.00  0.00    +0.007 A 
ATOM      4  C   UNL A   1     -27.956   1.741  29.784  0.00  0.00    +0.001 A 
ATOM      5  C   UNL A   1     -29.057  -0.327  29.747  0.00  0.00    +0.001 A 
ATOM      6  C   UNL A   1     -28.983   0.972  30.152  0.00  0.00    +0.000 A 
ATOM      7 BR   UNL A   1     -25.604  -0.794  27.566  0.00  0.00    -0.049 Br
ENDROOT
TORSDOF 0
