REMARK  Name = outputs/IAG933/test6/raw/output_2653_IAG933_linker_design_.xyz
REMARK  14 active torsions:
REMARK  status: ('A' for Active; 'I' for Inactive)
REMARK    1  A    between atoms: C_1  and  C_2
REMARK    2  A    between atoms: C_1  and  C_8
REMARK    3  A    between atoms: C_1  and  C_34
REMARK    4  A    between atoms: C_13  and  C_44
REMARK    5  A    between atoms: C_14  and  C_15
REMARK    6  A    between atoms: C_21  and  O_22
REMARK    7  A    between atoms: O_22  and  C_23
REMARK    8  A    between atoms: C_23  and  C_24
REMARK    9  A    between atoms: O_28  and  C_44
REMARK   10  A    between atoms: C_32  and  C_34
REMARK   11  A    between atoms: C_32  and  C_44
REMARK   12  A    between atoms: C_33  and  C_38
REMARK   13  A    between atoms: C_34  and  N_36
REMARK   14  A    between atoms: C_38  and  C_45
REMARK                            x       y       z     vdW  Elec       q    Type
REMARK                         _______ _______ _______ _____ _____    ______ ____
ROOT
ATOM      1  C   UNL A   1     -25.008  -0.111  28.986  0.00  0.00    +0.103 C 
ENDROOT
BRANCH   1   3
ATOM      2  C   UNL A   1     -27.303   0.102  29.154  0.00  0.00    +0.245 C 
ATOM      3  N   UNL A   1     -26.163   0.789  28.934  0.00  0.00    -0.207 NA
ATOM      4  O   UNL A   1     -27.500  -1.116  29.020  0.00  0.00    -0.273 OA
BRANCH   2   5
ATOM      5  C   UNL A   1     -28.410   0.984  29.796  0.00  0.00    +0.130 C 
BRANCH   5  14
ATOM      6  C   UNL A   1     -31.928   2.254  29.095  0.00  0.00    +0.069 C 
ATOM      7  C   UNL A   1     -31.752   0.514  27.260  0.00  0.00    +0.174 C 
ATOM      8  C   UNL A   1     -31.086  -0.739  27.834  0.00  0.00    +0.325 C 
ATOM      9  C   UNL A   1     -30.750   1.547  29.905  0.00  0.00    +0.052 C 
ATOM     10  O   UNL A   1     -29.960  -0.447  28.640  0.00  0.00    -0.451 OA
ATOM     11  O   UNL A   1     -33.690   1.593  27.652  0.00  0.00    -0.295 OA
ATOM     12  C   UNL A   1     -32.517   1.463  27.908  0.00  0.00    +0.162 C 
ATOM     13  O   UNL A   1     -31.349  -1.824  27.633  0.00  0.00    -0.250 OA
ATOM     14  C   UNL A   1     -29.667   0.957  28.911  0.00  0.00    +0.178 C 
ENDBRANCH   5  14
ENDBRANCH   2   5
ENDBRANCH   1   3
BRANCH   1  15
ATOM     15  C   UNL A   1     -23.792   0.738  28.624  0.00  0.00    +0.052 C 
ATOM     16  C   UNL A   1     -22.396  -0.022  28.882  0.00  0.00    +0.005 C 
BRANCH  15  17
ATOM     17  C   UNL A   1     -24.312   1.439  27.291  0.00  0.00    +0.142 C 
BRANCH  17  18
ATOM     18  C   UNL A   1     -25.688   1.614  26.461  0.00  0.00    +0.043 C 
ATOM     19  C   UNL A   1     -26.250   2.920  26.395  0.00  0.00    +0.075 C 
ATOM     20  C   UNL A   1     -27.438   3.091  25.645  0.00  0.00    +0.106 C 
ATOM     21  N   UNL A   1     -28.075   2.089  25.003  0.00  0.00    -0.208 NA
ATOM     22  C   UNL A   1     -27.543   0.849  25.079  0.00  0.00    +0.253 C 
ATOM     23  C   UNL A   1     -26.354   0.576  25.777  0.00  0.00    +0.191 C 
ATOM     24  F   UNL A   1     -25.860  -0.681  25.795  0.00  0.00    -0.200 F 
BRANCH  19  25
ATOM     25  C   UNL A   1     -25.642   4.093  27.123  0.00  0.00    +0.266 C 
ATOM     26  N   UNL A   1     -25.614   5.252  26.449  0.00  0.00    -0.200 NA
ATOM     27  C   UNL A   1     -25.026   6.479  26.963  0.00  0.00    +0.139 C 
ATOM     28  O   UNL A   1     -25.143   3.966  28.243  0.00  0.00    -0.268 OA
ENDBRANCH  19  25
BRANCH  22  29
ATOM     29  O   UNL A   1     -28.193  -0.208  24.477  0.00  0.00    -0.456 OA
BRANCH  29  30
ATOM     30  C   UNL A   1     -29.460   0.005  23.866  0.00  0.00    +0.243 C 
BRANCH  30  31
ATOM     31  C   UNL A   1     -30.065  -1.377  23.573  0.00  0.00    +0.229 C 
ATOM     32  O   UNL A   1     -30.729  -1.878  24.721  0.00  0.00    -0.216 OA
ENDBRANCH  30  31
ENDBRANCH  29  30
ENDBRANCH  22  29
ENDBRANCH  17  18
BRANCH  17  33
ATOM     33  O   UNL A   1     -23.179   1.550  26.232  0.00  0.00    -0.349 OA
ATOM     34  C   UNL A   1     -21.811   1.641  26.675  0.00  0.00    +0.174 C 
ENDBRANCH  17  33
ENDBRANCH  15  17
ENDBRANCH   1  15
BRANCH   1  35
ATOM     35  C   UNL A   1     -24.855  -1.012  30.143  0.00  0.00    +0.058 C 
BRANCH  35  36
ATOM     36  C   UNL A   1     -24.973  -2.505  29.788  0.00  0.00    -0.019 C 
ATOM     37  C   UNL A   1     -23.906  -3.173  29.146  0.00  0.00    -0.004 C 
ATOM     38  C   UNL A   1     -23.989  -4.549  28.853  0.00  0.00    -0.000 C 
ATOM     39  C   UNL A   1     -25.137  -5.280  29.205  0.00  0.00    -0.000 C 
ATOM     40  C   UNL A   1     -26.232  -4.611  29.784  0.00  0.00    -0.000 C 
ATOM     41  C   UNL A   1     -26.155  -3.232  30.065  0.00  0.00    -0.004 C 
ENDBRANCH  35  36
BRANCH  35  42
ATOM     42  C   UNL A   1     -25.387  -0.679  31.571  0.00  0.00    +0.079 C 
ATOM     43  C   UNL A   1     -25.189   0.773  32.028  0.00  0.00    +0.019 C 
ATOM     44  C   UNL A   1     -25.336   0.684  33.544  0.00  0.00    +0.020 C 
ATOM     45  C   UNL A   1     -24.829  -0.715  33.905  0.00  0.00    +0.089 C 
ATOM     46  N   UNL A   1     -24.758  -1.481  32.646  0.00  0.00    -0.219 NA
ENDBRANCH  35  42
ENDBRANCH   1  35
TORSDOF 14
