MODEL 2653
MODEL 1
REMARK VINA RESULT:    -6.850      0.000      0.000
REMARK INTER + INTRA:         -13.263
REMARK INTER:                 -11.254
REMARK INTRA:                  -2.008
REMARK UNBOUND:                -2.008
REMARK  Name = No_2653-gen_results/8p0m/2024-11-27-11-27-31/
REMARK  11 active torsions:
REMARK  status: ('A' for Active; 'I' for Inactive)
REMARK    1  A    between atoms: C_1  and  C_2
REMARK    2  A    between atoms: C_1  and  N_8
REMARK    3  A    between atoms: C_5  and  C_13
REMARK    4  A    between atoms: N_8  and  C_9
REMARK    5  A    between atoms: N_8  and  C_22
REMARK    6  A    between atoms: C_10  and  C_11
REMARK    7  A    between atoms: C_12  and  C_16
REMARK    8  A    between atoms: N_24  and  C_28
REMARK    9  A    between atoms: C_28  and  C_29
REMARK   10  A    between atoms: N_31  and  C_32
REMARK   11  A    between atoms: C_32  and  C_34
REMARK                            x       y       z     vdW  Elec       q    Type
REMARK                         _______ _______ _______ _____ _____    ______ ____
ROOT
ATOM      1  N   UNL A   1     -23.130 -15.380   6.015  0.00  0.00    -0.303 N 
ENDROOT
BRANCH   1   2
ATOM      2  C   UNL A   1     -24.535 -15.875   6.381  0.00  0.00    +0.089 C 
ATOM      3  C   UNL A   1     -25.024 -16.947   5.730  0.00  0.00    +0.092 C 
ATOM      4  N   UNL A   1     -26.082 -17.386   6.112  0.00  0.00    -0.264 NA
ATOM      5  C   UNL A   1     -27.102 -16.730   6.083  0.00  0.00    +0.073 C 
ATOM      6  C   UNL A   1     -26.968 -15.393   6.740  0.00  0.00    +0.019 C 
ATOM      7  C   UNL A   1     -25.542 -14.870   6.833  0.00  0.00    +0.023 C 
BRANCH   4   8
ATOM      8  C   UNL A   1     -26.233 -18.823   6.486  0.00  0.00    +0.159 C 
BRANCH   8   9
ATOM      9  C   UNL A   1     -25.700 -19.213   7.592  0.00  0.00    +0.242 C 
ATOM     10  O   UNL A   1     -25.707 -18.676   8.503  0.00  0.00    -0.273 OA
ATOM     11  N   UNL A   1     -24.647 -20.161   7.484  0.00  0.00    -0.277 N 
ATOM     12  C   UNL A   1     -24.341 -20.986   6.323  0.00  0.00    +0.115 C 
BRANCH  11  13
ATOM     13  C   UNL A   1     -23.839 -20.646   8.655  0.00  0.00    +0.093 C 
BRANCH  13  14
ATOM     14  C   UNL A   1     -22.321 -20.333   8.429  0.00  0.00    +0.021 C 
ATOM     15  C   UNL A   1     -21.396 -21.285   8.662  0.00  0.00    +0.002 C 
ENDBRANCH  13  14
ENDBRANCH  11  13
ENDBRANCH   8   9
ENDBRANCH   4   8
ENDBRANCH   1   2
BRANCH   1  16
ATOM     16  C   UNL A   1     -22.372 -16.079   6.046  0.00  0.00    +0.062 C 
ATOM     17  C   UNL A   1     -21.833 -17.053   5.729  0.00  0.00    +0.016 C 
BRANCH  17  18
ATOM     18  C   UNL A   1     -21.031 -18.176   5.905  0.00  0.00    +0.001 C 
ATOM     19  C   UNL A   1     -20.251 -19.026   5.832  0.00  0.00    +0.000 C 
BRANCH  19  20
ATOM     20  C   UNL A   1     -19.447 -19.993   5.737  0.00  0.00    +0.000 A 
ATOM     21  C   UNL A   1     -18.140 -19.855   6.234  0.00  0.00    +0.000 A 
ATOM     22  C   UNL A   1     -17.224 -20.988   6.126  0.00  0.00    +0.000 A 
ATOM     23  C   UNL A   1     -17.733 -22.141   5.515  0.00  0.00    +0.000 A 
ATOM     24  C   UNL A   1     -18.998 -22.207   5.025  0.00  0.00    +0.000 A 
ATOM     25  C   UNL A   1     -19.808 -21.174   5.059  0.00  0.00    +0.000 A 
ENDBRANCH  19  20
ENDBRANCH  17  18
ENDBRANCH   1  16
BRANCH   1  26
ATOM     26  C   UNL A   1     -23.088 -13.988   5.869  0.00  0.00    +0.118 C 
BRANCH  26  27
ATOM     27  C   UNL A   1     -22.520 -13.563   4.890  0.00  0.00    -0.002 A 
ATOM     28  C   UNL A   1     -21.413 -12.728   5.007  0.00  0.00    -0.003 A 
ATOM     29  C   UNL A   1     -20.637 -12.134   3.882  0.00  0.00    +0.004 A 
ATOM     30  C   UNL A   1     -20.976 -12.596   2.576  0.00  0.00    +0.057 A 
ATOM     31  C   UNL A   1     -22.063 -13.489   2.485  0.00  0.00    +0.004 A 
ATOM     32  C   UNL A   1     -22.759 -13.949   3.535  0.00  0.00    -0.003 A 
BRANCH  30  33
ATOM     33  C   UNL A   1     -20.209 -12.073   1.467  0.00  0.00    +0.284 C 
ATOM     34  N   UNL A   1     -18.872 -11.850   1.595  0.00  0.00    -0.084 NA
ATOM     35  O   UNL A   1     -20.741 -12.077   0.318  0.00  0.00    -0.267 OA
ENDBRANCH  30  33
ENDBRANCH  26  27
ENDBRANCH   1  26
TORSDOF 11
ENDMDL
ENDMDL
