MODEL 2654
MODEL 1
REMARK VINA RESULT:    -4.344      0.000      0.000
REMARK INTER + INTRA:          -4.344
REMARK INTER:                  -4.344
REMARK INTRA:                   0.000
REMARK UNBOUND:                 0.000
REMARK  Name = No_2654-gen_results/8p0m/2024-11-27-11-27-31/
REMARK  0 active torsions:
REMARK  status: ('A' for Active; 'I' for Inactive)
REMARK                            x       y       z     vdW  Elec       q    Type
REMARK                         _______ _______ _______ _____ _____    ______ ____
ROOT
ATOM      1  C   UNL A   1     -24.172  -4.883  28.602  0.00  0.00    +0.000 A 
ATOM      2  C   UNL A   1     -25.019  -5.304  29.068  0.00  0.00    +0.000 A 
ATOM      3  C   UNL A   1     -24.090  -3.425  28.747  0.00  0.00    +0.000 A 
ATOM      4  C   UNL A   1     -25.086  -2.698  29.257  0.00  0.00    +0.000 A 
ATOM      5  C   UNL A   1     -26.211  -4.737  29.649  0.00  0.00    +0.000 A 
ATOM      6  C   UNL A   1     -26.126  -3.380  29.752  0.00  0.00    +0.000 A 
ENDROOT
TORSDOF 0
ENDMDL
ENDMDL
