REMARK  Name = outputs/IAG933/test6/raw/output_2655_IAG933_linker_design_.xyz
REMARK  11 active torsions:
REMARK  status: ('A' for Active; 'I' for Inactive)
REMARK    1  A    between atoms: C_1  and  C_2
REMARK    2  A    between atoms: C_1  and  C_8
REMARK    3  A    between atoms: C_1  and  C_44
REMARK    4  A    between atoms: C_9  and  C_29
REMARK    5  A    between atoms: C_13  and  N_33
REMARK    6  A    between atoms: C_14  and  C_15
REMARK    7  A    between atoms: C_21  and  O_22
REMARK    8  A    between atoms: O_22  and  C_23
REMARK    9  A    between atoms: C_23  and  C_24
REMARK   10  A    between atoms: C_28  and  C_40
REMARK   11  A    between atoms: O_31  and  C_38
REMARK                            x       y       z     vdW  Elec       q    Type
REMARK                         _______ _______ _______ _____ _____    ______ ____
ROOT
ATOM      1  C   UNL A   1     -24.855  -1.012  30.143  0.00  0.00    +0.068 C 
ENDROOT
BRANCH   1   7
ATOM      2  O   UNL A   1     -23.021   0.100  28.896  0.00  0.00    -0.328 OA
ATOM      3  N   UNL A   1     -24.673   1.276  27.346  0.00  0.00    -0.299 N 
ATOM      4  C   UNL A   1     -22.436   1.188  28.150  0.00  0.00    +0.289 C 
ATOM      5  C   UNL A   1     -23.257   1.318  26.881  0.00  0.00    +0.156 C 
ATOM      6  C   UNL A   1     -25.327   0.545  28.527  0.00  0.00    +0.121 C 
ATOM      7  C   UNL A   1     -24.201   0.122  29.381  0.00  0.00    +0.143 C 
ATOM      8  O   UNL A   1     -21.008   1.358  27.950  0.00  0.00    -0.188 OA
BRANCH   3   9
ATOM      9  C   UNL A   1     -25.688   1.614  26.461  0.00  0.00    +0.086 C 
ATOM     10  C   UNL A   1     -26.250   2.920  26.395  0.00  0.00    +0.090 C 
ATOM     11  C   UNL A   1     -27.438   3.091  25.645  0.00  0.00    +0.108 C 
ATOM     12  N   UNL A   1     -28.075   2.089  25.003  0.00  0.00    -0.208 NA
ATOM     13  C   UNL A   1     -27.543   0.849  25.079  0.00  0.00    +0.255 C 
ATOM     14  C   UNL A   1     -26.354   0.576  25.777  0.00  0.00    +0.206 C 
ATOM     15  F   UNL A   1     -25.860  -0.681  25.795  0.00  0.00    -0.198 F 
BRANCH  10  16
ATOM     16  C   UNL A   1     -25.642   4.093  27.123  0.00  0.00    +0.268 C 
ATOM     17  N   UNL A   1     -25.614   5.252  26.449  0.00  0.00    -0.200 NA
ATOM     18  C   UNL A   1     -25.026   6.479  26.963  0.00  0.00    +0.139 C 
ATOM     19  O   UNL A   1     -25.143   3.966  28.243  0.00  0.00    -0.268 OA
ENDBRANCH  10  16
BRANCH  13  20
ATOM     20  O   UNL A   1     -28.193  -0.208  24.477  0.00  0.00    -0.456 OA
BRANCH  20  21
ATOM     21  C   UNL A   1     -29.460   0.005  23.866  0.00  0.00    +0.243 C 
BRANCH  21  22
ATOM     22  C   UNL A   1     -30.065  -1.377  23.573  0.00  0.00    +0.229 C 
ATOM     23  O   UNL A   1     -30.729  -1.878  24.721  0.00  0.00    -0.216 OA
ENDBRANCH  21  22
ENDBRANCH  20  21
ENDBRANCH  13  20
ENDBRANCH   3   9
ENDBRANCH   1   7
BRANCH   1  24
ATOM     24  C   UNL A   1     -24.973  -2.505  29.788  0.00  0.00    -0.019 C 
ATOM     25  C   UNL A   1     -23.906  -3.173  29.146  0.00  0.00    -0.004 C 
ATOM     26  C   UNL A   1     -23.989  -4.549  28.853  0.00  0.00    -0.000 C 
ATOM     27  C   UNL A   1     -25.137  -5.280  29.205  0.00  0.00    -0.000 C 
ATOM     28  C   UNL A   1     -26.232  -4.611  29.784  0.00  0.00    -0.000 C 
ATOM     29  C   UNL A   1     -26.155  -3.232  30.065  0.00  0.00    -0.004 C 
ENDBRANCH   1  24
BRANCH   1  30
ATOM     30  C   UNL A   1     -25.387  -0.679  31.571  0.00  0.00    +0.083 C 
ATOM     31  C   UNL A   1     -25.189   0.773  32.028  0.00  0.00    +0.040 C 
ATOM     32  C   UNL A   1     -25.336   0.684  33.544  0.00  0.00    +0.025 C 
ATOM     33  C   UNL A   1     -24.829  -0.715  33.905  0.00  0.00    +0.089 C 
ATOM     34  N   UNL A   1     -24.758  -1.481  32.646  0.00  0.00    -0.219 NA
BRANCH  31  35
ATOM     35  C   UNL A   1     -24.534   1.910  31.235  0.00  0.00    -0.025 C 
ATOM     36  C   UNL A   1     -24.686   3.364  31.343  0.00  0.00    -0.002 C 
BRANCH  36  37
ATOM     37  C   UNL A   1     -25.365   4.323  32.345  0.00  0.00    +0.036 C 
ATOM     38  C   UNL A   1     -26.929   7.665  34.757  0.00  0.00    +0.113 C 
ATOM     39  C   UNL A   1     -27.313   5.490  33.280  0.00  0.00    +0.134 C 
ATOM     40  C   UNL A   1     -25.179   6.049  34.123  0.00  0.00    +0.062 C 
ATOM     41  C   UNL A   1     -26.737   4.489  32.378  0.00  0.00    +0.181 C 
ATOM     42  C   UNL A   1     -28.813   5.649  33.330  0.00  0.00    +0.030 C 
ATOM     43  C   UNL A   1     -24.574   5.155  33.224  0.00  0.00    +0.019 C 
ATOM     44  N   UNL A   1     -26.524   6.343  34.092  0.00  0.00    -0.300 N 
BRANCH  41  45
ATOM     45  O   UNL A   1     -27.474   3.771  31.412  0.00  0.00    -0.306 OA
ATOM     46  O   UNL A   1     -27.097   3.983  30.098  0.00  0.00    +0.028 OA
ENDBRANCH  41  45
ENDBRANCH  36  37
ENDBRANCH  31  35
ENDBRANCH   1  30
TORSDOF 11
