MODEL 2655
MODEL 1
REMARK VINA RESULT:    -4.887      0.000      0.000
REMARK INTER + INTRA:          -5.570
REMARK INTER:                  -5.459
REMARK INTRA:                  -0.111
REMARK UNBOUND:                -0.111
REMARK  Name = No_2655-gen_results/8p0m/2024-11-27-11-27-31/
REMARK  2 active torsions:
REMARK  status: ('A' for Active; 'I' for Inactive)
REMARK    1  A    between atoms: C_1  and  C_2
REMARK    2  A    between atoms: C_1  and  N_8
REMARK                            x       y       z     vdW  Elec       q    Type
REMARK                         _______ _______ _______ _____ _____    ______ ____
ROOT
ATOM      1  C   UNL A   1     -22.987  -0.584  28.868  0.00  0.00    +0.002 A 
ATOM      2  C   UNL A   1     -23.626   0.401  28.121  0.00  0.00    -0.002 A 
ATOM      3  C   UNL A   1     -22.961   1.445  27.291  0.00  0.00    -0.000 A 
ATOM      4  C   UNL A   1     -21.542   1.525  27.407  0.00  0.00    -0.000 A 
ATOM      5  C   UNL A   1     -20.919   0.554  28.217  0.00  0.00    -0.000 A 
ATOM      6  C   UNL A   1     -21.570  -0.398  28.900  0.00  0.00    -0.002 A 
ENDROOT
BRANCH   1   7
ATOM      7  C   UNL A   1     -23.620  -1.394  29.504  0.00  0.00    +0.153 C 
BRANCH   7   8
ATOM      8  N   UNL A   1     -23.579  -2.718  29.049  0.00  0.00    -0.246 NA
ATOM      9  C   UNL A   1     -24.144  -3.547  28.938  0.00  0.00    +0.200 C 
ATOM     10  N   UNL A   1     -23.730  -4.774  28.314  0.00  0.00    -0.104 NA
ENDBRANCH   7   8
ENDBRANCH   1   7
TORSDOF 2
ENDMDL
ENDMDL
