MODEL 2656
MODEL 1
REMARK VINA RESULT:    -7.530      0.000      0.000
REMARK INTER + INTRA:         -10.039
REMARK INTER:                  -9.291
REMARK INTRA:                  -0.747
REMARK UNBOUND:                -0.747
REMARK  Name = No_2656-gen_results/8p0m/2024-11-27-11-27-31/
REMARK  5 active torsions:
REMARK  status: ('A' for Active; 'I' for Inactive)
REMARK    1  A    between atoms: C_7  and  C_11
REMARK    2  A    between atoms: C_7  and  O_14
REMARK    3  A    between atoms: O_14  and  C_15
REMARK    4  A    between atoms: C_15  and  C_17
REMARK    5  A    between atoms: C_21  and  C_23
REMARK                            x       y       z     vdW  Elec       q    Type
REMARK                         _______ _______ _______ _____ _____    ______ ____
ROOT
ATOM      1  O   UNL A   1     -23.392  -3.235  28.803  0.00  0.00    -0.275 OA
ATOM      2  C   UNL A   1     -23.982  -2.401  29.336  0.00  0.00    +0.229 C 
ATOM      3  C   UNL A   1     -24.971  -2.182  29.723  0.00  0.00    +0.080 C 
ATOM      4  N   UNL A   1     -23.103  -1.155  29.573  0.00  0.00    -0.229 N 
ATOM      5  C   UNL A   1     -25.677  -1.103  30.409  0.00  0.00    +0.055 C 
ATOM      6  C   UNL A   1     -21.828  -1.042  29.165  0.00  0.00    +0.120 C 
ATOM      7  C   UNL A   1     -24.765   0.030  30.556  0.00  0.00    +0.258 C 
ATOM      8  C   UNL A   1     -23.537   0.004  30.185  0.00  0.00    +0.355 C 
ATOM      9  F   UNL A   1     -22.844   1.000  30.338  0.00  0.00    -0.182 F 
ATOM     10  C   UNL A   1     -25.984  -3.473  29.664  0.00  0.00    +0.010 C 
ATOM     11  O   UNL A   1     -23.027  -0.504  31.359  0.00  0.00    -0.166 OA
ENDROOT
BRANCH   7  12
ATOM     12  C   UNL A   1     -25.373   1.243  31.303  0.00  0.00    +0.396 C 
ATOM     13  O   UNL A   1     -25.921   2.122  30.716  0.00  0.00    -0.243 OA
ATOM     14  O   UNL A   1     -25.547   1.106  32.603  0.00  0.00    -0.243 OA
ENDBRANCH   7  12
BRANCH   7  15
ATOM     15  O   UNL A   1     -25.303   0.841  29.834  0.00  0.00    -0.337 OA
BRANCH  15  16
ATOM     16  C   UNL A   1     -26.191   0.713  28.897  0.00  0.00    +0.169 C 
BRANCH  16  17
ATOM     17  C   UNL A   1     -25.602   0.552  27.488  0.00  0.00    +0.007 A 
ATOM     18  C   UNL A   1     -26.235  -0.234  26.642  0.00  0.00    -0.002 A 
ATOM     19  C   UNL A   1     -25.710  -0.224  25.364  0.00  0.00    -0.000 A 
ATOM     20  C   UNL A   1     -24.664   0.604  25.012  0.00  0.00    +0.004 A 
ATOM     21  C   UNL A   1     -24.121   1.477  25.900  0.00  0.00    +0.071 A 
ATOM     22  C   UNL A   1     -24.652   1.435  27.208  0.00  0.00    +0.002 A 
BRANCH  21  23
ATOM     23  C   UNL A   1     -23.016   2.314  25.536  0.00  0.00    +0.419 C 
ATOM     24  F   UNL A   1     -22.128   2.380  26.158  0.00  0.00    -0.166 F 
ATOM     25  F   UNL A   1     -23.460   3.621  25.222  0.00  0.00    -0.166 F 
ATOM     26  F   UNL A   1     -22.573   1.877  24.281  0.00  0.00    -0.166 F 
ENDBRANCH  21  23
ENDBRANCH  16  17
ENDBRANCH  15  16
ENDBRANCH   7  15
TORSDOF 5
ENDMDL
ENDMDL
