REMARK  Name = No_2656-gen_results/8p0m/2024-11-27-11-27-31/
REMARK  5 active torsions:
REMARK  status: ('A' for Active; 'I' for Inactive)
REMARK    1  A    between atoms: C_7  and  C_11
REMARK    2  A    between atoms: C_7  and  O_14
REMARK    3  A    between atoms: O_14  and  C_15
REMARK    4  A    between atoms: C_15  and  C_17
REMARK    5  A    between atoms: C_21  and  C_23
REMARK                            x       y       z     vdW  Elec       q    Type
REMARK                         _______ _______ _______ _____ _____    ______ ____
ROOT
ATOM      1  O   UNL A   1     -28.123  -1.335  28.487  0.00  0.00    -0.275 OA
ATOM      2  C   UNL A   1     -27.481  -0.404  28.709  0.00  0.00    +0.229 C 
ATOM      3  C   UNL A   1     -27.190   0.246  29.527  0.00  0.00    +0.080 C 
ATOM      4  N   UNL A   1     -26.816   0.137  27.426  0.00  0.00    -0.229 N 
ATOM      5  C   UNL A   1     -26.355   1.420  29.764  0.00  0.00    +0.055 C 
ATOM      6  C   UNL A   1     -27.003  -0.384  26.201  0.00  0.00    +0.120 C 
ATOM      7  C   UNL A   1     -25.801   1.863  28.486  0.00  0.00    +0.258 C 
ATOM      8  C   UNL A   1     -25.994   1.245  27.378  0.00  0.00    +0.355 C 
ATOM      9  F   UNL A   1     -25.498   1.688  26.351  0.00  0.00    -0.182 F 
ATOM     10  C   UNL A   1     -27.715  -0.288  30.988  0.00  0.00    +0.010 C 
ATOM     11  O   UNL A   1     -24.930   0.378  27.491  0.00  0.00    -0.166 OA
ENDROOT
BRANCH   7  12
ATOM     12  C   UNL A   1     -24.860   3.088  28.591  0.00  0.00    +0.396 C 
ATOM     13  O   UNL A   1     -24.978   3.888  29.465  0.00  0.00    -0.243 OA
ATOM     14  O   UNL A   1     -23.745   3.036  27.888  0.00  0.00    -0.243 OA
ENDBRANCH   7  12
BRANCH   7  15
ATOM     15  O   UNL A   1     -26.358   2.931  28.361  0.00  0.00    -0.337 OA
BRANCH  15  16
ATOM     16  C   UNL A   1     -26.658   3.634  27.312  0.00  0.00    +0.169 C 
BRANCH  16  17
ATOM     17  C   UNL A   1     -28.148   3.613  26.943  0.00  0.00    +0.007 A 
ATOM     18  C   UNL A   1     -28.857   4.696  27.182  0.00  0.00    -0.002 A 
ATOM     19  C   UNL A   1     -30.154   4.636  26.707  0.00  0.00    -0.000 A 
ATOM     20  C   UNL A   1     -30.615   3.557  25.982  0.00  0.00    +0.004 A 
ATOM     21  C   UNL A   1     -29.804   2.513  25.670  0.00  0.00    +0.071 A 
ATOM     22  C   UNL A   1     -28.490   2.579  26.186  0.00  0.00    +0.002 A 
BRANCH  21  23
ATOM     23  C   UNL A   1     -30.297   1.382  24.942  0.00  0.00    +0.419 C 
ATOM     24  F   UNL A   1     -30.709   1.488  23.943  0.00  0.00    -0.166 F 
ATOM     25  F   UNL A   1     -31.195   0.628  25.736  0.00  0.00    -0.166 F 
ATOM     26  F   UNL A   1     -29.231   0.481  24.822  0.00  0.00    -0.166 F 
ENDBRANCH  21  23
ENDBRANCH  16  17
ENDBRANCH  15  16
ENDBRANCH   7  15
TORSDOF 5
