MODEL 2657
MODEL 1
REMARK VINA RESULT:    -8.020      0.000      0.000
REMARK INTER + INTRA:         -11.802
REMARK INTER:                 -10.365
REMARK INTRA:                  -1.437
REMARK UNBOUND:                -1.437
REMARK  Name = No_2657-gen_results/8p0m/2024-11-27-11-27-31/
REMARK  5 active torsions:
REMARK  status: ('A' for Active; 'I' for Inactive)
REMARK    1  A    between atoms: C_2  and  C_23
REMARK    2  A    between atoms: C_3  and  C_4
REMARK    3  A    between atoms: C_7  and  C_13
REMARK    4  A    between atoms: C_13  and  C_15
REMARK    5  A    between atoms: C_16  and  C_17
REMARK                            x       y       z     vdW  Elec       q    Type
REMARK                         _______ _______ _______ _____ _____    ______ ____
ROOT
ATOM      1  C   UNL A   1      -8.888  -0.617  36.274  0.00  0.00    +0.007 A 
ATOM      2  C   UNL A   1      -8.667  -0.048  35.415  0.00  0.00    +0.080 A 
ATOM      3  C   UNL A   1     -10.195  -0.303  36.864  0.00  0.00    -0.000 A 
ATOM      4  C   UNL A   1      -9.258   1.139  34.863  0.00  0.00    +0.004 A 
ATOM      5  C   UNL A   1     -10.417   1.468  35.398  0.00  0.00    -0.003 A 
ATOM      6  C   UNL A   1     -10.970   0.719  36.412  0.00  0.00    -0.003 A 
ENDROOT
BRANCH   3   7
ATOM      7  C   UNL A   1     -10.756  -1.133  37.947  0.00  0.00    -0.000 A 
ATOM      8  C   UNL A   1     -11.669  -2.054  37.750  0.00  0.00    -0.000 A 
ATOM      9  C   UNL A   1     -12.221  -2.764  38.813  0.00  0.00    -0.000 A 
ATOM     10  C   UNL A   1     -11.903  -2.442  40.132  0.00  0.00    +0.000 A 
ATOM     11  C   UNL A   1     -10.937  -1.474  40.362  0.00  0.00    -0.000 A 
ATOM     12  C   UNL A   1     -10.373  -0.810  39.328  0.00  0.00    -0.000 A 
ENDBRANCH   3   7
BRANCH   2  13
ATOM     13  C   UNL A   1      -7.206  -0.363  34.752  0.00  0.00    +0.388 C 
ATOM     14  O   UNL A   1      -6.334   0.491  34.799  0.00  0.00    -0.241 OA
ATOM     15  O   UNL A   1      -6.825  -1.581  34.524  0.00  0.00    -0.241 OA
ENDBRANCH   2  13
BRANCH   5  16
ATOM     16  C   UNL A   1     -11.227   2.653  34.890  0.00  0.00    +0.124 C 
ATOM     17 CL   UNL A   1     -10.793   4.098  34.979  0.00  0.00    -0.105 Cl
BRANCH  16  18
ATOM     18  C   UNL A   1     -12.521   2.307  34.338  0.00  0.00    -0.006 C 
ATOM     19  C   UNL A   1     -13.507   2.623  35.122  0.00  0.00    -0.003 C 
BRANCH  19  20
ATOM     20  C   UNL A   1     -14.426   3.032  35.235  0.00  0.00    -0.000 C 
ATOM     21  C   UNL A   1     -14.934   3.513  36.538  0.00  0.00    -0.000 C 
ATOM     22  C   UNL A   1     -16.247   3.783  36.818  0.00  0.00    -0.000 C 
ATOM     23  C   UNL A   1     -16.711   3.779  38.120  0.00  0.00    -0.000 C 
ATOM     24  C   UNL A   1     -15.696   3.668  39.091  0.00  0.00    -0.000 C 
ATOM     25  C   UNL A   1     -14.555   3.015  37.833  0.00  0.00    -0.000 C 
ENDBRANCH  19  20
ENDBRANCH  16  18
ENDBRANCH   5  16
TORSDOF 5
ENDMDL
ENDMDL
