MODEL 2659
MODEL 1
REMARK VINA RESULT:    -5.734      0.000      0.000
REMARK INTER + INTRA:          -6.319
REMARK INTER:                  -6.069
REMARK INTRA:                  -0.250
REMARK UNBOUND:                -0.250
REMARK  Name = No_2659-gen_results/8p0m/2024-11-27-11-27-31/
REMARK  1 active torsions:
REMARK  status: ('A' for Active; 'I' for Inactive)
REMARK    1  A    between atoms: C_4  and  C_7
REMARK                            x       y       z     vdW  Elec       q    Type
REMARK                         _______ _______ _______ _____ _____    ______ ____
ROOT
ATOM      1  C   UNL A   1     -26.059  -4.412  29.608  0.00  0.00    +0.041 A 
ATOM      2  C   UNL A   1     -26.912  -3.916  29.979  0.00  0.00    +0.060 A 
ATOM      3  C   UNL A   1     -25.019  -3.568  28.998  0.00  0.00    +0.141 A 
ATOM      4  C   UNL A   1     -25.118  -2.147  29.046  0.00  0.00    +0.029 A 
ATOM      5  C   UNL A   1     -26.260  -1.643  29.616  0.00  0.00    +0.003 A 
ATOM      6  C   UNL A   1     -27.195  -2.465  30.138  0.00  0.00    +0.011 A 
ATOM      7 CL   UNL A   1     -28.235  -4.923  30.707  0.00  0.00    -0.082 Cl
ATOM      8  F   UNL A   1     -23.900  -4.066  28.440  0.00  0.00    -0.204 F 
ENDROOT
BRANCH   4   9
ATOM      9  C   UNL A   1     -24.087  -1.309  28.463  0.00  0.00    +0.021 A 
ATOM     10  C   UNL A   1     -24.212  -0.159  28.014  0.00  0.00    +0.003 A 
ATOM     11  C   UNL A   1     -23.106   0.718  27.618  0.00  0.00    +0.021 A 
ATOM     12  C   UNL A   1     -22.802  -1.129  29.282  0.00  0.00    +0.099 A 
ATOM     13  N   UNL A   1     -21.853  -0.314  28.977  0.00  0.00    -0.242 NA
ATOM     14  C   UNL A   1     -22.117   0.845  28.467  0.00  0.00    +0.099 A 
ENDBRANCH   4   9
TORSDOF 1
ENDMDL
ENDMDL
