MODEL 2661
MODEL 1
REMARK VINA RESULT:    -4.563      0.000      0.000
REMARK INTER + INTRA:          -4.563
REMARK INTER:                  -4.563
REMARK INTRA:                   0.000
REMARK UNBOUND:                 0.000
REMARK  Name = No_2661-gen_results/8p0m/2024-11-27-11-27-31/
REMARK  0 active torsions:
REMARK  status: ('A' for Active; 'I' for Inactive)
REMARK                            x       y       z     vdW  Elec       q    Type
REMARK                         _______ _______ _______ _____ _____    ______ ____
ROOT
ATOM      1  C   UNL A   1     -26.200  -3.229  29.991  0.00  0.00    +0.002 A 
ATOM      2  C   UNL A   1     -25.416  -2.602  29.668  0.00  0.00    +0.000 A 
ATOM      3  C   UNL A   1     -26.117  -4.644  29.595  0.00  0.00    +0.030 A 
ATOM      4  C   UNL A   1     -24.958  -5.145  28.933  0.00  0.00    +0.140 A 
ATOM      5  C   UNL A   1     -23.990  -4.220  28.632  0.00  0.00    +0.030 A 
ATOM      6  C   UNL A   1     -24.130  -2.927  28.996  0.00  0.00    +0.002 A 
ATOM      7  F   UNL A   1     -24.882  -6.374  28.587  0.00  0.00    -0.204 F 
ENDROOT
TORSDOF 0
ENDMDL
ENDMDL
