REMARK  Name = outputs/IAG933/test6/raw/output_2662_IAG933_linker_design_.xyz
REMARK  11 active torsions:
REMARK  status: ('A' for Active; 'I' for Inactive)
REMARK    1  A    between atoms: C_1  and  C_2
REMARK    2  A    between atoms: C_1  and  C_8
REMARK    3  A    between atoms: C_1  and  C_31
REMARK    4  A    between atoms: C_13  and  C_38
REMARK    5  A    between atoms: C_14  and  C_15
REMARK    6  A    between atoms: C_21  and  O_22
REMARK    7  A    between atoms: O_22  and  C_23
REMARK    8  A    between atoms: C_23  and  C_24
REMARK    9  A    between atoms: C_29  and  C_37
REMARK   10  A    between atoms: C_33  and  C_37
REMARK   11  A    between atoms: O_36  and  C_41
REMARK                            x       y       z     vdW  Elec       q    Type
REMARK                         _______ _______ _______ _____ _____    ______ ____
ROOT
ATOM      1  N   UNL A   1     -22.013   0.230  28.964  0.00  0.00    -0.163 NA
ATOM      2  C   UNL A   1     -24.436   0.036  29.339  0.00  0.00    +0.196 C 
ATOM      3  C   UNL A   1     -21.964   0.947  27.878  0.00  0.00    +0.124 C 
ATOM      4  C   UNL A   1     -26.866   0.495  28.665  0.00  0.00    +0.236 C 
ATOM      5  N   UNL A   1     -25.452   0.829  28.782  0.00  0.00    -0.260 N 
ATOM      6  N   UNL A   1     -23.168   0.059  29.552  0.00  0.00    -0.125 NA
ATOM      7  C   UNL A   1     -24.649   1.286  27.525  0.00  0.00    +0.117 C 
ATOM      8  C   UNL A   1     -23.152   1.491  27.250  0.00  0.00    +0.176 C 
ATOM      9  O   UNL A   1     -27.124  -0.672  28.371  0.00  0.00    -0.274 OA
ENDROOT
BRANCH   7  10
ATOM     10  C   UNL A   1     -25.688   1.614  26.461  0.00  0.00    +0.091 C 
ATOM     11  C   UNL A   1     -26.250   2.920  26.395  0.00  0.00    +0.057 C 
ATOM     12  C   UNL A   1     -27.438   3.091  25.645  0.00  0.00    +0.102 C 
ATOM     13  N   UNL A   1     -28.075   2.089  25.003  0.00  0.00    -0.212 NA
ATOM     14  C   UNL A   1     -27.543   0.849  25.079  0.00  0.00    +0.234 C 
ATOM     15  C   UNL A   1     -26.354   0.576  25.777  0.00  0.00    +0.242 C 
ATOM     16  F   UNL A   1     -25.860  -0.681  25.795  0.00  0.00    -0.227 F 
BRANCH  11  17
ATOM     17  C   UNL A   1     -25.642   4.093  27.123  0.00  0.00    +0.263 C 
ATOM     18  N   UNL A   1     -25.614   5.252  26.449  0.00  0.00    -0.200 NA
ATOM     19  C   UNL A   1     -25.026   6.479  26.963  0.00  0.00    +0.139 C 
ATOM     20  O   UNL A   1     -25.143   3.966  28.243  0.00  0.00    -0.269 OA
ENDBRANCH  11  17
BRANCH  14  21
ATOM     21  O   UNL A   1     -28.193  -0.208  24.477  0.00  0.00    -0.459 OA
BRANCH  21  22
ATOM     22  C   UNL A   1     -29.460   0.005  23.866  0.00  0.00    +0.242 C 
BRANCH  22  23
ATOM     23  C   UNL A   1     -30.065  -1.377  23.573  0.00  0.00    +0.229 C 
ATOM     24  O   UNL A   1     -30.729  -1.878  24.721  0.00  0.00    -0.216 OA
ENDBRANCH  22  23
ENDBRANCH  21  22
ENDBRANCH  14  21
ENDBRANCH   7  10
BRANCH   8  25
ATOM     25  O   UNL A   1     -22.906   2.482  26.251  0.00  0.00    -0.346 OA
ATOM     26  C   UNL A   1     -21.657   2.124  25.572  0.00  0.00    +0.175 C 
ENDBRANCH   8  25
BRANCH   2  27
ATOM     27  C   UNL A   1     -24.855  -1.012  30.143  0.00  0.00    +0.079 C 
BRANCH  27  28
ATOM     28  C   UNL A   1     -24.973  -2.505  29.788  0.00  0.00    -0.018 C 
ATOM     29  C   UNL A   1     -23.906  -3.173  29.146  0.00  0.00    -0.004 C 
ATOM     30  C   UNL A   1     -23.989  -4.549  28.853  0.00  0.00    -0.000 C 
ATOM     31  C   UNL A   1     -25.137  -5.280  29.205  0.00  0.00    -0.000 C 
ATOM     32  C   UNL A   1     -26.232  -4.611  29.784  0.00  0.00    -0.000 C 
ATOM     33  C   UNL A   1     -26.155  -3.232  30.065  0.00  0.00    -0.004 C 
ENDBRANCH  27  28
BRANCH  27  34
ATOM     34  C   UNL A   1     -25.387  -0.679  31.571  0.00  0.00    +0.080 C 
ATOM     35  C   UNL A   1     -25.189   0.773  32.028  0.00  0.00    +0.019 C 
ATOM     36  C   UNL A   1     -25.336   0.684  33.544  0.00  0.00    +0.020 C 
ATOM     37  C   UNL A   1     -24.829  -0.715  33.905  0.00  0.00    +0.089 C 
ATOM     38  N   UNL A   1     -24.758  -1.481  32.646  0.00  0.00    -0.219 NA
ENDBRANCH  27  34
ENDBRANCH   2  27
BRANCH   4  39
ATOM     39  C   UNL A   1     -28.018   1.478  28.756  0.00  0.00    +0.173 C 
BRANCH  39  41
ATOM     40  O   UNL A   1     -29.689  -0.022  27.953  0.00  0.00    -0.271 OA
ATOM     41  C   UNL A   1     -29.414   1.136  28.333  0.00  0.00    +0.270 C 
ATOM     42  N   UNL A   1     -30.347   2.112  28.311  0.00  0.00    -0.087 NA
ENDBRANCH  39  41
ENDBRANCH   4  39
TORSDOF 11
