MODEL 2662
MODEL 1
REMARK VINA RESULT:    -6.632      0.000      0.000
REMARK INTER + INTRA:          -7.334
REMARK INTER:                  -7.019
REMARK INTRA:                  -0.315
REMARK UNBOUND:                -0.315
REMARK  Name = No_2662-gen_results/8p0m/2024-11-27-11-27-31/
REMARK  1 active torsions:
REMARK  status: ('A' for Active; 'I' for Inactive)
REMARK    1  A    between atoms: C_3  and  C_7
REMARK                            x       y       z     vdW  Elec       q    Type
REMARK                         _______ _______ _______ _____ _____    ______ ____
ROOT
ATOM      1  C   UNL A   1     -23.868  -3.873  28.504  0.00  0.00    +0.012 C 
ATOM      2  C   UNL A   1     -24.257  -4.826  28.726  0.00  0.00    +0.001 C 
ATOM      3  C   UNL A   1     -24.604  -2.753  29.017  0.00  0.00    +0.080 C 
ATOM      4  C   UNL A   1     -25.801  -2.872  29.599  0.00  0.00    +0.154 C 
ATOM      5  C   UNL A   1     -26.264  -4.146  29.780  0.00  0.00    +0.065 C 
ATOM      6  C   UNL A   1     -25.510  -5.203  29.345  0.00  0.00    +0.008 C 
ATOM      7  O   UNL A   1     -26.447  -1.829  30.026  0.00  0.00    -0.296 OA
ENDROOT
BRANCH   3   8
ATOM      8  C   UNL A   1     -23.833  -1.471  28.787  0.00  0.00    -0.015 A 
ATOM      9  C   UNL A   1     -22.691  -1.299  29.214  0.00  0.00    -0.004 A 
ATOM     10  C   UNL A   1     -21.967  -0.041  28.988  0.00  0.00    -0.000 A 
ATOM     11  C   UNL A   1     -22.566   0.920  28.158  0.00  0.00    -0.000 A 
ATOM     12  C   UNL A   1     -23.763   0.606  27.495  0.00  0.00    -0.000 A 
ATOM     13  C   UNL A   1     -24.404  -0.539  27.825  0.00  0.00    -0.004 A 
ENDBRANCH   3   8
TORSDOF 1
ENDMDL
ENDMDL
