MODEL 2663
MODEL 1
REMARK VINA RESULT:    -8.010      0.000      0.000
REMARK INTER + INTRA:         -15.178
REMARK INTER:                 -10.351
REMARK INTRA:                  -4.827
REMARK UNBOUND:                -4.827
REMARK  Name = No_2663-gen_results/8p0m/2024-11-27-11-27-31/
REMARK  5 active torsions:
REMARK  status: ('A' for Active; 'I' for Inactive)
REMARK    1  A    between atoms: C_2  and  C_7
REMARK    2  A    between atoms: C_4  and  C_26
REMARK    3  A    between atoms: C_18  and  C_20
REMARK    4  A    between atoms: C_26  and  C_28
REMARK    5  A    between atoms: C_28  and  C_29
REMARK                            x       y       z     vdW  Elec       q    Type
REMARK                         _______ _______ _______ _____ _____    ______ ____
ROOT
ATOM      1  C   UNL A   1     -24.809   1.387  32.273  0.00  0.00    +0.044 C 
ATOM      2  C   UNL A   1     -25.258   2.691  32.038  0.00  0.00    -0.027 C 
ATOM      3  C   UNL A   1     -25.488   0.651  33.288  0.00  0.00    +0.009 C 
ATOM      4  C   UNL A   1     -26.777   0.068  33.073  0.00  0.00    +0.001 C 
ATOM      5  C   UNL A   1     -27.594   0.519  32.044  0.00  0.00    +0.001 C 
ATOM      6  C   UNL A   1     -28.892  -0.132  31.918  0.00  0.00    +0.000 C 
ATOM      7  C   UNL A   1     -28.018   2.036  32.125  0.00  0.00    +0.004 C 
ATOM      8  C   UNL A   1     -29.071   2.327  31.282  0.00  0.00    +0.000 C 
ATOM      9  C   UNL A   1     -26.977   0.197  30.620  0.00  0.00    +0.004 C 
ATOM     10  C   UNL A   1     -27.481   2.760  32.570  0.00  0.00    +0.026 C 
ATOM     11  C   UNL A   1     -26.129   3.233  32.123  0.00  0.00    -0.030 C 
ATOM     12  C   UNL A   1     -27.547  -1.138  30.126  0.00  0.00    +0.022 C 
ATOM     13  C   UNL A   1     -28.231  -1.707  31.158  0.00  0.00    +0.004 C 
ENDROOT
BRANCH   1  15
ATOM     14  C   UNL A   1     -23.328  -0.330  31.481  0.00  0.00    -0.004 A 
ATOM     15  C   UNL A   1     -23.865   0.733  31.272  0.00  0.00    -0.019 A 
ATOM     16  C   UNL A   1     -23.708   1.451  30.131  0.00  0.00    -0.007 A 
ATOM     17  C   UNL A   1     -22.870   0.934  29.126  0.00  0.00    -0.007 A 
ATOM     18  C   UNL A   1     -22.534  -0.964  30.459  0.00  0.00    -0.001 A 
ATOM     19  C   UNL A   1     -22.322  -0.270  29.305  0.00  0.00    -0.003 A 
BRANCH  17  20
ATOM     20  C   UNL A   1     -22.601   1.717  27.834  0.00  0.00    +0.106 C 
ATOM     21 CL   UNL A   1     -21.117   1.652  27.221  0.00  0.00    -0.110 Cl
BRANCH  20  22
ATOM     22  C   UNL A   1     -23.607   2.456  27.200  0.00  0.00    +0.047 C 
BRANCH  22  23
ATOM     23  C   UNL A   1     -24.613   1.750  26.623  0.00  0.00    -0.021 A 
ATOM     24  C   UNL A   1     -25.869   1.855  27.038  0.00  0.00    -0.004 A 
ATOM     25  C   UNL A   1     -26.884   1.049  26.502  0.00  0.00    -0.000 A 
ATOM     26  C   UNL A   1     -26.588   0.162  25.465  0.00  0.00    -0.000 A 
ATOM     27  C   UNL A   1     -25.279   0.062  24.986  0.00  0.00    -0.000 A 
ATOM     28  C   UNL A   1     -24.297   0.850  25.583  0.00  0.00    -0.004 A 
ENDBRANCH  22  23
ENDBRANCH  20  22
ENDBRANCH  17  20
ENDBRANCH   1  15
BRANCH  12  29
ATOM     29  C   UNL A   1     -26.453  -2.070  29.534  0.00  0.00    -0.022 A 
ATOM     30  C   UNL A   1     -26.284  -3.368  30.007  0.00  0.00    -0.004 A 
ATOM     31  C   UNL A   1     -25.273  -4.196  29.492  0.00  0.00    -0.000 A 
ATOM     32  C   UNL A   1     -24.400  -3.632  28.554  0.00  0.00    -0.000 A 
ATOM     33  C   UNL A   1     -24.585  -2.361  28.087  0.00  0.00    -0.000 A 
ATOM     34  C   UNL A   1     -25.618  -1.538  28.599  0.00  0.00    -0.004 A 
ENDBRANCH  12  29
TORSDOF 5
ENDMDL
ENDMDL
