MODEL 2664
MODEL 1
REMARK VINA RESULT:    -7.027      0.000      0.000
REMARK INTER + INTRA:          -9.833
REMARK INTER:                  -9.081
REMARK INTRA:                  -0.751
REMARK UNBOUND:                -0.751
REMARK  Name = No_2664-gen_results/8p0m/2024-11-27-11-27-31/
REMARK  5 active torsions:
REMARK  status: ('A' for Active; 'I' for Inactive)
REMARK    1  A    between atoms: C_2  and  C_8
REMARK    2  A    between atoms: C_3  and  O_11
REMARK    3  A    between atoms: O_11  and  C_12
REMARK    4  A    between atoms: C_12  and  C_13
REMARK    5  A    between atoms: C_13  and  C_14
REMARK                            x       y       z     vdW  Elec       q    Type
REMARK                         _______ _______ _______ _____ _____    ______ ____
ROOT
ATOM      1  C   UNL A   1     -25.501  -2.183  29.788  0.00  0.00    +0.046 A 
ATOM      2  C   UNL A   1     -26.340  -2.765  30.048  0.00  0.00    +0.083 A 
ATOM      3  C   UNL A   1     -24.350  -2.903  29.220  0.00  0.00    +0.166 A 
ATOM      4  C   UNL A   1     -24.443  -4.293  28.915  0.00  0.00    +0.174 A 
ATOM      5  C   UNL A   1     -25.623  -4.905  29.254  0.00  0.00    +0.033 A 
ATOM      6  C   UNL A   1     -26.639  -4.200  29.797  0.00  0.00    +0.009 A 
ATOM      7  F   UNL A   1     -23.445  -4.923  28.422  0.00  0.00    -0.201 F 
ENDROOT
BRANCH   2   8
ATOM      8  C   UNL A   1     -27.629  -2.044  30.669  0.00  0.00    +0.388 C 
ATOM      9  O   UNL A   1     -28.540  -2.340  30.283  0.00  0.00    -0.241 OA
ATOM     10  O   UNL A   1     -27.484  -1.390  31.876  0.00  0.00    -0.241 OA
ENDBRANCH   2   8
BRANCH   3  11
ATOM     11  O   UNL A   1     -23.110  -2.335  28.901  0.00  0.00    -0.473 OA
BRANCH  11  12
ATOM     12  C   UNL A   1     -22.885  -1.094  29.415  0.00  0.00    +0.210 C 
BRANCH  12  13
ATOM     13  C   UNL A   1     -22.481  -0.182  28.521  0.00  0.00    +0.076 C 
BRANCH  13  14
ATOM     14  C   UNL A   1     -23.303   0.610  27.771  0.00  0.00    +0.009 A 
ATOM     15  C   UNL A   1     -24.424   0.121  27.008  0.00  0.00    -0.002 A 
ATOM     16  C   UNL A   1     -25.118   0.953  26.185  0.00  0.00    -0.000 A 
ATOM     17  C   UNL A   1     -24.604   2.268  25.935  0.00  0.00    +0.002 A 
ATOM     18  C   UNL A   1     -23.448   2.727  26.535  0.00  0.00    +0.029 A 
ATOM     19  C   UNL A   1     -22.715   1.850  27.249  0.00  0.00    +0.136 A 
ATOM     20  F   UNL A   1     -21.567   1.794  26.884  0.00  0.00    -0.204 F 
ENDBRANCH  13  14
ENDBRANCH  12  13
ENDBRANCH  11  12
ENDBRANCH   3  11
TORSDOF 5
ENDMDL
ENDMDL
