MODEL 2665
MODEL 1
REMARK VINA RESULT:    -4.945      0.000      0.000
REMARK INTER + INTRA:          -4.945
REMARK INTER:                  -4.945
REMARK INTRA:                   0.000
REMARK UNBOUND:                 0.000
REMARK  Name = No_2665-gen_results/8p0m/2024-11-27-11-27-31/
REMARK  0 active torsions:
REMARK  status: ('A' for Active; 'I' for Inactive)
REMARK                            x       y       z     vdW  Elec       q    Type
REMARK                         _______ _______ _______ _____ _____    ______ ____
ROOT
ATOM      1  C   UNL A   1      -8.837 -10.789  18.027  0.00  0.00    +0.042 A 
ATOM      2  C   UNL A   1      -7.998 -10.587  18.874  0.00  0.00    +0.003 A 
ATOM      3  C   UNL A   1      -8.266  -9.776  19.971  0.00  0.00    +0.000 A 
ATOM      4  C   UNL A   1      -9.537  -9.113  20.110  0.00  0.00    +0.003 A 
ATOM      5  C   UNL A   1     -10.440  -9.382  19.074  0.00  0.00    +0.042 A 
ATOM      6  C   UNL A   1     -10.132 -10.144  18.049  0.00  0.00    +0.196 A 
ATOM      7  O   UNL A   1     -11.054 -10.324  17.064  0.00  0.00    -0.287 OA
ENDROOT
TORSDOF 0
ENDMDL
ENDMDL
