MODEL 2666
MODEL 1
REMARK VINA RESULT:    -8.330      0.000      0.000
REMARK INTER + INTRA:         -13.325
REMARK INTER:                 -11.738
REMARK INTRA:                  -1.587
REMARK UNBOUND:                -1.587
REMARK  Name = No_2666-gen_results/8p0m/2024-11-27-11-27-31/
REMARK  7 active torsions:
REMARK  status: ('A' for Active; 'I' for Inactive)
REMARK    1  A    between atoms: C_1  and  C_2
REMARK    2  A    between atoms: C_10  and  C_16
REMARK    3  A    between atoms: N_12  and  C_14
REMARK    4  A    between atoms: C_16  and  C_18
REMARK    5  A    between atoms: C_18  and  C_24
REMARK    6  A    between atoms: C_28  and  O_30
REMARK    7  A    between atoms: O_30  and  C_31
REMARK                            x       y       z     vdW  Elec       q    Type
REMARK                         _______ _______ _______ _____ _____    ______ ____
ROOT
ATOM      1  C   UNL A   1     -28.298 -16.294   8.300  0.00  0.00    +0.055 A 
ATOM      2  C   UNL A   1     -29.221 -16.348   7.273  0.00  0.00    +0.005 A 
ATOM      3  C   UNL A   1     -30.650 -16.141   7.409  0.00  0.00    +0.002 A 
ATOM      4  C   UNL A   1     -31.080 -15.803   8.346  0.00  0.00    +0.027 A 
ATOM      5  C   UNL A   1     -32.543 -15.543   8.669  0.00  0.00    +0.140 A 
ATOM      6  C   UNL A   1     -33.017 -15.202   9.951  0.00  0.00    +0.029 A 
ATOM      7  C   UNL A   1     -32.066 -15.020  10.955  0.00  0.00    -0.001 A 
ATOM      8  C   UNL A   1     -30.442 -15.593   9.729  0.00  0.00    -0.000 A 
ATOM      9  C   UNL A   1     -30.920 -15.196  10.861  0.00  0.00    -0.004 A 
ATOM     10  C   UNL A   1     -28.901 -15.824   9.552  0.00  0.00    +0.004 A 
ATOM     11  F   UNL A   1     -33.453 -15.714   7.709  0.00  0.00    -0.204 F 
ENDROOT
BRANCH   1  12
ATOM     12  C   UNL A   1     -27.105 -16.408   8.134  0.00  0.00    +0.269 C 
ATOM     13  N   UNL A   1     -26.600 -15.715   7.019  0.00  0.00    -0.175 NA
ATOM     14  O   UNL A   1     -26.257 -16.608   9.011  0.00  0.00    -0.268 OA
BRANCH  13  15
ATOM     15  C   UNL A   1     -25.129 -15.638   6.672  0.00  0.00    +0.074 A 
ATOM     16  C   UNL A   1     -24.583 -14.470   6.854  0.00  0.00    +0.017 A 
ATOM     17  C   UNL A   1     -23.520 -14.185   6.032  0.00  0.00    +0.001 A 
ATOM     18  C   UNL A   1     -22.714 -15.193   5.765  0.00  0.00    +0.000 A 
ATOM     19  C   UNL A   1     -23.312 -16.474   5.423  0.00  0.00    +0.001 A 
ATOM     20  C   UNL A   1     -24.500 -16.718   6.194  0.00  0.00    +0.017 A 
ENDBRANCH  13  15
ENDBRANCH   1  12
BRANCH   9  21
ATOM     21  C   UNL A   1     -29.944 -15.001  12.003  0.00  0.00    +0.118 C 
ATOM     22  N   UNL A   1     -29.173 -15.396  12.629  0.00  0.00    -0.128 NA
BRANCH  21  23
ATOM     23  C   UNL A   1     -30.245 -13.469  12.594  0.00  0.00    +0.050 C 
BRANCH  23  24
ATOM     24  C   UNL A   1     -30.049 -12.306  11.845  0.00  0.00    -0.017 A 
ATOM     25  C   UNL A   1     -29.038 -12.129  10.902  0.00  0.00    -0.004 A 
ATOM     26  C   UNL A   1     -29.037 -11.047  10.047  0.00  0.00    +0.003 A 
ATOM     27  C   UNL A   1     -30.104 -10.119  10.092  0.00  0.00    +0.037 A 
ATOM     28  C   UNL A   1     -31.130 -10.301  10.996  0.00  0.00    +0.145 A 
ATOM     29  C   UNL A   1     -31.140 -11.390  11.793  0.00  0.00    +0.033 A 
BRANCH  28  30
ATOM     30  O   UNL A   1     -32.012  -9.308  11.030  0.00  0.00    -0.450 OA
BRANCH  30  31
ATOM     31  C   UNL A   1     -31.704  -8.122  10.542  0.00  0.00    +0.180 C 
ATOM     32  C   UNL A   1     -32.207  -7.141  10.945  0.00  0.00    +0.044 C 
ENDBRANCH  30  31
ENDBRANCH  28  30
ENDBRANCH  23  24
ENDBRANCH  21  23
ENDBRANCH   9  21
TORSDOF 7
ENDMDL
ENDMDL
