REMARK  Name = No_2668-gen_results/8p0m/2024-11-27-11-27-31/
REMARK  6 active torsions:
REMARK  status: ('A' for Active; 'I' for Inactive)
REMARK    1  A    between atoms: C_2  and  C_16
REMARK    2  A    between atoms: C_3  and  C_4
REMARK    3  A    between atoms: C_7  and  C_13
REMARK    4  A    between atoms: C_13  and  O_15
REMARK    5  A    between atoms: O_15  and  C_19
REMARK    6  A    between atoms: C_20  and  C_21
REMARK                            x       y       z     vdW  Elec       q    Type
REMARK                         _______ _______ _______ _____ _____    ______ ____
ROOT
ATOM      1  C   UNL A   1     -28.016  -0.814  28.878  0.00  0.00    +0.007 A 
ATOM      2  C   UNL A   1     -28.469  -0.785  29.829  0.00  0.00    +0.080 A 
ATOM      3  C   UNL A   1     -28.182   0.428  28.113  0.00  0.00    +0.000 A 
ATOM      4  C   UNL A   1     -29.426   0.110  30.418  0.00  0.00    +0.013 A 
ATOM      5  C   UNL A   1     -29.623   1.220  29.735  0.00  0.00    +0.076 A 
ATOM      6  C   UNL A   1     -28.961   1.453  28.551  0.00  0.00    +0.006 A 
ENDROOT
BRANCH   3   7
ATOM      7  C   UNL A   1     -27.450   0.643  26.850  0.00  0.00    +0.000 A 
ATOM      8  C   UNL A   1     -27.860   1.457  25.908  0.00  0.00    +0.000 A 
ATOM      9  C   UNL A   1     -27.173   1.574  24.703  0.00  0.00    +0.000 A 
ATOM     10  C   UNL A   1     -26.298   0.679  24.465  0.00  0.00    +0.000 A 
ATOM     11  C   UNL A   1     -25.737  -0.201  25.324  0.00  0.00    +0.000 A 
ATOM     12  C   UNL A   1     -26.341  -0.272  26.541  0.00  0.00    +0.000 A 
ENDBRANCH   3   7
BRANCH   2  13
ATOM     13  C   UNL A   1     -28.274  -2.162  30.712  0.00  0.00    +0.388 C 
ATOM     14  O   UNL A   1     -27.495  -2.957  30.337  0.00  0.00    -0.241 OA
ATOM     15  O   UNL A   1     -29.008  -2.367  31.743  0.00  0.00    -0.241 OA
ENDBRANCH   2  13
BRANCH   5  16
ATOM     16  C   UNL A   1     -30.537   2.322  30.253  0.00  0.00    +0.346 C 
ATOM     17  O   UNL A   1     -31.203   2.949  29.617  0.00  0.00    -0.244 OA
BRANCH  16  18
ATOM     18  O   UNL A   1     -30.140   2.716  31.509  0.00  0.00    -0.418 OA
BRANCH  18  19
ATOM     19  C   UNL A   1     -31.033   3.239  32.341  0.00  0.00    +0.183 C 
ATOM     20  C   UNL A   1     -30.590   3.598  33.463  0.00  0.00    +0.041 C 
BRANCH  20  21
ATOM     21  C   UNL A   1     -29.286   3.624  33.854  0.00  0.00    -0.001 C 
ATOM     22  C   UNL A   1     -28.274   3.498  32.977  0.00  0.00    -0.026 C 
ATOM     23  C   UNL A   1     -28.308   3.348  31.981  0.00  0.00    +0.031 C 
ENDBRANCH  20  21
ENDBRANCH  18  19
ENDBRANCH  16  18
ENDBRANCH   5  16
TORSDOF 6
