MODEL 2669
MODEL 1
REMARK VINA RESULT:    -3.513      0.000      0.000
REMARK INTER + INTRA:          -3.772
REMARK INTER:                  -3.718
REMARK INTRA:                  -0.054
REMARK UNBOUND:                -0.054
REMARK  Name = No_2669-gen_results/8p0m/2024-11-27-11-27-31/
REMARK  1 active torsions:
REMARK  status: ('A' for Active; 'I' for Inactive)
REMARK    1  A    between atoms: C_3  and  C_4
REMARK                            x       y       z     vdW  Elec       q    Type
REMARK                         _______ _______ _______ _____ _____    ______ ____
ROOT
ATOM      1 CL   UNL A   1      -9.214 -10.388  17.658  0.00  0.00    -0.081 Cl
ATOM      2  C   UNL A   1      -9.947  -9.753  18.402  0.00  0.00    +0.068 C 
ATOM      3  C   UNL A   1      -9.415  -9.321  19.579  0.00  0.00    +0.012 C 
ENDROOT
BRANCH   3   4
ATOM      4  C   UNL A   1      -8.056  -9.557  19.993  0.00  0.00    +0.001 C 
ATOM      5  C   UNL A   1      -7.219  -8.375  19.829  0.00  0.00    +0.000 C 
ENDBRANCH   3   4
TORSDOF 1
ENDMDL
ENDMDL
