MODEL 266
MODEL 1
REMARK VINA RESULT:    -4.290      0.000      0.000
REMARK INTER + INTRA:          -4.290
REMARK INTER:                  -4.290
REMARK INTRA:                   0.000
REMARK UNBOUND:                 0.000
REMARK  Name = No_266-gen_results/8p0m/2024-11-27-11-27-31/
REMARK  0 active torsions:
REMARK  status: ('A' for Active; 'I' for Inactive)
REMARK                            x       y       z     vdW  Elec       q    Type
REMARK                         _______ _______ _______ _____ _____    ______ ____
ROOT
ATOM      1  C   UNL A   1     -25.029  -5.335  29.091  0.00  0.00    +0.000 A 
ATOM      2  C   UNL A   1     -26.018  -4.812  29.548  0.00  0.00    +0.000 A 
ATOM      3  C   UNL A   1     -26.124  -3.456  29.792  0.00  0.00    +0.000 A 
ATOM      4  C   UNL A   1     -25.018  -2.629  29.447  0.00  0.00    +0.000 A 
ATOM      5  C   UNL A   1     -24.006  -3.234  28.783  0.00  0.00    +0.000 A 
ATOM      6  C   UNL A   1     -24.008  -4.534  28.557  0.00  0.00    +0.000 A 
ENDROOT
TORSDOF 0
ENDMDL
ENDMDL
