REMARK  Name = No_267-gen_results/8p0m/2024-11-27-11-27-31/
REMARK  3 active torsions:
REMARK  status: ('A' for Active; 'I' for Inactive)
REMARK    1  A    between atoms: C_2  and  C_7
REMARK    2  A    between atoms: C_4  and  C_10
REMARK    3  A    between atoms: C_11  and  O_16
REMARK                            x       y       z     vdW  Elec       q    Type
REMARK                         _______ _______ _______ _____ _____    ______ ____
ROOT
ATOM      1  C   UNL A   1     -28.016  -0.814  28.878  0.00  0.00    +0.007 A 
ATOM      2  C   UNL A   1     -28.469  -0.785  29.829  0.00  0.00    +0.080 A 
ATOM      3  C   UNL A   1     -27.087   0.290  28.638  0.00  0.00    +0.000 A 
ATOM      4  C   UNL A   1     -26.024   0.364  29.253  0.00  0.00    +0.003 A 
ATOM      5  C   UNL A   1     -27.537  -0.619  31.088  0.00  0.00    +0.007 A 
ATOM      6  C   UNL A   1     -26.384   0.183  30.801  0.00  0.00    +0.000 A 
ENDROOT
BRANCH   4   7
ATOM      7  C   UNL A   1     -24.873   1.309  29.104  0.00  0.00    +0.034 A 
ATOM      8  C   UNL A   1     -23.790   1.123  29.404  0.00  0.00    +0.139 A 
ATOM      9  C   UNL A   1     -22.537   1.806  28.960  0.00  0.00    +0.037 A 
ATOM     10  C   UNL A   1     -25.073   2.440  28.180  0.00  0.00    +0.003 A 
ATOM     11  C   UNL A   1     -23.964   3.104  27.563  0.00  0.00    +0.000 A 
ATOM     12  C   UNL A   1     -22.671   2.779  28.009  0.00  0.00    +0.003 A 
BRANCH   8  13
ATOM     13  O   UNL A   1     -23.485   0.171  30.418  0.00  0.00    -0.471 OA
ATOM     14  C   UNL A   1     -23.371  -1.171  30.191  0.00  0.00    +0.253 C 
ENDBRANCH   8  13
ENDBRANCH   4   7
BRANCH   2  15
ATOM     15  C   UNL A   1     -29.623  -1.670  30.297  0.00  0.00    +0.388 C 
ATOM     16  O   UNL A   1     -30.659  -1.330  29.688  0.00  0.00    -0.241 OA
ATOM     17  O   UNL A   1     -29.610  -2.615  31.190  0.00  0.00    -0.241 OA
ENDBRANCH   2  15
TORSDOF 3
