MODEL 2670
MODEL 1
REMARK VINA RESULT:    -3.564      0.000      0.000
REMARK INTER + INTRA:          -4.037
REMARK INTER:                  -3.981
REMARK INTRA:                  -0.056
REMARK UNBOUND:                -0.056
REMARK  Name = No_2670-gen_results/8p0m/2024-11-27-11-27-31/
REMARK  2 active torsions:
REMARK  status: ('A' for Active; 'I' for Inactive)
REMARK    1  A    between atoms: C_1  and  C_3
REMARK    2  A    between atoms: C_3  and  C_4
REMARK                            x       y       z     vdW  Elec       q    Type
REMARK                         _______ _______ _______ _____ _____    ______ ____
ROOT
ATOM      1  C   UNL A   1      -9.389  -9.356  19.673  0.00  0.00    +0.103 C 
ENDROOT
BRANCH   1   2
ATOM      2  C   UNL A   1      -8.010  -9.403  19.929  0.00  0.00    -0.073 C 
ATOM      3  C   UNL A   1      -7.350  -8.586  19.846  0.00  0.00    -0.014 C 
ENDBRANCH   1   2
BRANCH   1   4
ATOM      4  C   UNL A   1      -9.997  -9.762  18.454  0.00  0.00    -0.012 C 
ATOM      5  C   UNL A   1      -9.415 -10.578  17.549  0.00  0.00    -0.004 C 
ENDBRANCH   1   4
TORSDOF 2
ENDMDL
ENDMDL
