MODEL 2671
MODEL 1
REMARK VINA RESULT:    -3.980      0.000      0.000
REMARK INTER + INTRA:          -4.648
REMARK INTER:                  -4.445
REMARK INTRA:                  -0.203
REMARK UNBOUND:                -0.203
REMARK  Name = No_2671-gen_results/8p0m/2024-11-27-11-27-31/
REMARK  2 active torsions:
REMARK  status: ('A' for Active; 'I' for Inactive)
REMARK    1  A    between atoms: C_3  and  C_4
REMARK    2  A    between atoms: C_5  and  C_6
REMARK                            x       y       z     vdW  Elec       q    Type
REMARK                         _______ _______ _______ _____ _____    ______ ____
ROOT
ATOM      1  C   UNL A   1     -23.523  -2.024  28.927  0.00  0.00    -0.005 C 
ATOM      2  C   UNL A   1     -23.150  -1.181  30.025  0.00  0.00    -0.026 C 
ENDROOT
BRANCH   1   5
ATOM      3  C   UNL A   1     -24.950  -5.362  29.050  0.00  0.00    +0.031 C 
ATOM      4  C   UNL A   1     -24.216  -4.435  28.791  0.00  0.00    -0.026 C 
ATOM      5  C   UNL A   1     -24.412  -3.167  29.233  0.00  0.00    -0.005 C 
ENDBRANCH   1   5
BRANCH   2   6
ATOM      6  C   UNL A   1     -23.708  -1.494  31.285  0.00  0.00    +0.026 C 
ATOM      7  C   UNL A   1     -23.114  -1.152  32.473  0.00  0.00    +0.005 C 
ENDBRANCH   2   6
TORSDOF 2
ENDMDL
ENDMDL
