MODEL 2672
MODEL 1
REMARK VINA RESULT:    -6.378      0.000      0.000
REMARK INTER + INTRA:          -6.866
REMARK INTER:                  -6.751
REMARK INTRA:                  -0.114
REMARK UNBOUND:                -0.114
REMARK  Name = No_2672-gen_results/8p0m/2024-11-27-11-27-31/
REMARK  1 active torsions:
REMARK  status: ('A' for Active; 'I' for Inactive)
REMARK    1  A    between atoms: C_4  and  C_7
REMARK                            x       y       z     vdW  Elec       q    Type
REMARK                         _______ _______ _______ _____ _____    ______ ____
ROOT
ATOM      1  N   UNL A   1     -23.766   0.794  27.787  0.00  0.00    -0.210 NA
ATOM      2  C   UNL A   1     -22.737   0.860  28.163  0.00  0.00    +0.257 A 
ATOM      3  C   UNL A   1     -24.333  -0.394  28.096  0.00  0.00    +0.103 A 
ATOM      4  C   UNL A   1     -23.922  -1.171  28.602  0.00  0.00    +0.038 A 
ATOM      5  N   UNL A   1     -21.920   0.021  28.830  0.00  0.00    -0.210 NA
ATOM      6  C   UNL A   1     -22.552  -1.115  29.090  0.00  0.00    +0.103 A 
ATOM      7  N   UNL A   1     -22.102   2.194  27.895  0.00  0.00    -0.086 NA
ENDROOT
BRANCH   4   8
ATOM      8  C   UNL A   1     -24.543  -2.573  28.970  0.00  0.00    +0.003 A 
ATOM      9  C   UNL A   1     -23.932  -3.700  28.703  0.00  0.00    +0.000 A 
ATOM     10  C   UNL A   1     -24.596  -4.981  28.874  0.00  0.00    +0.000 A 
ATOM     11  C   UNL A   1     -25.817  -5.013  29.510  0.00  0.00    +0.000 A 
ATOM     12  C   UNL A   1     -25.878  -2.852  29.550  0.00  0.00    +0.000 A 
ATOM     13  C   UNL A   1     -26.450  -3.984  29.839  0.00  0.00    +0.000 A 
ENDBRANCH   4   8
TORSDOF 1
ENDMDL
ENDMDL
