REMARK  Name = outputs/IAG933/test6/raw/output_2673_IAG933_linker_design_.xyz
REMARK  14 active torsions:
REMARK  status: ('A' for Active; 'I' for Inactive)
REMARK    1  A    between atoms: C_1  and  C_2
REMARK    2  A    between atoms: C_1  and  C_8
REMARK    3  A    between atoms: C_9  and  C_33
REMARK    4  A    between atoms: C_13  and  N_35
REMARK    5  A    between atoms: C_14  and  C_15
REMARK    6  A    between atoms: C_21  and  O_22
REMARK    7  A    between atoms: O_22  and  C_23
REMARK    8  A    between atoms: C_23  and  C_24
REMARK    9  A    between atoms: O_29  and  N_35
REMARK   10  A    between atoms: O_29  and  C_44
REMARK   11  A    between atoms: C_30  and  C_31
REMARK   12  A    between atoms: C_30  and  C_42
REMARK   13  A    between atoms: C_31  and  N_35
REMARK   14  A    between atoms: C_31  and  C_36
REMARK                            x       y       z     vdW  Elec       q    Type
REMARK                         _______ _______ _______ _____ _____    ______ ____
ROOT
ATOM      1  N   UNL A   1     -24.616   1.294  27.286  0.00  0.00    -0.223 N 
ENDROOT
BRANCH   1   2
ATOM      2  C   UNL A   1     -25.688   1.614  26.461  0.00  0.00    +0.121 C 
ATOM      3  C   UNL A   1     -26.250   2.920  26.395  0.00  0.00    +0.094 C 
ATOM      4  C   UNL A   1     -27.438   3.091  25.645  0.00  0.00    +0.108 C 
ATOM      5  N   UNL A   1     -28.075   2.089  25.003  0.00  0.00    -0.208 NA
ATOM      6  C   UNL A   1     -27.543   0.849  25.079  0.00  0.00    +0.255 C 
ATOM      7  C   UNL A   1     -26.354   0.576  25.777  0.00  0.00    +0.211 C 
ATOM      8  F   UNL A   1     -25.860  -0.681  25.795  0.00  0.00    -0.198 F 
BRANCH   3   9
ATOM      9  C   UNL A   1     -25.642   4.093  27.123  0.00  0.00    +0.268 C 
ATOM     10  N   UNL A   1     -25.614   5.252  26.449  0.00  0.00    -0.200 NA
ATOM     11  C   UNL A   1     -25.026   6.479  26.963  0.00  0.00    +0.139 C 
ATOM     12  O   UNL A   1     -25.143   3.966  28.243  0.00  0.00    -0.268 OA
ENDBRANCH   3   9
BRANCH   6  13
ATOM     13  O   UNL A   1     -28.193  -0.208  24.477  0.00  0.00    -0.456 OA
BRANCH  13  14
ATOM     14  C   UNL A   1     -29.460   0.005  23.866  0.00  0.00    +0.243 C 
BRANCH  14  15
ATOM     15  C   UNL A   1     -30.065  -1.377  23.573  0.00  0.00    +0.229 C 
ATOM     16  O   UNL A   1     -30.729  -1.878  24.721  0.00  0.00    -0.216 OA
ENDBRANCH  14  15
ENDBRANCH  13  14
ENDBRANCH   6  13
ENDBRANCH   1   2
BRANCH   1  17
ATOM     17  O   UNL A   1     -25.262   1.060  28.654  0.00  0.00    -0.259 OA
BRANCH  17  23
ATOM     18  C   UNL A   1     -27.360   2.380  29.734  0.00  0.00    +0.064 C 
ATOM     19  C   UNL A   1     -25.853   1.942  31.366  0.00  0.00    +0.061 C 
ATOM     20  C   UNL A   1     -27.497   3.617  30.629  0.00  0.00    +0.145 C 
ATOM     21  O   UNL A   1     -26.266   4.233  31.032  0.00  0.00    -0.354 OA
ATOM     22  C   UNL A   1     -25.247   3.210  30.980  0.00  0.00    +0.145 C 
ATOM     23  C   UNL A   1     -26.370   1.492  29.850  0.00  0.00    +0.149 C 
BRANCH  19  25
ATOM     24  C   UNL A   1     -25.387  -0.679  31.571  0.00  0.00    +0.077 C 
ATOM     25  C   UNL A   1     -25.189   0.773  32.028  0.00  0.00    +0.023 C 
ATOM     26  C   UNL A   1     -25.336   0.684  33.544  0.00  0.00    +0.020 C 
ATOM     27  C   UNL A   1     -24.829  -0.715  33.905  0.00  0.00    +0.089 C 
ATOM     28  N   UNL A   1     -24.758  -1.481  32.646  0.00  0.00    -0.219 NA
BRANCH  24  29
ATOM     29  C   UNL A   1     -24.855  -1.012  30.143  0.00  0.00    +0.044 C 
BRANCH  29  30
ATOM     30  C   UNL A   1     -24.973  -2.505  29.788  0.00  0.00    -0.021 C 
ATOM     31  C   UNL A   1     -23.906  -3.173  29.146  0.00  0.00    -0.004 C 
ATOM     32  C   UNL A   1     -23.989  -4.549  28.853  0.00  0.00    -0.000 C 
ATOM     33  C   UNL A   1     -25.137  -5.280  29.205  0.00  0.00    -0.000 C 
ATOM     34  C   UNL A   1     -26.232  -4.611  29.784  0.00  0.00    -0.000 C 
ATOM     35  C   UNL A   1     -26.155  -3.232  30.065  0.00  0.00    -0.004 C 
ENDBRANCH  29  30
ENDBRANCH  24  29
ENDBRANCH  19  25
ENDBRANCH  17  23
ENDBRANCH   1  17
BRANCH   1  36
ATOM     36  C   UNL A   1     -23.354   1.145  27.053  0.00  0.00    +0.260 C 
BRANCH  36  38
ATOM     37  F   UNL A   1     -23.184   2.960  25.496  0.00  0.00    -0.168 F 
ATOM     38  C   UNL A   1     -22.729   1.705  25.817  0.00  0.00    +0.425 C 
ATOM     39  F   UNL A   1     -21.384   1.773  25.715  0.00  0.00    -0.168 F 
ATOM     40  F   UNL A   1     -23.102   0.965  24.746  0.00  0.00    -0.168 F 
ENDBRANCH  36  38
BRANCH  36  41
ATOM     41  C   UNL A   1     -22.318   0.919  28.220  0.00  0.00    +0.182 C 
ATOM     42  O   UNL A   1     -22.957   1.754  28.775  0.00  0.00    -0.294 OA
BRANCH  41  44
ATOM     43  C   UNL A   1     -20.101   0.138  28.780  0.00  0.00    +0.008 C 
ATOM     44  C   UNL A   1     -21.277   0.442  27.951  0.00  0.00    +0.067 C 
ENDBRANCH  41  44
ENDBRANCH  36  41
ENDBRANCH   1  36
TORSDOF 14
