MODEL 2673
MODEL 1
REMARK VINA RESULT:    -9.135      0.000      0.000
REMARK INTER + INTRA:         -15.183
REMARK INTER:                 -12.873
REMARK INTRA:                  -2.310
REMARK UNBOUND:                -2.310
REMARK  Name = No_2673-gen_results/8p0m/2024-11-27-11-27-31/
REMARK  7 active torsions:
REMARK  status: ('A' for Active; 'I' for Inactive)
REMARK    1  A    between atoms: C_2  and  C_20
REMARK    2  A    between atoms: C_3  and  C_4
REMARK    3  A    between atoms: C_11  and  C_14
REMARK    4  A    between atoms: C_16  and  C_23
REMARK    5  A    between atoms: N_24  and  C_25
REMARK    6  A    between atoms: C_25  and  C_28
REMARK    7  A    between atoms: C_32  and  C_34
REMARK                            x       y       z     vdW  Elec       q    Type
REMARK                         _______ _______ _______ _____ _____    ______ ____
ROOT
ATOM      1  C   UNL A   1     -24.724   1.323  26.452  0.00  0.00    +0.000 A 
ATOM      2  C   UNL A   1     -24.542   0.957  27.557  0.00  0.00    +0.004 A 
ATOM      3  C   UNL A   1     -23.304   0.999  28.291  0.00  0.00    +0.054 A 
ATOM      4  C   UNL A   1     -22.263   1.506  27.573  0.00  0.00    +0.004 A 
ATOM      5  C   UNL A   1     -23.451   1.844  25.891  0.00  0.00    +0.000 A 
ATOM      6  C   UNL A   1     -22.368   1.972  26.334  0.00  0.00    +0.000 A 
ENDROOT
BRANCH   1  11
ATOM      7  C   UNL A   1     -26.782   2.334  25.335  0.00  0.00    +0.001 A 
ATOM      8  C   UNL A   1     -27.888   2.110  24.614  0.00  0.00    +0.011 A 
ATOM      9  C   UNL A   1     -28.153   0.741  24.166  0.00  0.00    +0.058 A 
ATOM     10  C   UNL A   1     -27.082  -0.184  24.120  0.00  0.00    +0.011 A 
ATOM     11  C   UNL A   1     -26.021   1.178  25.691  0.00  0.00    +0.000 A 
ATOM     12  C   UNL A   1     -26.075   0.001  24.914  0.00  0.00    +0.001 A 
ATOM     13 CL   UNL A   1     -29.707   0.563  23.485  0.00  0.00    -0.082 Cl
BRANCH   7  16
ATOM     14  C   UNL A   1     -26.144   4.463  26.673  0.00  0.00    +0.007 A 
ATOM     15  C   UNL A   1     -26.469   5.066  27.474  0.00  0.00    +0.080 A 
ATOM     16  C   UNL A   1     -26.972   3.276  26.460  0.00  0.00    +0.000 A 
ATOM     17  C   UNL A   1     -27.561   5.000  28.435  0.00  0.00    +0.007 A 
ATOM     18  C   UNL A   1     -28.284   3.986  28.235  0.00  0.00    +0.000 A 
ATOM     19  C   UNL A   1     -28.118   3.074  27.251  0.00  0.00    +0.000 A 
BRANCH  15  20
ATOM     20  C   UNL A   1     -25.579   6.415  27.741  0.00  0.00    +0.388 C 
ATOM     21  O   UNL A   1     -24.717   6.549  28.329  0.00  0.00    -0.241 OA
ATOM     22  O   UNL A   1     -25.878   7.452  26.912  0.00  0.00    -0.241 OA
ENDBRANCH  15  20
ENDBRANCH   7  16
ENDBRANCH   1  11
BRANCH   3  23
ATOM     23  C   UNL A   1     -23.138   0.505  29.678  0.00  0.00    +0.249 C 
ATOM     24  N   UNL A   1     -23.379  -0.651  30.012  0.00  0.00    -0.270 N 
ATOM     25  C   UNL A   1     -23.276  -1.008  31.419  0.00  0.00    +0.116 C 
ATOM     26  O   UNL A   1     -23.090   1.490  30.454  0.00  0.00    -0.270 OA
BRANCH  24  27
ATOM     27  C   UNL A   1     -23.250  -1.722  29.162  0.00  0.00    +0.120 C 
BRANCH  27  28
ATOM     28  C   UNL A   1     -24.055  -2.912  29.171  0.00  0.00    -0.002 A 
ATOM     29  C   UNL A   1     -23.851  -3.876  28.893  0.00  0.00    -0.003 A 
ATOM     30  C   UNL A   1     -24.764  -5.051  28.935  0.00  0.00    -0.000 A 
ATOM     31  C   UNL A   1     -26.016  -4.791  29.457  0.00  0.00    +0.003 A 
ATOM     32  C   UNL A   1     -26.361  -3.529  29.861  0.00  0.00    +0.042 A 
ATOM     33  C   UNL A   1     -25.448  -2.492  29.812  0.00  0.00    +0.001 A 
BRANCH  32  34
ATOM     34  C   UNL A   1     -27.703  -3.235  30.459  0.00  0.00    +0.234 C 
ATOM     35  O   UNL A   1     -28.743  -3.512  30.054  0.00  0.00    -0.283 OA
ENDBRANCH  32  34
ENDBRANCH  27  28
ENDBRANCH  24  27
ENDBRANCH   3  23
TORSDOF 7
ENDMDL
ENDMDL
