MODEL 2674
MODEL 1
REMARK VINA RESULT:    -7.432      0.000      0.000
REMARK INTER + INTRA:         -10.540
REMARK INTER:                  -9.604
REMARK INTRA:                  -0.936
REMARK UNBOUND:                -0.936
REMARK  Name = No_2674-gen_results/8p0m/2024-11-27-11-27-31/
REMARK  5 active torsions:
REMARK  status: ('A' for Active; 'I' for Inactive)
REMARK    1  A    between atoms: C_3  and  C_18
REMARK    2  A    between atoms: C_5  and  C_15
REMARK    3  A    between atoms: C_9  and  O_23
REMARK    4  A    between atoms: O_23  and  C_24
REMARK    5  A    between atoms: C_24  and  C_25
REMARK                            x       y       z     vdW  Elec       q    Type
REMARK                         _______ _______ _______ _____ _____    ______ ____
ROOT
ATOM      1  C   UNL A   1     -25.376  -1.271  29.321  0.00  0.00    +0.003 A 
ATOM      2  C   UNL A   1     -26.261  -2.022  29.659  0.00  0.00    +0.004 A 
ATOM      3  C   UNL A   1     -26.086  -3.401  29.624  0.00  0.00    +0.072 A 
ATOM      4  C   UNL A   1     -27.099  -4.427  30.003  0.00  0.00    +0.009 A 
ATOM      5  C   UNL A   1     -28.296  -3.932  30.599  0.00  0.00    +0.057 A 
ATOM      6  C   UNL A   1     -28.428  -2.531  30.681  0.00  0.00    +0.004 A 
ATOM      7  C   UNL A   1     -27.499  -1.654  30.272  0.00  0.00    -0.004 A 
ATOM      8  C   UNL A   1     -25.844  -0.185  28.391  0.00  0.00    +0.034 A 
ATOM      9  C   UNL A   1     -24.932   0.460  27.641  0.00  0.00    +0.149 A 
ATOM     10  C   UNL A   1     -25.290   1.584  26.917  0.00  0.00    +0.038 A 
ATOM     11  C   UNL A   1     -26.657   1.964  26.961  0.00  0.00    +0.003 A 
ATOM     12  C   UNL A   1     -27.541   1.323  27.737  0.00  0.00    -0.000 A 
ATOM     13  C   UNL A   1     -27.168   0.248  28.507  0.00  0.00    -0.001 A 
ATOM     14  C   UNL A   1     -28.048  -0.575  29.399  0.00  0.00    -0.022 A 
ATOM     15  C   UNL A   1     -29.427  -0.058  29.598  0.00  0.00    +0.031 C 
ENDROOT
BRANCH   3  16
ATOM     16  C   UNL A   1     -24.832  -4.113  29.174  0.00  0.00    +0.419 C 
ATOM     17  F   UNL A   1     -23.883  -3.827  29.854  0.00  0.00    -0.166 F 
ATOM     18  F   UNL A   1     -24.510  -3.953  27.937  0.00  0.00    -0.166 F 
ATOM     19  F   UNL A   1     -25.166  -5.477  29.283  0.00  0.00    -0.166 F 
ENDBRANCH   3  16
BRANCH   5  20
ATOM     20  C   UNL A   1     -29.247  -4.919  31.139  0.00  0.00    +0.284 C 
ATOM     21  N   UNL A   1     -30.462  -4.684  31.095  0.00  0.00    -0.084 NA
ATOM     22  O   UNL A   1     -28.868  -6.050  31.629  0.00  0.00    -0.267 OA
ENDBRANCH   5  20
BRANCH   9  23
ATOM     23  O   UNL A   1     -23.648   0.093  27.586  0.00  0.00    -0.418 OA
BRANCH  23  24
ATOM     24  C   UNL A   1     -22.693   0.550  28.358  0.00  0.00    +0.418 C 
ATOM     25  O   UNL A   1     -22.688   1.782  28.535  0.00  0.00    -0.240 OA
BRANCH  24  26
ATOM     26  C   UNL A   1     -21.920  -0.337  28.998  0.00  0.00    +0.491 C 
ATOM     27  F   UNL A   1     -22.210  -1.545  28.855  0.00  0.00    -0.161 F 
ATOM     28  F   UNL A   1     -20.630  -0.315  28.606  0.00  0.00    -0.161 F 
ATOM     29  F   UNL A   1     -21.940  -0.089  30.340  0.00  0.00    -0.161 F 
ENDBRANCH  24  26
ENDBRANCH  23  24
ENDBRANCH   9  23
TORSDOF 5
ENDMDL
ENDMDL
