MODEL 2675
MODEL 1
REMARK VINA RESULT:    -7.707      0.000      0.000
REMARK INTER + INTRA:         -11.449
REMARK INTER:                  -9.509
REMARK INTRA:                  -1.939
REMARK UNBOUND:                -1.939
REMARK  Name = No_2675-gen_results/8p0m/2024-11-27-11-27-31/
REMARK  4 active torsions:
REMARK  status: ('A' for Active; 'I' for Inactive)
REMARK    1  A    between atoms: C_2  and  C_7
REMARK    2  A    between atoms: C_6  and  C_14
REMARK    3  A    between atoms: C_7  and  C_8
REMARK    4  A    between atoms: C_9  and  C_17
REMARK                            x       y       z     vdW  Elec       q    Type
REMARK                         _______ _______ _______ _____ _____    ______ ____
ROOT
ATOM      1  C   UNL A   1     -23.150   0.103  28.508  0.00  0.00    -0.018 A 
ATOM      2  C   UNL A   1     -24.164  -0.345  28.024  0.00  0.00    -0.004 A 
ATOM      3  C   UNL A   1     -24.658  -0.009  26.694  0.00  0.00    -0.000 A 
ATOM      4  C   UNL A   1     -22.693   1.376  27.805  0.00  0.00    -0.004 A 
ATOM      5  C   UNL A   1     -23.207   1.787  26.658  0.00  0.00    -0.000 A 
ATOM      6  C   UNL A   1     -24.241   1.084  26.096  0.00  0.00    -0.000 A 
ENDROOT
BRANCH   2   7
ATOM      7  C   UNL A   1     -24.770  -1.645  28.659  0.00  0.00    -0.000 A 
ATOM      8  C   UNL A   1     -25.923  -1.710  29.282  0.00  0.00    -0.000 A 
ATOM      9  C   UNL A   1     -26.298  -2.956  29.872  0.00  0.00    -0.000 A 
ATOM     10  C   UNL A   1     -25.443  -4.082  29.564  0.00  0.00    -0.000 A 
ATOM     11  C   UNL A   1     -24.298  -4.017  28.921  0.00  0.00    -0.000 A 
ATOM     12  C   UNL A   1     -23.914  -2.746  28.497  0.00  0.00    -0.000 A 
ENDBRANCH   2   7
BRANCH   1  13
ATOM     13  C   UNL A   1     -22.322  -0.096  29.790  0.00  0.00    +0.053 C 
BRANCH  13  15
ATOM     14  C   UNL A   1     -23.869   0.821  31.216  0.00  0.00    -0.004 A 
ATOM     15  C   UNL A   1     -23.101  -0.100  31.065  0.00  0.00    -0.018 A 
ATOM     16  C   UNL A   1     -23.008  -1.156  31.913  0.00  0.00    -0.004 A 
ATOM     17  C   UNL A   1     -23.854  -1.186  33.038  0.00  0.00    +0.006 A 
ATOM     18  C   UNL A   1     -24.828   0.809  32.291  0.00  0.00    +0.006 A 
ATOM     19  C   UNL A   1     -24.757  -0.215  33.187  0.00  0.00    +0.080 A 
BRANCH  19  20
ATOM     20  C   UNL A   1     -25.697  -0.179  34.393  0.00  0.00    +0.388 C 
ATOM     21  O   UNL A   1     -26.484   0.667  34.544  0.00  0.00    -0.241 OA
ATOM     22  O   UNL A   1     -25.324  -0.950  35.351  0.00  0.00    -0.241 OA
ENDBRANCH  19  20
ENDBRANCH  13  15
ENDBRANCH   1  13
TORSDOF 4
ENDMDL
ENDMDL
