REMARK  Name = outputs/IAG933/test6/raw/output_2675_IAG933_linker_design_.xyz
REMARK  13 active torsions:
REMARK  status: ('A' for Active; 'I' for Inactive)
REMARK    1  A    between atoms: C_1  and  C_2
REMARK    2  A    between atoms: C_1  and  C_8
REMARK    3  A    between atoms: C_1  and  O_29
REMARK    4  A    between atoms: C_13  and  N_40
REMARK    5  A    between atoms: C_14  and  C_15
REMARK    6  A    between atoms: C_21  and  O_22
REMARK    7  A    between atoms: O_22  and  C_23
REMARK    8  A    between atoms: C_23  and  C_24
REMARK    9  A    between atoms: C_28  and  O_33
REMARK   10  A    between atoms: O_29  and  C_43
REMARK   11  A    between atoms: C_30  and  C_32
REMARK   12  A    between atoms: C_30  and  C_37
REMARK   13  A    between atoms: O_33  and  C_37
REMARK                            x       y       z     vdW  Elec       q    Type
REMARK                         _______ _______ _______ _____ _____    ______ ____
ROOT
ATOM      1  N   UNL A   1     -21.596   0.737  28.746  0.00  0.00    -0.203 NA
ATOM      2  C   UNL A   1     -23.695   1.539  29.546  0.00  0.00    +0.078 C 
ATOM      3  C   UNL A   1     -22.202   1.331  27.528  0.00  0.00    +0.276 C 
ATOM      4  C   UNL A   1     -23.441   1.706  26.791  0.00  0.00    +0.234 C 
ATOM      5  C   UNL A   1     -22.683   0.517  29.006  0.00  0.00    +0.120 C 
ATOM      6  O   UNL A   1     -21.120   1.749  26.838  0.00  0.00    -0.270 OA
ATOM      7  N   UNL A   1     -24.590   1.382  27.334  0.00  0.00    -0.265 N 
ATOM      8 CL   UNL A   1     -23.142   2.576  25.355  0.00  0.00    -0.083 Cl
ATOM      9  C   UNL A   1     -25.026   1.154  28.794  0.00  0.00    +0.196 C 
ENDROOT
BRANCH   7  10
ATOM     10  C   UNL A   1     -25.688   1.614  26.461  0.00  0.00    +0.089 C 
ATOM     11  C   UNL A   1     -26.250   2.920  26.395  0.00  0.00    +0.090 C 
ATOM     12  C   UNL A   1     -27.438   3.091  25.645  0.00  0.00    +0.108 C 
ATOM     13  N   UNL A   1     -28.075   2.089  25.003  0.00  0.00    -0.208 NA
ATOM     14  C   UNL A   1     -27.543   0.849  25.079  0.00  0.00    +0.255 C 
ATOM     15  C   UNL A   1     -26.354   0.576  25.777  0.00  0.00    +0.206 C 
ATOM     16  F   UNL A   1     -25.860  -0.681  25.795  0.00  0.00    -0.198 F 
BRANCH  11  17
ATOM     17  C   UNL A   1     -25.642   4.093  27.123  0.00  0.00    +0.268 C 
ATOM     18  N   UNL A   1     -25.614   5.252  26.449  0.00  0.00    -0.200 NA
ATOM     19  C   UNL A   1     -25.026   6.479  26.963  0.00  0.00    +0.139 C 
ATOM     20  O   UNL A   1     -25.143   3.966  28.243  0.00  0.00    -0.268 OA
ENDBRANCH  11  17
BRANCH  14  21
ATOM     21  O   UNL A   1     -28.193  -0.208  24.477  0.00  0.00    -0.456 OA
BRANCH  21  22
ATOM     22  C   UNL A   1     -29.460   0.005  23.866  0.00  0.00    +0.243 C 
BRANCH  22  23
ATOM     23  C   UNL A   1     -30.065  -1.377  23.573  0.00  0.00    +0.229 C 
ATOM     24  O   UNL A   1     -30.729  -1.878  24.721  0.00  0.00    -0.216 OA
ENDBRANCH  22  23
ENDBRANCH  21  22
ENDBRANCH  14  21
ENDBRANCH   7  10
BRANCH   9  25
ATOM     25  O   UNL A   1     -25.453  -0.193  29.041  0.00  0.00    -0.334 OA
BRANCH  25  26
ATOM     26  C   UNL A   1     -24.855  -1.012  30.143  0.00  0.00    +0.155 C 
BRANCH  26  27
ATOM     27  C   UNL A   1     -24.973  -2.505  29.788  0.00  0.00    +0.006 C 
ATOM     28  C   UNL A   1     -23.906  -3.173  29.146  0.00  0.00    -0.002 C 
ATOM     29  C   UNL A   1     -23.989  -4.549  28.853  0.00  0.00    -0.000 C 
ATOM     30  C   UNL A   1     -25.137  -5.280  29.205  0.00  0.00    -0.000 C 
ATOM     31  C   UNL A   1     -26.232  -4.611  29.784  0.00  0.00    -0.000 C 
ATOM     32  C   UNL A   1     -26.155  -3.232  30.065  0.00  0.00    -0.002 C 
ENDBRANCH  26  27
BRANCH  26  33
ATOM     33  C   UNL A   1     -25.387  -0.679  31.571  0.00  0.00    +0.104 C 
ATOM     34  C   UNL A   1     -25.189   0.773  32.028  0.00  0.00    +0.022 C 
ATOM     35  C   UNL A   1     -25.336   0.684  33.544  0.00  0.00    +0.020 C 
ATOM     36  C   UNL A   1     -24.829  -0.715  33.905  0.00  0.00    +0.089 C 
ATOM     37  N   UNL A   1     -24.758  -1.481  32.646  0.00  0.00    -0.217 NA
ENDBRANCH  26  33
ENDBRANCH  25  26
ENDBRANCH   9  25
BRANCH   2  38
ATOM     38  C   UNL A   1     -24.104   2.450  30.803  0.00  0.00    +0.092 C 
BRANCH  38  39
ATOM     39  C   UNL A   1     -25.046   3.474  31.460  0.00  0.00    +0.220 C 
ATOM     40  N   UNL A   1     -25.838   4.126  30.722  0.00  0.00    -0.112 NA
BRANCH  39  41
ATOM     41  O   UNL A   1     -24.944   3.769  32.800  0.00  0.00    -0.462 OA
BRANCH  41  42
ATOM     42  C   UNL A   1     -25.367   5.146  33.239  0.00  0.00    +0.207 C 
ATOM     43  C   UNL A   1     -24.046   5.934  33.475  0.00  0.00    +0.051 C 
ENDBRANCH  41  42
ENDBRANCH  39  41
ENDBRANCH  38  39
ENDBRANCH   2  38
TORSDOF 13
