MODEL 2676
MODEL 1
REMARK VINA RESULT:    -6.076      0.000      0.000
REMARK INTER + INTRA:          -6.775
REMARK INTER:                  -6.431
REMARK INTRA:                  -0.345
REMARK UNBOUND:                -0.345
REMARK  Name = No_2676-gen_results/8p0m/2024-11-27-11-27-31/
REMARK  1 active torsions:
REMARK  status: ('A' for Active; 'I' for Inactive)
REMARK    1  A    between atoms: C_2  and  N_7
REMARK                            x       y       z     vdW  Elec       q    Type
REMARK                         _______ _______ _______ _____ _____    ______ ____
ROOT
ATOM      1  C   UNL A   1     -25.746  -2.746  29.565  0.00  0.00    +0.026 A 
ATOM      2  C   UNL A   1     -24.825  -2.690  29.058  0.00  0.00    +0.049 A 
ATOM      3  C   UNL A   1     -26.319  -4.137  29.721  0.00  0.00    +0.059 A 
ATOM      4  C   UNL A   1     -25.549  -5.250  29.323  0.00  0.00    +0.011 A 
ATOM      5  C   UNL A   1     -23.822  -3.672  28.585  0.00  0.00    +0.015 A 
ATOM      6  C   UNL A   1     -24.312  -4.964  28.718  0.00  0.00    +0.002 A 
ATOM      7 CL   UNL A   1     -27.861  -4.452  30.399  0.00  0.00    -0.082 Cl
ENDROOT
BRANCH   2   8
ATOM      8  N   UNL A   1     -24.233  -1.311  28.901  0.00  0.00    -0.307 N 
ATOM      9  C   UNL A   1     -23.188  -1.060  29.579  0.00  0.00    +0.091 C 
ATOM     10  C   UNL A   1     -22.218  -0.131  28.943  0.00  0.00    +0.021 C 
ATOM     11  C   UNL A   1     -24.683  -0.385  27.925  0.00  0.00    +0.091 C 
ATOM     12  C   UNL A   1     -23.793   0.554  27.408  0.00  0.00    +0.021 C 
ATOM     13  C   UNL A   1     -22.616   0.750  28.006  0.00  0.00    +0.004 C 
ENDBRANCH   2   8
TORSDOF 1
ENDMDL
ENDMDL
