MODEL 2677
MODEL 1
REMARK VINA RESULT:    -7.010      0.000      0.000
REMARK INTER + INTRA:         -13.646
REMARK INTER:                 -10.288
REMARK INTRA:                  -3.357
REMARK UNBOUND:                -3.357
REMARK  Name = No_2677-gen_results/8p0m/2024-11-27-11-27-31/
REMARK  8 active torsions:
REMARK  status: ('A' for Active; 'I' for Inactive)
REMARK    1  A    between atoms: C_2  and  C_7
REMARK    2  A    between atoms: C_7  and  C_8
REMARK    3  A    between atoms: C_7  and  C_9
REMARK    4  A    between atoms: C_8  and  C_15
REMARK    5  A    between atoms: C_9  and  C_10
REMARK    6  A    between atoms: C_11  and  C_12
REMARK    7  A    between atoms: C_15  and  C_16
REMARK    8  A    between atoms: C_17  and  C_18
REMARK                            x       y       z     vdW  Elec       q    Type
REMARK                         _______ _______ _______ _____ _____    ______ ____
ROOT
ATOM      1  C   UNL A   1     -25.565  -1.189  29.128  0.00  0.00    +0.027 C 
ENDROOT
BRANCH   1   3
ATOM      2  C   UNL A   1     -24.241  -3.118  28.608  0.00  0.00    -0.004 A 
ATOM      3  C   UNL A   1     -25.266  -2.677  29.076  0.00  0.00    -0.022 A 
ATOM      4  C   UNL A   1     -26.249  -3.447  29.608  0.00  0.00    -0.004 A 
ATOM      5  C   UNL A   1     -26.071  -4.844  29.619  0.00  0.00    -0.000 A 
ATOM      6  C   UNL A   1     -23.951  -4.527  28.673  0.00  0.00    -0.000 A 
ATOM      7  C   UNL A   1     -24.919  -5.347  29.172  0.00  0.00    -0.000 A 
ENDBRANCH   1   3
BRANCH   1   8
ATOM      8  C   UNL A   1     -25.220  -0.464  30.271  0.00  0.00    +0.009 C 
BRANCH   8   9
ATOM      9  C   UNL A   1     -23.825  -0.103  30.475  0.00  0.00    +0.026 C 
BRANCH   9  10
ATOM     10  C   UNL A   1     -23.329   1.117  29.931  0.00  0.00    -0.026 C 
ATOM     11  C   UNL A   1     -22.742   1.218  28.661  0.00  0.00    -0.005 C 
BRANCH  11  12
ATOM     12  C   UNL A   1     -23.111   1.913  27.729  0.00  0.00    -0.000 A 
ATOM     13  C   UNL A   1     -22.463   1.822  26.426  0.00  0.00    -0.000 A 
ATOM     14  C   UNL A   1     -22.878   2.523  25.286  0.00  0.00    -0.000 A 
ATOM     15  C   UNL A   1     -23.834   3.470  25.508  0.00  0.00    -0.000 A 
ATOM     16  C   UNL A   1     -24.511   3.691  26.711  0.00  0.00    -0.000 A 
ATOM     17  C   UNL A   1     -24.129   2.908  27.741  0.00  0.00    -0.000 A 
ENDBRANCH  11  12
ENDBRANCH   9  10
ENDBRANCH   8   9
ENDBRANCH   1   8
BRANCH   1  18
ATOM     18  C   UNL A   1     -25.929  -0.439  27.970  0.00  0.00    +0.031 C 
BRANCH  18  19
ATOM     19  C   UNL A   1     -25.427  -0.630  26.687  0.00  0.00    -0.017 C 
ATOM     20  C   UNL A   1     -25.561  -0.069  25.682  0.00  0.00    +0.045 C 
BRANCH  20  21
ATOM     21  C   UNL A   1     -26.623   0.992  25.528  0.00  0.00    -0.064 C 
ATOM     22  C   UNL A   1     -27.156   1.756  25.076  0.00  0.00    -0.085 C 
ATOM     23  C   UNL A   1     -28.150   2.708  24.715  0.00  0.00    +0.090 C 
ENDBRANCH  20  21
ENDBRANCH  18  19
ENDBRANCH   1  18
TORSDOF 8
ENDMDL
ENDMDL
