MODEL 2679
MODEL 1
REMARK VINA RESULT:    -4.494      0.000      0.000
REMARK INTER + INTRA:          -4.494
REMARK INTER:                  -4.494
REMARK INTRA:                   0.000
REMARK UNBOUND:                 0.000
REMARK  Name = No_2679-gen_results/8p0m/2024-11-27-11-27-31/
REMARK  0 active torsions:
REMARK  status: ('A' for Active; 'I' for Inactive)
REMARK                            x       y       z     vdW  Elec       q    Type
REMARK                         _______ _______ _______ _____ _____    ______ ____
ROOT
ATOM      1  C   UNL A   1      -9.249  -9.179  19.967  0.00  0.00    +0.011 A 
ATOM      2  C   UNL A   1      -8.242  -9.839  19.854  0.00  0.00    +0.058 A 
ATOM      3  C   UNL A   1      -8.059 -10.689  18.768  0.00  0.00    +0.011 A 
ATOM      4  C   UNL A   1      -9.083 -10.845  17.768  0.00  0.00    +0.001 A 
ATOM      5  C   UNL A   1     -10.224 -10.063  17.990  0.00  0.00    +0.000 A 
ATOM      6  C   UNL A   1     -10.307  -9.349  18.984  0.00  0.00    +0.001 A 
ATOM      7 CL   UNL A   1      -6.945  -9.815  20.972  0.00  0.00    -0.082 Cl
ENDROOT
TORSDOF 0
ENDMDL
ENDMDL
