MODEL 2681
MODEL 1
REMARK VINA RESULT:    -7.898      0.000      0.000
REMARK INTER + INTRA:         -12.102
REMARK INTER:                 -11.129
REMARK INTRA:                  -0.973
REMARK UNBOUND:                -0.973
REMARK  Name = No_2681-gen_results/8p0m/2024-11-27-11-27-31/
REMARK  7 active torsions:
REMARK  status: ('A' for Active; 'I' for Inactive)
REMARK    1  A    between atoms: C_1  and  C_2
REMARK    2  A    between atoms: C_5  and  C_14
REMARK    3  A    between atoms: C_13  and  N_19
REMARK    4  A    between atoms: C_14  and  C_16
REMARK    5  A    between atoms: N_19  and  C_22
REMARK    6  A    between atoms: N_19  and  C_34
REMARK    7  A    between atoms: C_25  and  C_27
REMARK                            x       y       z     vdW  Elec       q    Type
REMARK                         _______ _______ _______ _____ _____    ______ ____
ROOT
ATOM      1  C   UNL A   1     -28.533 -16.812  24.607  0.00  0.00    +0.250 C 
ATOM      2  N   UNL A   1     -27.455 -17.408  24.315  0.00  0.00    -0.261 N 
ATOM      3  C   UNL A   1     -27.220 -18.455  23.770  0.00  0.00    +0.098 C 
ATOM      4  C   UNL A   1     -25.855 -18.884  23.596  0.00  0.00    +0.060 C 
ATOM      5  C   UNL A   1     -26.197 -16.755  24.640  0.00  0.00    +0.187 C 
ATOM      6  N   UNL A   1     -25.102 -17.258  24.458  0.00  0.00    -0.179 NA
ATOM      7  C   UNL A   1     -24.828 -18.295  23.926  0.00  0.00    +0.151 C 
ATOM      8  O   UNL A   1     -29.332 -17.550  25.334  0.00  0.00    -0.270 OA
ENDROOT
BRANCH   1   9
ATOM      9  C   UNL A   1     -28.994 -15.999  23.840  0.00  0.00    +0.054 A 
ATOM     10  C   UNL A   1     -29.516 -14.806  24.223  0.00  0.00    +0.005 A 
ATOM     11  C   UNL A   1     -30.082 -13.799  23.298  0.00  0.00    +0.001 A 
ATOM     12  C   UNL A   1     -30.049 -14.112  21.899  0.00  0.00    +0.017 A 
ATOM     13  C   UNL A   1     -29.432 -15.331  21.535  0.00  0.00    +0.001 A 
ATOM     14  C   UNL A   1     -28.928 -16.217  22.451  0.00  0.00    +0.005 A 
BRANCH  12  15
ATOM     15  C   UNL A   1     -30.493 -13.204  20.897  0.00  0.00    +0.102 C 
ATOM     16  N   UNL A   1     -31.353 -13.191  20.181  0.00  0.00    -0.269 NA
ATOM     17  C   UNL A   1     -32.403 -14.077  20.625  0.00  0.00    +0.151 C 
BRANCH  15  18
ATOM     18  C   UNL A   1     -29.435 -12.121  20.528  0.00  0.00    +0.281 C 
ATOM     19  O   UNL A   1     -28.181 -12.410  20.535  0.00  0.00    -0.195 OA
ATOM     20  N   UNL A   1     -29.879 -10.943  20.112  0.00  0.00    -0.091 NA
ENDBRANCH  15  18
ENDBRANCH  12  15
ENDBRANCH   1   9
BRANCH   7  21
ATOM     21  N   UNL A   1     -23.560 -18.759  23.791  0.00  0.00    -0.295 N 
BRANCH  21  22
ATOM     22  C   UNL A   1     -22.831 -19.105  24.755  0.00  0.00    +0.049 A 
ATOM     23  C   UNL A   1     -21.933 -18.370  25.230  0.00  0.00    +0.015 A 
ATOM     24  C   UNL A   1     -21.084 -18.783  26.410  0.00  0.00    +0.001 A 
ATOM     25  C   UNL A   1     -21.372 -19.966  26.984  0.00  0.00    +0.000 A 
ATOM     26  C   UNL A   1     -23.024 -20.391  25.390  0.00  0.00    +0.015 A 
ATOM     27  C   UNL A   1     -22.327 -20.750  26.459  0.00  0.00    +0.001 A 
BRANCH  25  28
ATOM     28  C   UNL A   1     -20.609 -20.376  28.146  0.00  0.00    +0.000 A 
ATOM     29  C   UNL A   1     -20.517 -21.424  28.603  0.00  0.00    +0.000 A 
ATOM     30  C   UNL A   1     -19.764 -21.753  29.850  0.00  0.00    +0.000 A 
ATOM     31  C   UNL A   1     -19.157 -20.682  30.509  0.00  0.00    +0.000 A 
ATOM     32  C   UNL A   1     -19.299 -19.412  30.073  0.00  0.00    +0.000 A 
ATOM     33  C   UNL A   1     -19.975 -19.177  28.891  0.00  0.00    +0.000 A 
ENDBRANCH  25  28
ENDBRANCH  21  22
BRANCH  21  34
ATOM     34  C   UNL A   1     -23.090 -18.867  22.405  0.00  0.00    +0.092 C 
ATOM     35  C   UNL A   1     -22.963 -19.987  21.749  0.00  0.00    +0.023 C 
ENDBRANCH  21  34
ENDBRANCH   7  21
TORSDOF 7
ENDMDL
ENDMDL
