MODEL 2683
MODEL 1
REMARK VINA RESULT:    -6.838      0.000      0.000
REMARK INTER + INTRA:          -9.834
REMARK INTER:                  -8.836
REMARK INTRA:                  -0.998
REMARK UNBOUND:                -0.998
REMARK  Name = No_2683-gen_results/8p0m/2024-11-27-11-27-31/
REMARK  5 active torsions:
REMARK  status: ('A' for Active; 'I' for Inactive)
REMARK    1  A    between atoms: C_4  and  C_11
REMARK    2  A    between atoms: C_7  and  C_20
REMARK    3  A    between atoms: C_12  and  C_17
REMARK    4  A    between atoms: C_20  and  N_21
REMARK    5  A    between atoms: N_21  and  C_22
REMARK                            x       y       z     vdW  Elec       q    Type
REMARK                         _______ _______ _______ _____ _____    ______ ____
ROOT
ATOM      1  C   UNL A   1     -24.998   0.436  26.504  0.00  0.00    -0.003 A 
ATOM      2  C   UNL A   1     -24.947  -0.440  27.336  0.00  0.00    -0.000 A 
ATOM      3  C   UNL A   1     -24.441  -0.255  28.621  0.00  0.00    -0.000 A 
ATOM      4  C   UNL A   1     -24.330  -1.267  29.691  0.00  0.00    +0.000 A 
ATOM      5  C   UNL A   1     -23.763  -1.051  30.997  0.00  0.00    +0.000 A 
ATOM      6  C   UNL A   1     -23.491   0.287  31.302  0.00  0.00    -0.000 A 
ATOM      7  C   UNL A   1     -24.334   1.743  26.837  0.00  0.00    -0.001 A 
ATOM      8  C   UNL A   1     -23.891   2.042  28.105  0.00  0.00    -0.003 A 
ATOM      9  C   UNL A   1     -23.876   1.046  29.064  0.00  0.00    -0.000 A 
ATOM     10  C   UNL A   1     -23.447   1.299  30.367  0.00  0.00    -0.000 A 
ENDROOT
BRANCH   4  11
ATOM     11  C   UNL A   1     -24.791  -2.672  29.444  0.00  0.00    +0.006 A 
ATOM     12  C   UNL A   1     -26.011  -2.956  29.721  0.00  0.00    +0.080 A 
ATOM     13  C   UNL A   1     -26.465  -4.287  29.684  0.00  0.00    +0.007 A 
ATOM     14  C   UNL A   1     -23.881  -3.576  28.963  0.00  0.00    +0.000 A 
ATOM     15  C   UNL A   1     -24.258  -4.913  28.785  0.00  0.00    +0.000 A 
ATOM     16  C   UNL A   1     -25.600  -5.257  29.063  0.00  0.00    +0.000 A 
BRANCH  12  17
ATOM     17  C   UNL A   1     -27.063  -2.002  30.283  0.00  0.00    +0.388 C 
ATOM     18  O   UNL A   1     -27.363  -2.054  31.452  0.00  0.00    -0.241 OA
ATOM     19  O   UNL A   1     -27.862  -1.308  29.507  0.00  0.00    -0.241 OA
ENDBRANCH  12  17
ENDBRANCH   4  11
BRANCH   7  20
ATOM     20  C   UNL A   1     -24.358   2.775  25.735  0.00  0.00    +0.139 C 
BRANCH  20  21
ATOM     21  N   UNL A   1     -24.281   4.067  26.155  0.00  0.00    -0.232 NA
BRANCH  21  22
ATOM     22  C   UNL A   1     -25.349   4.646  26.531  0.00  0.00    +0.081 C 
ATOM     23  C   UNL A   1     -25.244   5.691  27.545  0.00  0.00    +0.019 C 
ENDBRANCH  21  22
ENDBRANCH  20  21
ENDBRANCH   7  20
TORSDOF 5
ENDMDL
ENDMDL
