MODEL 2684
MODEL 1
REMARK VINA RESULT:    -6.661      0.000      0.000
REMARK INTER + INTRA:          -8.192
REMARK INTER:                  -7.830
REMARK INTRA:                  -0.363
REMARK UNBOUND:                -0.363
REMARK  Name = No_2684-gen_results/8p0m/2024-11-27-11-27-31/
REMARK  3 active torsions:
REMARK  status: ('A' for Active; 'I' for Inactive)
REMARK    1  A    between atoms: C_1  and  C_2
REMARK    2  A    between atoms: C_1  and  C_8
REMARK    3  A    between atoms: N_9  and  C_11
REMARK                            x       y       z     vdW  Elec       q    Type
REMARK                         _______ _______ _______ _____ _____    ______ ____
ROOT
ATOM      1  C   UNL A   1     -24.891  -0.592  30.390  0.00  0.00    +0.250 C 
ATOM      2  N   UNL A   1     -25.334  -1.275  29.616  0.00  0.00    -0.179 NA
ATOM      3  O   UNL A   1     -24.290  -1.149  31.449  0.00  0.00    -0.273 OA
ENDROOT
BRANCH   2   4
ATOM      4  C   UNL A   1     -25.386  -2.584  29.527  0.00  0.00    +0.073 A 
ATOM      5  C   UNL A   1     -26.089  -3.306  29.812  0.00  0.00    +0.017 A 
ATOM      6  C   UNL A   1     -26.069  -4.795  29.661  0.00  0.00    +0.001 A 
ATOM      7  C   UNL A   1     -24.925  -5.286  29.020  0.00  0.00    +0.000 A 
ATOM      8  C   UNL A   1     -23.995  -4.401  28.586  0.00  0.00    +0.001 A 
ATOM      9  C   UNL A   1     -24.095  -3.091  28.830  0.00  0.00    +0.017 A 
ENDBRANCH   2   4
BRANCH   1  10
ATOM     10  C   UNL A   1     -24.680   0.855  30.171  0.00  0.00    +0.114 C 
BRANCH  10  11
ATOM     11  C   UNL A   1     -24.159   1.204  29.137  0.00  0.00    -0.013 A 
ATOM     12  C   UNL A   1     -24.851   1.774  28.086  0.00  0.00    -0.003 A 
ATOM     13  C   UNL A   1     -24.288   2.138  26.800  0.00  0.00    +0.011 A 
ATOM     14  C   UNL A   1     -23.271   1.865  26.537  0.00  0.00    +0.058 A 
ATOM     15  C   UNL A   1     -22.294   1.231  27.479  0.00  0.00    +0.011 A 
ATOM     16  C   UNL A   1     -22.790   0.868  28.755  0.00  0.00    -0.003 A 
ATOM     17 CL   UNL A   1     -22.395   2.271  25.021  0.00  0.00    -0.082 Cl
ENDBRANCH  10  11
ENDBRANCH   1  10
TORSDOF 3
ENDMDL
ENDMDL
