MODEL 2685
MODEL 1
REMARK VINA RESULT:    -5.285      0.000      0.000
REMARK INTER + INTRA:          -5.743
REMARK INTER:                  -5.594
REMARK INTRA:                  -0.149
REMARK UNBOUND:                -0.149
REMARK  Name = No_2685-gen_results/8p0m/2024-11-27-11-27-31/
REMARK  1 active torsions:
REMARK  status: ('A' for Active; 'I' for Inactive)
REMARK    1  A    between atoms: C_4  and  C_7
REMARK                            x       y       z     vdW  Elec       q    Type
REMARK                         _______ _______ _______ _____ _____    ______ ____
ROOT
ATOM      1  C   UNL A   1     -26.625  -3.967  29.848  0.00  0.00    -0.000 A 
ATOM      2  C   UNL A   1     -26.124  -4.869  29.635  0.00  0.00    -0.000 A 
ATOM      3  C   UNL A   1     -25.833  -2.706  29.585  0.00  0.00    -0.000 A 
ATOM      4  C   UNL A   1     -24.574  -2.799  28.956  0.00  0.00    -0.000 A 
ATOM      5  C   UNL A   1     -24.859  -5.236  28.959  0.00  0.00    -0.000 A 
ATOM      6  C   UNL A   1     -24.106  -4.100  28.695  0.00  0.00    -0.000 A 
ENDROOT
BRANCH   4   7
ATOM      7  C   UNL A   1     -23.777  -1.648  28.700  0.00  0.00    -0.005 C 
ATOM      8  C   UNL A   1     -22.765  -1.321  29.389  0.00  0.00    -0.026 C 
ATOM      9  C   UNL A   1     -21.871  -0.206  29.030  0.00  0.00    +0.031 C 
ENDBRANCH   4   7
TORSDOF 1
ENDMDL
ENDMDL
