REMARK  Name = outputs/IAG933/test6/raw/output_2686_IAG933_linker_design_.xyz
REMARK  11 active torsions:
REMARK  status: ('A' for Active; 'I' for Inactive)
REMARK    1  A    between atoms: C_1  and  C_2
REMARK    2  A    between atoms: C_1  and  C_8
REMARK    3  A    between atoms: C_1  and  N_35
REMARK    4  A    between atoms: C_13  and  C_40
REMARK    5  A    between atoms: C_14  and  C_15
REMARK    6  A    between atoms: C_21  and  O_22
REMARK    7  A    between atoms: O_22  and  C_23
REMARK    8  A    between atoms: C_23  and  C_24
REMARK    9  A    between atoms: O_31  and  C_39
REMARK   10  A    between atoms: C_32  and  C_39
REMARK   11  A    between atoms: N_35  and  C_43
REMARK                            x       y       z     vdW  Elec       q    Type
REMARK                         _______ _______ _______ _____ _____    ______ ____
ROOT
ATOM      1  C   UNL A   1     -23.100   0.315  28.820  0.00  0.00    +0.028 C 
ATOM      2  C   UNL A   1     -22.333   1.036  27.853  0.00  0.00    +0.148 C 
ATOM      3  C   UNL A   1     -23.224   1.554  26.858  0.00  0.00    +0.083 C 
ATOM      4 CL   UNL A   1     -22.782   2.369  25.484  0.00  0.00    -0.080 Cl
ATOM      5  F   UNL A   1     -20.982   1.279  27.835  0.00  0.00    -0.204 F 
ATOM      6  C   UNL A   1     -24.521   1.234  27.258  0.00  0.00    +0.015 C 
ATOM      7  C   UNL A   1     -24.491   0.507  28.472  0.00  0.00    +0.125 C 
ENDROOT
BRANCH   6   8
ATOM      8  C   UNL A   1     -25.688   1.614  26.461  0.00  0.00    +0.037 C 
ATOM      9  C   UNL A   1     -26.250   2.920  26.395  0.00  0.00    +0.076 C 
ATOM     10  C   UNL A   1     -27.438   3.091  25.645  0.00  0.00    +0.107 C 
ATOM     11  N   UNL A   1     -28.075   2.089  25.003  0.00  0.00    -0.208 NA
ATOM     12  C   UNL A   1     -27.543   0.849  25.079  0.00  0.00    +0.253 C 
ATOM     13  C   UNL A   1     -26.354   0.576  25.777  0.00  0.00    +0.193 C 
ATOM     14  F   UNL A   1     -25.860  -0.681  25.795  0.00  0.00    -0.199 F 
BRANCH   9  15
ATOM     15  C   UNL A   1     -25.642   4.093  27.123  0.00  0.00    +0.266 C 
ATOM     16  N   UNL A   1     -25.614   5.252  26.449  0.00  0.00    -0.200 NA
ATOM     17  C   UNL A   1     -25.026   6.479  26.963  0.00  0.00    +0.139 C 
ATOM     18  O   UNL A   1     -25.143   3.966  28.243  0.00  0.00    -0.268 OA
ENDBRANCH   9  15
BRANCH  12  19
ATOM     19  O   UNL A   1     -28.193  -0.208  24.477  0.00  0.00    -0.456 OA
BRANCH  19  20
ATOM     20  C   UNL A   1     -29.460   0.005  23.866  0.00  0.00    +0.243 C 
BRANCH  20  21
ATOM     21  C   UNL A   1     -30.065  -1.377  23.573  0.00  0.00    +0.229 C 
ATOM     22  O   UNL A   1     -30.729  -1.878  24.721  0.00  0.00    -0.216 OA
ENDBRANCH  20  21
ENDBRANCH  19  20
ENDBRANCH  12  19
ENDBRANCH   6   8
BRANCH   7  24
ATOM     23  C   UNL A   1     -28.727   2.466  30.040  0.00  0.00    +0.279 C 
ATOM     24  N   UNL A   1     -25.519   0.038  29.312  0.00  0.00    -0.253 N 
ATOM     25  N   UNL A   1     -27.703   2.018  29.238  0.00  0.00    -0.125 NA
ATOM     26  O   UNL A   1     -27.834  -0.230  28.830  0.00  0.00    -0.250 OA
ATOM     27  C   UNL A   1     -27.134   0.602  29.114  0.00  0.00    +0.331 C 
ATOM     28  O   UNL A   1     -28.619   3.154  31.050  0.00  0.00    -0.270 OA
BRANCH  24  29
ATOM     29  C   UNL A   1     -24.855  -1.012  30.143  0.00  0.00    +0.116 C 
BRANCH  29  30
ATOM     30  C   UNL A   1     -24.973  -2.505  29.788  0.00  0.00    -0.003 C 
ATOM     31  C   UNL A   1     -23.906  -3.173  29.146  0.00  0.00    -0.003 C 
ATOM     32  C   UNL A   1     -23.989  -4.549  28.853  0.00  0.00    -0.000 C 
ATOM     33  C   UNL A   1     -25.137  -5.280  29.205  0.00  0.00    -0.000 C 
ATOM     34  C   UNL A   1     -26.232  -4.611  29.784  0.00  0.00    -0.000 C 
ATOM     35  C   UNL A   1     -26.155  -3.232  30.065  0.00  0.00    -0.003 C 
ENDBRANCH  29  30
BRANCH  29  36
ATOM     36  C   UNL A   1     -25.387  -0.679  31.571  0.00  0.00    +0.095 C 
ATOM     37  C   UNL A   1     -25.189   0.773  32.028  0.00  0.00    +0.021 C 
ATOM     38  C   UNL A   1     -25.336   0.684  33.544  0.00  0.00    +0.020 C 
ATOM     39  C   UNL A   1     -24.829  -0.715  33.905  0.00  0.00    +0.089 C 
ATOM     40  N   UNL A   1     -24.758  -1.481  32.646  0.00  0.00    -0.217 NA
ENDBRANCH  29  36
ENDBRANCH  24  29
BRANCH  23  41
ATOM     41  C   UNL A   1     -30.137   2.192  29.602  0.00  0.00    +0.229 C 
BRANCH  41  42
ATOM     42  O   UNL A   1     -30.462   3.093  28.608  0.00  0.00    -0.342 OA
ATOM     43  C   UNL A   1     -30.272   4.403  29.055  0.00  0.00    +0.175 C 
ENDBRANCH  41  42
ENDBRANCH  23  41
ENDBRANCH   7  24
TORSDOF 11
