MODEL 2686
MODEL 1
REMARK VINA RESULT:    -5.602      0.000      0.000
REMARK INTER + INTRA:          -7.865
REMARK INTER:                  -7.240
REMARK INTRA:                  -0.626
REMARK UNBOUND:                -0.626
REMARK  Name = No_2686-gen_results/8p0m/2024-11-27-11-27-31/
REMARK  5 active torsions:
REMARK  status: ('A' for Active; 'I' for Inactive)
REMARK    1  A    between atoms: C_1  and  C_2
REMARK    2  A    between atoms: C_4  and  C_13
REMARK    3  A    between atoms: C_5  and  C_10
REMARK    4  A    between atoms: C_13  and  O_14
REMARK    5  A    between atoms: O_14  and  C_15
REMARK                            x       y       z     vdW  Elec       q    Type
REMARK                         _______ _______ _______ _____ _____    ______ ____
ROOT
ATOM      1  C   UNL A   1     -10.188 -21.563  22.194  0.00  0.00    +0.043 A 
ATOM      2  C   UNL A   1     -10.352 -21.845  20.877  0.00  0.00    +0.001 A 
ATOM      3  C   UNL A   1     -11.622 -21.682  20.134  0.00  0.00    +0.026 A 
ATOM      4  C   UNL A   1     -12.754 -21.215  20.879  0.00  0.00    +0.059 A 
ATOM      5  C   UNL A   1     -12.561 -21.003  22.263  0.00  0.00    +0.004 A 
ATOM      6  C   UNL A   1     -11.351 -21.175  22.885  0.00  0.00    +0.001 A 
ENDROOT
BRANCH   1   7
ATOM      7  C   UNL A   1      -9.145 -21.702  22.790  0.00  0.00    +0.341 C 
ATOM      8  F   UNL A   1      -8.517 -22.740  22.519  0.00  0.00    -0.193 F 
ATOM      9  F   UNL A   1      -9.305 -21.703  24.223  0.00  0.00    -0.193 F 
ENDBRANCH   1   7
BRANCH   4  10
ATOM     10  C   UNL A   1     -14.037 -21.038  20.295  0.00  0.00    +0.297 C 
ATOM     11  N   UNL A   1     -14.561 -19.928  19.927  0.00  0.00    -0.102 NA
ATOM     12  O   UNL A   1     -14.860 -22.031  20.350  0.00  0.00    -0.264 OA
ENDBRANCH   4  10
BRANCH   3  13
ATOM     13  C   UNL A   1     -11.715 -21.989  18.727  0.00  0.00    +0.232 C 
BRANCH  13  14
ATOM     14  O   UNL A   1     -11.102 -20.946  18.013  0.00  0.00    -0.468 OA
BRANCH  14  15
ATOM     15  C   UNL A   1     -11.623 -20.447  16.971  0.00  0.00    +0.173 C 
ATOM     16  C   UNL A   1     -12.574 -19.438  17.094  0.00  0.00    +0.043 C 
ENDBRANCH  14  15
ENDBRANCH  13  14
ENDBRANCH   3  13
TORSDOF 5
ENDMDL
ENDMDL
