MODEL 2687
MODEL 1
REMARK VINA RESULT:    -6.338      0.000      0.000
REMARK INTER + INTRA:          -7.297
REMARK INTER:                  -7.079
REMARK INTRA:                  -0.218
REMARK UNBOUND:                -0.218
REMARK  Name = No_2687-gen_results/8p0m/2024-11-27-11-27-31/
REMARK  2 active torsions:
REMARK  status: ('A' for Active; 'I' for Inactive)
REMARK    1  A    between atoms: C_4  and  C_7
REMARK    2  A    between atoms: C_8  and  C_14
REMARK                            x       y       z     vdW  Elec       q    Type
REMARK                         _______ _______ _______ _____ _____    ______ ____
ROOT
ATOM      1  C   UNL A   1     -23.966  -1.131  29.170  0.00  0.00    +0.045 C 
ATOM      2  C   UNL A   1     -24.307  -0.332  28.070  0.00  0.00    +0.110 C 
ATOM      3  C   UNL A   1     -23.427   0.676  27.585  0.00  0.00    +0.030 C 
ATOM      4  C   UNL A   1     -22.295   0.945  28.452  0.00  0.00    +0.089 C 
ATOM      5  C   UNL A   1     -22.433  -1.085  29.349  0.00  0.00    +0.093 C 
ATOM      6  N   UNL A   1     -21.840   0.102  29.151  0.00  0.00    -0.218 NA
ATOM      7  C   UNL A   1     -24.537  -0.313  30.494  0.00  0.00    +0.006 C 
ENDROOT
BRANCH   1  11
ATOM      8  C   UNL A   1     -26.255  -4.164  29.731  0.00  0.00    -0.000 A 
ATOM      9  C   UNL A   1     -25.615  -4.891  29.317  0.00  0.00    -0.000 A 
ATOM     10  C   UNL A   1     -25.743  -2.786  29.779  0.00  0.00    -0.004 A 
ATOM     11  C   UNL A   1     -24.502  -2.451  29.162  0.00  0.00    -0.021 A 
ATOM     12  C   UNL A   1     -24.330  -4.802  28.571  0.00  0.00    -0.000 A 
ATOM     13  C   UNL A   1     -23.818  -3.539  28.602  0.00  0.00    -0.004 A 
ENDBRANCH   1  11
BRANCH   2  14
ATOM     14  C   UNL A   1     -25.662  -0.409  27.440  0.00  0.00    +0.365 C 
ATOM     15  O   UNL A   1     -26.681  -0.176  27.966  0.00  0.00    -0.246 OA
ATOM     16  O   UNL A   1     -25.611  -0.871  26.190  0.00  0.00    -0.246 OA
ENDBRANCH   2  14
TORSDOF 2
ENDMDL
ENDMDL
