MODEL 2689
MODEL 1
REMARK VINA RESULT:    -8.192      0.000      0.000
REMARK INTER + INTRA:         -10.091
REMARK INTER:                 -10.108
REMARK INTRA:                   0.016
REMARK UNBOUND:                 0.016
REMARK  Name = No_2689-gen_results/8p0m/2024-11-27-11-27-31/
REMARK  4 active torsions:
REMARK  status: ('A' for Active; 'I' for Inactive)
REMARK    1  A    between atoms: C_2  and  N_10
REMARK    2  A    between atoms: C_6  and  C_7
REMARK    3  A    between atoms: N_10  and  C_11
REMARK    4  A    between atoms: N_10  and  C_17
REMARK                            x       y       z     vdW  Elec       q    Type
REMARK                         _______ _______ _______ _____ _____    ______ ____
ROOT
ATOM      1  N   UNL A   1     -24.583  -1.169  28.899  0.00  0.00    -0.248 N 
ENDROOT
BRANCH   1   2
ATOM      2  C   UNL A   1     -24.376  -0.355  30.137  0.00  0.00    +0.096 A 
ATOM      3  C   UNL A   1     -25.248  -0.141  30.933  0.00  0.00    +0.018 A 
ATOM      4  C   UNL A   1     -25.107  -0.479  32.361  0.00  0.00    +0.002 A 
ATOM      5  C   UNL A   1     -23.926  -1.098  32.725  0.00  0.00    +0.003 A 
ATOM      6  C   UNL A   1     -22.768  -0.920  32.040  0.00  0.00    +0.043 A 
ATOM      7  C   UNL A   1     -23.061  -0.797  30.590  0.00  0.00    +0.209 A 
ATOM      8  O   UNL A   1     -22.217  -1.042  29.799  0.00  0.00    -0.285 OA
ENDBRANCH   1   2
BRANCH   1  10
ATOM      9  C   UNL A   1     -23.820   0.489  27.470  0.00  0.00    +0.041 A 
ATOM     10  C   UNL A   1     -24.625  -0.393  27.660  0.00  0.00    +0.140 A 
ATOM     11  N   UNL A   1     -25.547  -0.778  26.766  0.00  0.00    -0.229 NA
ATOM     12  C   UNL A   1     -25.732  -0.338  25.856  0.00  0.00    +0.101 A 
ATOM     13  C   UNL A   1     -24.930   0.791  25.373  0.00  0.00    +0.026 A 
ATOM     14  C   UNL A   1     -23.993   1.204  26.217  0.00  0.00    +0.072 A 
BRANCH  14  15
ATOM     15  C   UNL A   1     -23.133   2.352  25.994  0.00  0.00    +0.334 C 
ATOM     16  O   UNL A   1     -23.708   3.439  25.572  0.00  0.00    -0.254 OA
ATOM     17  F   UNL A   1     -21.939   2.200  25.844  0.00  0.00    -0.159 F 
ENDBRANCH  14  15
ENDBRANCH   1  10
BRANCH   1  18
ATOM     18  C   UNL A   1     -24.660  -2.490  28.923  0.00  0.00    +0.057 A 
ATOM     19  C   UNL A   1     -23.986  -3.265  28.525  0.00  0.00    +0.015 A 
ATOM     20  C   UNL A   1     -24.062  -4.719  28.618  0.00  0.00    +0.001 A 
ATOM     21  C   UNL A   1     -25.273  -5.113  29.165  0.00  0.00    +0.000 A 
ATOM     22  C   UNL A   1     -26.238  -4.229  29.670  0.00  0.00    +0.001 A 
ATOM     23  C   UNL A   1     -25.927  -2.884  29.612  0.00  0.00    +0.015 A 
ENDBRANCH   1  18
TORSDOF 4
ENDMDL
ENDMDL
