REMARK  Name = No_2689-gen_results/8p0m/2024-11-27-11-27-31/
REMARK  4 active torsions:
REMARK  status: ('A' for Active; 'I' for Inactive)
REMARK    1  A    between atoms: C_2  and  N_10
REMARK    2  A    between atoms: C_6  and  C_7
REMARK    3  A    between atoms: N_10  and  C_11
REMARK    4  A    between atoms: N_10  and  C_17
REMARK                            x       y       z     vdW  Elec       q    Type
REMARK                         _______ _______ _______ _____ _____    ______ ____
ROOT
ATOM      1  N   UNL A   1     -27.216   1.006  27.686  0.00  0.00    -0.248 N 
ENDROOT
BRANCH   1   2
ATOM      2  C   UNL A   1     -26.362   2.193  28.006  0.00  0.00    +0.096 A 
ATOM      3  C   UNL A   1     -25.163   2.168  27.959  0.00  0.00    +0.018 A 
ATOM      4  C   UNL A   1     -24.391   3.117  27.136  0.00  0.00    +0.002 A 
ATOM      5  C   UNL A   1     -25.130   4.011  26.386  0.00  0.00    +0.003 A 
ATOM      6  C   UNL A   1     -26.373   4.417  26.750  0.00  0.00    +0.043 A 
ATOM      7  C   UNL A   1     -27.099   3.289  27.384  0.00  0.00    +0.209 A 
ATOM      8  O   UNL A   1     -28.281   3.288  27.402  0.00  0.00    -0.285 OA
ENDBRANCH   1   2
BRANCH   1  10
ATOM      9  C   UNL A   1     -28.016  -0.814  28.878  0.00  0.00    +0.041 A 
ATOM     10  C   UNL A   1     -27.064  -0.119  28.608  0.00  0.00    +0.140 A 
ATOM     11  N   UNL A   1     -25.818  -0.343  29.049  0.00  0.00    -0.229 NA
ATOM     12  C   UNL A   1     -25.530  -1.073  29.713  0.00  0.00    +0.101 A 
ATOM     13  C   UNL A   1     -26.489  -2.046  30.246  0.00  0.00    +0.026 A 
ATOM     14  C   UNL A   1     -27.738  -1.875  29.831  0.00  0.00    +0.072 A 
BRANCH  14  15
ATOM     15  C   UNL A   1     -28.871  -2.661  30.285  0.00  0.00    +0.334 C 
ATOM     16  O   UNL A   1     -29.047  -2.742  31.571  0.00  0.00    -0.254 OA
ATOM     17  F   UNL A   1     -29.377  -3.483  29.551  0.00  0.00    -0.159 F 
ENDBRANCH  14  15
ENDBRANCH   1  10
BRANCH   1  18
ATOM     18  C   UNL A   1     -28.081   1.003  26.685  0.00  0.00    +0.057 A 
ATOM     19  C   UNL A   1     -28.938   0.347  26.466  0.00  0.00    +0.015 A 
ATOM     20  C   UNL A   1     -29.916   0.402  25.385  0.00  0.00    +0.001 A 
ATOM     21  C   UNL A   1     -29.554   1.353  24.444  0.00  0.00    +0.000 A 
ATOM     22  C   UNL A   1     -28.463   2.224  24.578  0.00  0.00    +0.001 A 
ATOM     23  C   UNL A   1     -27.725   2.107  25.741  0.00  0.00    +0.015 A 
ENDBRANCH   1  18
TORSDOF 4
