MODEL 268
MODEL 1
REMARK VINA RESULT:    -7.355      0.000      0.000
REMARK INTER + INTRA:          -9.387
REMARK INTER:                  -9.075
REMARK INTRA:                  -0.312
REMARK UNBOUND:                -0.312
REMARK  Name = No_268-gen_results/8p0m/2024-11-27-11-27-31/
REMARK  4 active torsions:
REMARK  status: ('A' for Active; 'I' for Inactive)
REMARK    1  A    between atoms: C_2  and  O_7
REMARK    2  A    between atoms: C_4  and  C_16
REMARK    3  A    between atoms: O_7  and  C_8
REMARK    4  A    between atoms: C_8  and  C_9
REMARK                            x       y       z     vdW  Elec       q    Type
REMARK                         _______ _______ _______ _____ _____    ______ ____
ROOT
ATOM      1  C   UNL A   1     -24.929   0.385  28.101  0.00  0.00    +0.038 A 
ATOM      2  C   UNL A   1     -24.130   0.279  28.779  0.00  0.00    +0.149 A 
ATOM      3  C   UNL A   1     -24.623   1.188  26.857  0.00  0.00    +0.007 A 
ATOM      4  C   UNL A   1     -23.298   1.608  26.613  0.00  0.00    +0.072 A 
ATOM      5  C   UNL A   1     -22.680   0.579  28.753  0.00  0.00    +0.038 A 
ATOM      6  C   UNL A   1     -22.359   1.312  27.619  0.00  0.00    +0.007 A 
ENDROOT
BRANCH   4   7
ATOM      7  C   UNL A   1     -22.777   2.271  25.467  0.00  0.00    +0.419 C 
ATOM      8  F   UNL A   1     -23.192   3.366  25.289  0.00  0.00    -0.166 F 
ATOM      9  F   UNL A   1     -23.147   1.515  24.340  0.00  0.00    -0.166 F 
ATOM     10  F   UNL A   1     -21.404   2.239  25.470  0.00  0.00    -0.166 F 
ENDBRANCH   4   7
BRANCH   2  11
ATOM     11  O   UNL A   1     -24.422  -0.500  29.992  0.00  0.00    -0.421 OA
BRANCH  11  12
ATOM     12  C   UNL A   1     -25.379  -1.353  29.912  0.00  0.00    +0.346 C 
ATOM     13  O   UNL A   1     -26.531  -0.979  30.483  0.00  0.00    -0.244 OA
BRANCH  12  14
ATOM     14  C   UNL A   1     -25.287  -2.564  29.419  0.00  0.00    +0.076 A 
ATOM     15  C   UNL A   1     -26.290  -3.452  29.718  0.00  0.00    +0.006 A 
ATOM     16  C   UNL A   1     -26.075  -4.874  29.650  0.00  0.00    +0.000 A 
ATOM     17  C   UNL A   1     -24.164  -3.156  28.797  0.00  0.00    +0.006 A 
ATOM     18  C   UNL A   1     -23.981  -4.507  28.578  0.00  0.00    +0.000 A 
ATOM     19  C   UNL A   1     -24.998  -5.384  28.988  0.00  0.00    +0.000 A 
ENDBRANCH  12  14
ENDBRANCH  11  12
ENDBRANCH   2  11
TORSDOF 4
ENDMDL
ENDMDL
