REMARK  Name = No_269-gen_results/8p0m/2024-11-27-11-27-31/
REMARK  6 active torsions:
REMARK  status: ('A' for Active; 'I' for Inactive)
REMARK    1  A    between atoms: C_6  and  O_18
REMARK    2  A    between atoms: C_7  and  C_15
REMARK    3  A    between atoms: O_18  and  C_19
REMARK    4  A    between atoms: C_19  and  C_20
REMARK    5  A    between atoms: N_26  and  C_27
REMARK    6  A    between atoms: C_28  and  C_29
REMARK                            x       y       z     vdW  Elec       q    Type
REMARK                         _______ _______ _______ _____ _____    ______ ____
ROOT
ATOM      1  C   UNL A   1     -28.016  -0.814  28.878  0.00  0.00    +0.038 A 
ATOM      2  C   UNL A   1     -27.064  -0.119  28.608  0.00  0.00    +0.009 A 
ATOM      3  C   UNL A   1     -25.792  -0.430  29.076  0.00  0.00    +0.000 A 
ATOM      4  C   UNL A   1     -25.576  -1.565  29.936  0.00  0.00    +0.003 A 
ATOM      5  C   UNL A   1     -26.735  -2.300  30.217  0.00  0.00    +0.038 A 
ATOM      6  C   UNL A   1     -27.918  -1.954  29.763  0.00  0.00    +0.147 A 
ATOM      7  C   UNL A   1     -27.106   1.102  27.759  0.00  0.00    +0.080 A 
ATOM      8  C   UNL A   1     -26.122   1.482  27.023  0.00  0.00    +0.007 A 
ATOM      9  C   UNL A   1     -24.714   1.130  27.489  0.00  0.00    +0.000 A 
ATOM     10  C   UNL A   1     -24.572   0.097  28.407  0.00  0.00    +0.000 A 
ATOM     11  C   UNL A   1     -23.549   1.779  26.903  0.00  0.00    +0.000 A 
ATOM     12  C   UNL A   1     -22.389   1.902  27.678  0.00  0.00    +0.000 A 
ATOM     13  C   UNL A   1     -22.153   0.911  28.695  0.00  0.00    +0.000 A 
ATOM     14  C   UNL A   1     -23.285   0.046  29.146  0.00  0.00    +0.000 A 
ENDROOT
BRANCH   7  15
ATOM     15  C   UNL A   1     -28.500   1.074  26.977  0.00  0.00    +0.388 C 
ATOM     16  O   UNL A   1     -28.665   2.158  26.507  0.00  0.00    -0.241 OA
ATOM     17  O   UNL A   1     -29.304   0.198  27.002  0.00  0.00    -0.241 OA
ENDBRANCH   7  15
BRANCH   6  18
ATOM     18  O   UNL A   1     -29.017  -2.651  30.176  0.00  0.00    -0.436 OA
BRANCH  18  19
ATOM     19  C   UNL A   1     -30.151  -2.074  30.628  0.00  0.00    +0.230 C 
ATOM     20  N   UNL A   1     -31.215  -2.259  29.782  0.00  0.00    -0.210 NA
BRANCH  19  21
ATOM     21  C   UNL A   1     -30.234  -1.330  31.560  0.00  0.00    +0.054 A 
ATOM     22  C   UNL A   1     -30.602  -0.359  31.831  0.00  0.00    +0.005 A 
ATOM     23  C   UNL A   1     -30.661   0.490  33.071  0.00  0.00    +0.000 A 
ATOM     24  C   UNL A   1     -30.033  -0.112  34.144  0.00  0.00    +0.000 A 
ATOM     25  C   UNL A   1     -29.428  -1.340  34.010  0.00  0.00    +0.000 A 
ATOM     26  C   UNL A   1     -29.425  -1.996  32.763  0.00  0.00    +0.005 A 
ENDBRANCH  19  21
BRANCH  20  27
ATOM     27  C   UNL A   1     -32.326  -1.589  29.874  0.00  0.00    +0.098 C 
ATOM     28  C   UNL A   1     -33.391  -1.969  28.929  0.00  0.00    -0.005 C 
BRANCH  28  29
ATOM     29  C   UNL A   1     -33.061  -2.859  28.021  0.00  0.00    +0.028 C 
ATOM     30  C   UNL A   1     -31.883  -3.602  27.955  0.00  0.00    +0.005 C 
ENDBRANCH  28  29
ENDBRANCH  20  27
ENDBRANCH  18  19
ENDBRANCH   6  18
TORSDOF 6
