MODEL 2690
MODEL 1
REMARK VINA RESULT:    -5.248      0.000      0.000
REMARK INTER + INTRA:          -5.598
REMARK INTER:                  -5.555
REMARK INTRA:                  -0.043
REMARK UNBOUND:                -0.043
REMARK  Name = No_2690-gen_results/8p0m/2024-11-27-11-27-31/
REMARK  1 active torsions:
REMARK  status: ('A' for Active; 'I' for Inactive)
REMARK    1  A    between atoms: C_6  and  C_8
REMARK                            x       y       z     vdW  Elec       q    Type
REMARK                         _______ _______ _______ _____ _____    ______ ____
ROOT
ATOM      1  C   UNL A   1     -29.093 -11.127  30.201  0.00  0.00    +0.058 A 
ATOM      2  C   UNL A   1     -29.801 -10.405  30.498  0.00  0.00    +0.011 A 
ATOM      3 CL   UNL A   1     -29.128 -11.693  28.596  0.00  0.00    -0.082 Cl
ATOM      4  C   UNL A   1     -29.850  -9.975  31.877  0.00  0.00    +0.001 A 
ATOM      5  C   UNL A   1     -28.963 -10.633  32.745  0.00  0.00    +0.007 A 
ATOM      6  C   UNL A   1     -28.207 -11.626  32.244  0.00  0.00    +0.081 A 
ATOM      7  C   UNL A   1     -28.278 -11.974  30.947  0.00  0.00    +0.018 A 
ENDROOT
BRANCH   6   8
ATOM      8  C   UNL A   1     -27.235 -12.408  33.084  0.00  0.00    +0.388 C 
ATOM      9  O   UNL A   1     -26.340 -12.933  32.566  0.00  0.00    -0.241 OA
ATOM     10  O   UNL A   1     -27.264 -12.166  34.402  0.00  0.00    -0.241 OA
ENDBRANCH   6   8
TORSDOF 1
ENDMDL
ENDMDL
