REMARK  Name = outputs/IAG933/test6/raw/output_2691_IAG933_linker_design_.xyz
REMARK  13 active torsions:
REMARK  status: ('A' for Active; 'I' for Inactive)
REMARK    1  A    between atoms: C_1  and  C_2
REMARK    2  A    between atoms: C_1  and  C_8
REMARK    3  A    between atoms: C_1  and  C_40
REMARK    4  A    between atoms: C_13  and  C_28
REMARK    5  A    between atoms: C_14  and  C_15
REMARK    6  A    between atoms: C_21  and  O_22
REMARK    7  A    between atoms: O_22  and  C_23
REMARK    8  A    between atoms: C_23  and  C_24
REMARK    9  A    between atoms: C_34  and  C_46
REMARK   10  A    between atoms: C_34  and  C_48
REMARK   11  A    between atoms: C_36  and  C_45
REMARK   12  A    between atoms: C_39  and  C_40
REMARK   13  A    between atoms: C_40  and  N_49
REMARK                            x       y       z     vdW  Elec       q    Type
REMARK                         _______ _______ _______ _____ _____    ______ ____
ROOT
ATOM      1  C   UNL A   1     -25.278  -0.042  29.107  0.00  0.00    +0.116 C 
ENDROOT
BRANCH   1   5
ATOM      2  C   UNL A   1     -24.471   1.342  27.151  0.00  0.00    -0.001 C 
ATOM      3  C   UNL A   1     -23.228   1.741  26.740  0.00  0.00    +0.081 C 
ATOM      4  C   UNL A   1     -22.292   1.262  27.576  0.00  0.00    +0.146 C 
ATOM      5  C   UNL A   1     -24.298   0.646  28.348  0.00  0.00    +0.070 C 
ATOM      6  C   UNL A   1     -22.935   0.657  28.635  0.00  0.00    +0.010 C 
ATOM      7  F   UNL A   1     -21.004   1.285  27.360  0.00  0.00    -0.204 F 
ATOM      8 CL   UNL A   1     -22.903   2.406  25.187  0.00  0.00    -0.080 Cl
BRANCH   2   9
ATOM      9  C   UNL A   1     -25.688   1.614  26.461  0.00  0.00    +0.035 C 
ATOM     10  C   UNL A   1     -26.250   2.920  26.395  0.00  0.00    +0.076 C 
ATOM     11  C   UNL A   1     -27.438   3.091  25.645  0.00  0.00    +0.107 C 
ATOM     12  N   UNL A   1     -28.075   2.089  25.003  0.00  0.00    -0.208 NA
ATOM     13  C   UNL A   1     -27.543   0.849  25.079  0.00  0.00    +0.253 C 
ATOM     14  C   UNL A   1     -26.354   0.576  25.777  0.00  0.00    +0.193 C 
ATOM     15  F   UNL A   1     -25.860  -0.681  25.795  0.00  0.00    -0.199 F 
BRANCH  10  16
ATOM     16  C   UNL A   1     -25.642   4.093  27.123  0.00  0.00    +0.266 C 
ATOM     17  N   UNL A   1     -25.614   5.252  26.449  0.00  0.00    -0.200 NA
ATOM     18  C   UNL A   1     -25.026   6.479  26.963  0.00  0.00    +0.139 C 
ATOM     19  O   UNL A   1     -25.143   3.966  28.243  0.00  0.00    -0.268 OA
ENDBRANCH  10  16
BRANCH  13  20
ATOM     20  O   UNL A   1     -28.193  -0.208  24.477  0.00  0.00    -0.456 OA
BRANCH  20  21
ATOM     21  C   UNL A   1     -29.460   0.005  23.866  0.00  0.00    +0.243 C 
BRANCH  21  22
ATOM     22  C   UNL A   1     -30.065  -1.377  23.573  0.00  0.00    +0.229 C 
ATOM     23  O   UNL A   1     -30.729  -1.878  24.721  0.00  0.00    -0.216 OA
ENDBRANCH  21  22
ENDBRANCH  20  21
ENDBRANCH  13  20
ENDBRANCH   2   9
ENDBRANCH   1   5
BRANCH   1  25
ATOM     24  C   UNL A   1     -27.536  -0.448  28.660  0.00  0.00    +0.067 C 
ATOM     25  N   UNL A   1     -26.622   0.457  29.012  0.00  0.00    -0.275 NA
BRANCH  24  26
ATOM     26  C   UNL A   1     -28.950  -0.502  28.288  0.00  0.00    +0.050 C 
BRANCH  26  35
ATOM     27  C   UNL A   1     -31.889   0.394  30.020  0.00  0.00    +0.067 C 
ATOM     28  C   UNL A   1     -32.637   1.489  30.561  0.00  0.00    +0.207 C 
ATOM     29  C   UNL A   1     -30.417   3.255  30.456  0.00  0.00    +0.102 C 
ATOM     30  C   UNL A   1     -31.415   3.295  31.495  0.00  0.00    +0.188 C 
ATOM     31  N   UNL A   1     -30.468   2.265  29.365  0.00  0.00    -0.304 N 
ATOM     32  O   UNL A   1     -32.361   2.241  31.569  0.00  0.00    -0.471 OA
ATOM     33  C   UNL A   1     -30.474   0.941  29.885  0.00  0.00    +0.079 C 
ATOM     34  C   UNL A   1     -29.221   1.886  28.635  0.00  0.00    +0.108 C 
ATOM     35  C   UNL A   1     -29.326   0.559  29.302  0.00  0.00    +0.045 C 
BRANCH  34  37
ATOM     36  O   UNL A   1     -30.685   2.671  26.876  0.00  0.00    -0.219 OA
ATOM     37  C   UNL A   1     -29.500   1.878  27.081  0.00  0.00    +0.202 C 
ENDBRANCH  34  37
ENDBRANCH  26  35
ENDBRANCH  24  26
ENDBRANCH   1  25
BRANCH   1  38
ATOM     38  C   UNL A   1     -24.855  -1.012  30.143  0.00  0.00    +0.061 C 
BRANCH  38  39
ATOM     39  C   UNL A   1     -24.973  -2.505  29.788  0.00  0.00    -0.019 C 
ATOM     40  C   UNL A   1     -23.906  -3.173  29.146  0.00  0.00    -0.004 C 
ATOM     41  C   UNL A   1     -23.989  -4.549  28.853  0.00  0.00    -0.000 C 
ATOM     42  C   UNL A   1     -25.137  -5.280  29.205  0.00  0.00    -0.000 C 
ATOM     43  C   UNL A   1     -26.232  -4.611  29.784  0.00  0.00    -0.000 C 
ATOM     44  C   UNL A   1     -26.155  -3.232  30.065  0.00  0.00    -0.004 C 
ENDBRANCH  38  39
BRANCH  38  45
ATOM     45  C   UNL A   1     -25.387  -0.679  31.571  0.00  0.00    +0.079 C 
ATOM     46  C   UNL A   1     -25.189   0.773  32.028  0.00  0.00    +0.019 C 
ATOM     47  C   UNL A   1     -25.336   0.684  33.544  0.00  0.00    +0.020 C 
ATOM     48  C   UNL A   1     -24.829  -0.715  33.905  0.00  0.00    +0.089 C 
ATOM     49  N   UNL A   1     -24.758  -1.481  32.646  0.00  0.00    -0.219 NA
ENDBRANCH  38  45
ENDBRANCH   1  38
TORSDOF 13
