MODEL 2691
MODEL 1
REMARK VINA RESULT:    -4.246      0.000      0.000
REMARK INTER + INTRA:          -4.246
REMARK INTER:                  -4.246
REMARK INTRA:                   0.000
REMARK UNBOUND:                 0.000
REMARK  Name = No_2691-gen_results/8p0m/2024-11-27-11-27-31/
REMARK  0 active torsions:
REMARK  status: ('A' for Active; 'I' for Inactive)
REMARK                            x       y       z     vdW  Elec       q    Type
REMARK                         _______ _______ _______ _____ _____    ______ ____
ROOT
ATOM      1  C   UNL A   1     -24.053  -3.192  28.908  0.00  0.00    +0.000 A 
ATOM      2  C   UNL A   1     -23.992  -4.374  28.660  0.00  0.00    +0.000 A 
ATOM      3  C   UNL A   1     -24.975  -5.279  29.008  0.00  0.00    +0.000 A 
ATOM      4  C   UNL A   1     -26.139  -4.783  29.659  0.00  0.00    +0.000 A 
ATOM      5  C   UNL A   1     -26.236  -3.437  29.761  0.00  0.00    +0.000 A 
ATOM      6  C   UNL A   1     -25.261  -2.642  29.363  0.00  0.00    +0.000 A 
ENDROOT
TORSDOF 0
ENDMDL
ENDMDL
