MODEL 2692
MODEL 1
REMARK VINA RESULT:    -6.710      0.000      0.000
REMARK INTER + INTRA:          -8.128
REMARK INTER:                  -7.887
REMARK INTRA:                  -0.241
REMARK UNBOUND:                -0.241
REMARK  Name = No_2692-gen_results/8p0m/2024-11-27-11-27-31/
REMARK  3 active torsions:
REMARK  status: ('A' for Active; 'I' for Inactive)
REMARK    1  A    between atoms: C_5  and  C_8
REMARK    2  A    between atoms: C_7  and  C_12
REMARK    3  A    between atoms: C_8  and  N_9
REMARK                            x       y       z     vdW  Elec       q    Type
REMARK                         _______ _______ _______ _____ _____    ______ ____
ROOT
ATOM      1 CL   UNL A   1     -23.098  -1.092  31.369  0.00  0.00    -0.082 Cl
ATOM      2  C   UNL A   1     -23.397  -0.343  30.174  0.00  0.00    +0.058 A 
ATOM      3  C   UNL A   1     -23.093   0.744  29.861  0.00  0.00    +0.011 A 
ATOM      4  C   UNL A   1     -23.400   1.476  28.617  0.00  0.00    -0.002 A 
ATOM      5  C   UNL A   1     -24.108   0.739  27.643  0.00  0.00    -0.006 A 
ATOM      6  C   UNL A   1     -24.462  -0.530  27.958  0.00  0.00    -0.002 A 
ATOM      7  C   UNL A   1     -24.126  -1.102  29.112  0.00  0.00    +0.012 A 
ENDROOT
BRANCH   7   8
ATOM      8  C   UNL A   1     -24.516  -2.528  29.388  0.00  0.00    +0.018 A 
ATOM      9  C   UNL A   1     -25.809  -2.681  29.893  0.00  0.00    +0.089 A 
ATOM     10  C   UNL A   1     -26.430  -3.959  29.838  0.00  0.00    +0.018 A 
ATOM     11  C   UNL A   1     -25.751  -5.041  29.324  0.00  0.00    +0.001 A 
ATOM     12  C   UNL A   1     -24.418  -4.864  28.928  0.00  0.00    +0.000 A 
ATOM     13  C   UNL A   1     -23.817  -3.589  28.837  0.00  0.00    +0.001 A 
ATOM     14  N   UNL A   1     -26.423  -1.474  30.286  0.00  0.00    -0.128 NA
ENDBRANCH   7   8
BRANCH   5  15
ATOM     15  C   UNL A   1     -24.419   1.412  26.391  0.00  0.00    +0.099 C 
BRANCH  15  16
ATOM     16  N   UNL A   1     -23.567   2.504  26.101  0.00  0.00    -0.267 NA
ATOM     17  C   UNL A   1     -22.656   2.372  25.168  0.00  0.00    +0.090 C 
ATOM     18  C   UNL A   1     -24.399   3.763  25.808  0.00  0.00    +0.090 C 
ENDBRANCH  15  16
ENDBRANCH   5  15
TORSDOF 3
ENDMDL
ENDMDL
