REMARK  Name = outputs/IAG933/test6/raw/output_2692_IAG933_linker_design_.xyz
REMARK  11 active torsions:
REMARK  status: ('A' for Active; 'I' for Inactive)
REMARK    1  A    between atoms: C_1  and  C_2
REMARK    2  A    between atoms: C_1  and  C_8
REMARK    3  A    between atoms: C_1  and  C_31
REMARK    4  A    between atoms: C_13  and  N_41
REMARK    5  A    between atoms: C_14  and  C_15
REMARK    6  A    between atoms: C_21  and  O_22
REMARK    7  A    between atoms: O_22  and  C_23
REMARK    8  A    between atoms: C_23  and  C_24
REMARK    9  A    between atoms: C_28  and  C_31
REMARK   10  A    between atoms: C_31  and  N_39
REMARK   11  A    between atoms: N_39  and  C_40
REMARK                            x       y       z     vdW  Elec       q    Type
REMARK                         _______ _______ _______ _____ _____    ______ ____
ROOT
ATOM      1  C   UNL A   1     -24.370   0.573  28.169  0.00  0.00    +0.083 C 
ATOM      2  F   UNL A   1     -21.101   1.718  27.466  0.00  0.00    -0.200 F 
ATOM      3  C   UNL A   1     -22.954   0.542  28.450  0.00  0.00    +0.180 C 
ATOM      4  C   UNL A   1     -22.376   1.347  27.489  0.00  0.00    +0.183 C 
ATOM      5  C   UNL A   1     -23.321   1.805  26.555  0.00  0.00    +0.102 C 
ATOM      6  N   UNL A   1     -24.485   1.331  27.058  0.00  0.00    -0.260 N 
ATOM      7  F   UNL A   1     -22.308  -0.250  29.340  0.00  0.00    -0.201 F 
ENDROOT
BRANCH   6   8
ATOM      8  C   UNL A   1     -25.688   1.614  26.461  0.00  0.00    +0.094 C 
ATOM      9  C   UNL A   1     -26.250   2.920  26.395  0.00  0.00    +0.090 C 
ATOM     10  C   UNL A   1     -27.438   3.091  25.645  0.00  0.00    +0.108 C 
ATOM     11  N   UNL A   1     -28.075   2.089  25.003  0.00  0.00    -0.208 NA
ATOM     12  C   UNL A   1     -27.543   0.849  25.079  0.00  0.00    +0.255 C 
ATOM     13  C   UNL A   1     -26.354   0.576  25.777  0.00  0.00    +0.207 C 
ATOM     14  F   UNL A   1     -25.860  -0.681  25.795  0.00  0.00    -0.198 F 
BRANCH   9  15
ATOM     15  C   UNL A   1     -25.642   4.093  27.123  0.00  0.00    +0.268 C 
ATOM     16  N   UNL A   1     -25.614   5.252  26.449  0.00  0.00    -0.200 NA
ATOM     17  C   UNL A   1     -25.026   6.479  26.963  0.00  0.00    +0.139 C 
ATOM     18  O   UNL A   1     -25.143   3.966  28.243  0.00  0.00    -0.268 OA
ENDBRANCH   9  15
BRANCH  12  19
ATOM     19  O   UNL A   1     -28.193  -0.208  24.477  0.00  0.00    -0.456 OA
BRANCH  19  20
ATOM     20  C   UNL A   1     -29.460   0.005  23.866  0.00  0.00    +0.243 C 
BRANCH  20  21
ATOM     21  C   UNL A   1     -30.065  -1.377  23.573  0.00  0.00    +0.229 C 
ATOM     22  O   UNL A   1     -30.729  -1.878  24.721  0.00  0.00    -0.216 OA
ENDBRANCH  20  21
ENDBRANCH  19  20
ENDBRANCH  12  19
ENDBRANCH   6   8
BRANCH   1  23
ATOM     23  C   UNL A   1     -25.396  -0.207  28.958  0.00  0.00    +0.136 C 
BRANCH  23  24
ATOM     24  C   UNL A   1     -24.855  -1.012  30.143  0.00  0.00    +0.064 C 
BRANCH  24  25
ATOM     25  C   UNL A   1     -24.973  -2.505  29.788  0.00  0.00    -0.019 C 
ATOM     26  C   UNL A   1     -23.906  -3.173  29.146  0.00  0.00    -0.004 C 
ATOM     27  C   UNL A   1     -23.989  -4.549  28.853  0.00  0.00    -0.000 C 
ATOM     28  C   UNL A   1     -25.137  -5.280  29.205  0.00  0.00    -0.000 C 
ATOM     29  C   UNL A   1     -26.232  -4.611  29.784  0.00  0.00    -0.000 C 
ATOM     30  C   UNL A   1     -26.155  -3.232  30.065  0.00  0.00    -0.004 C 
ENDBRANCH  24  25
BRANCH  24  31
ATOM     31  C   UNL A   1     -25.387  -0.679  31.571  0.00  0.00    +0.079 C 
ATOM     32  C   UNL A   1     -25.189   0.773  32.028  0.00  0.00    +0.019 C 
ATOM     33  C   UNL A   1     -25.336   0.684  33.544  0.00  0.00    +0.020 C 
ATOM     34  C   UNL A   1     -24.829  -0.715  33.905  0.00  0.00    +0.089 C 
ATOM     35  N   UNL A   1     -24.758  -1.481  32.646  0.00  0.00    -0.219 NA
ENDBRANCH  24  31
ENDBRANCH  23  24
BRANCH  23  36
ATOM     36  N   UNL A   1     -26.894  -0.383  28.834  0.00  0.00    -0.233 NA
BRANCH  36  42
ATOM     37  C   UNL A   1     -30.258   1.258  28.424  0.00  0.00    +0.001 C 
ATOM     38  C   UNL A   1     -30.129   2.285  29.397  0.00  0.00    +0.000 C 
ATOM     39  C   UNL A   1     -28.891   2.489  30.067  0.00  0.00    +0.001 C 
ATOM     40  C   UNL A   1     -29.165   0.397  28.138  0.00  0.00    +0.016 C 
ATOM     41  C   UNL A   1     -27.749   1.726  29.703  0.00  0.00    +0.016 C 
ATOM     42  C   UNL A   1     -27.894   0.597  28.835  0.00  0.00    +0.066 C 
ENDBRANCH  36  42
ENDBRANCH  23  36
ENDBRANCH   1  23
TORSDOF 11
