MODEL 2693
MODEL 1
REMARK VINA RESULT:    -7.226      0.000      0.000
REMARK INTER + INTRA:          -7.746
REMARK INTER:                  -7.648
REMARK INTRA:                  -0.098
REMARK UNBOUND:                -0.098
REMARK  Name = No_2693-gen_results/8p0m/2024-11-27-11-27-31/
REMARK  1 active torsions:
REMARK  status: ('A' for Active; 'I' for Inactive)
REMARK    1  A    between atoms: C_1  and  C_15
REMARK                            x       y       z     vdW  Elec       q    Type
REMARK                         _______ _______ _______ _____ _____    ______ ____
ROOT
ATOM      1  C   UNL A   1     -28.202 -11.406  32.425  0.00  0.00    +0.081 A 
ATOM      2  C   UNL A   1     -28.866 -10.523  32.917  0.00  0.00    +0.006 A 
ATOM      3  C   UNL A   1     -29.789  -9.748  32.237  0.00  0.00    -0.003 A 
ATOM      4  C   UNL A   1     -29.989 -10.039  30.855  0.00  0.00    -0.009 A 
ATOM      5  C   UNL A   1     -29.345 -11.124  30.378  0.00  0.00    +0.044 A 
ATOM      6  C   UNL A   1     -28.539 -11.859  31.148  0.00  0.00    +0.021 A 
ATOM      7  N   UNL A   1     -29.707 -11.237  28.999  0.00  0.00    -0.309 N 
ATOM      8  C   UNL A   1     -29.063 -12.168  28.356  0.00  0.00    +0.091 C 
ATOM      9  C   UNL A   1     -29.146 -12.097  26.907  0.00  0.00    +0.021 C 
ATOM     10  C   UNL A   1     -30.488 -10.390  28.302  0.00  0.00    +0.073 C 
ATOM     11  C   UNL A   1     -30.713 -10.399  26.934  0.00  0.00    +0.020 C 
ATOM     12  C   UNL A   1     -29.992 -11.365  26.248  0.00  0.00    +0.004 C 
ATOM     13  C   UNL A   1     -31.193  -9.334  29.103  0.00  0.00    +0.024 C 
ATOM     14  C   UNL A   1     -30.932  -9.175  30.299  0.00  0.00    +0.029 C 
ENDROOT
BRANCH   1  15
ATOM     15  C   UNL A   1     -27.215 -12.317  33.189  0.00  0.00    +0.388 C 
ATOM     16  O   UNL A   1     -26.369 -12.788  32.534  0.00  0.00    -0.241 OA
ATOM     17  O   UNL A   1     -27.101 -12.239  34.442  0.00  0.00    -0.241 OA
ENDBRANCH   1  15
TORSDOF 1
ENDMDL
ENDMDL
