MODEL 2694
MODEL 1
REMARK VINA RESULT:    -5.461      0.000      0.000
REMARK INTER + INTRA:          -6.178
REMARK INTER:                  -6.099
REMARK INTRA:                  -0.078
REMARK UNBOUND:                -0.078
REMARK  Name = No_2694-gen_results/8p0m/2024-11-27-11-27-31/
REMARK  2 active torsions:
REMARK  status: ('A' for Active; 'I' for Inactive)
REMARK    1  A    between atoms: P_1  and  O_2
REMARK    2  A    between atoms: O_2  and  C_6
REMARK                            x       y       z     vdW  Elec       q    Type
REMARK                         _______ _______ _______ _____ _____    ______ ____
ROOT
ATOM      1  C   UNL A   1     -24.460  -2.432  28.932  0.00  0.00    +0.145 A 
ATOM      2  C   UNL A   1     -23.880  -3.440  28.636  0.00  0.00    +0.037 A 
ATOM      3  C   UNL A   1     -25.746  -2.737  29.678  0.00  0.00    +0.013 A 
ATOM      4  C   UNL A   1     -26.666  -1.900  30.150  0.00  0.00    +0.034 C 
ATOM      5  C   UNL A   1     -26.094  -4.206  29.711  0.00  0.00    -0.001 A 
ATOM      6  C   UNL A   1     -25.387  -5.198  29.182  0.00  0.00    -0.000 A 
ATOM      7  C   UNL A   1     -24.139  -4.861  28.619  0.00  0.00    +0.003 A 
ENDROOT
BRANCH   1   8
ATOM      8  O   UNL A   1     -24.028  -1.177  28.962  0.00  0.00    -0.400 OA
BRANCH   8   9
ATOM      9  P   UNL A   1     -23.073  -0.765  29.417  0.00  0.00    +0.589 P 
ATOM     10  O   UNL A   1     -23.120   0.841  29.382  0.00  0.00    -0.104 OA
ATOM     11  O   UNL A   1     -22.968  -1.001  30.992  0.00  0.00    -0.211 OA
ATOM     12  O   UNL A   1     -21.649  -1.158  28.993  0.00  0.00    -0.104 OA
ENDBRANCH   8   9
ENDBRANCH   1   8
TORSDOF 2
ENDMDL
ENDMDL
