MODEL 2695
MODEL 1
REMARK VINA RESULT:    -5.223      0.000      0.000
REMARK INTER + INTRA:          -5.574
REMARK INTER:                  -5.528
REMARK INTRA:                  -0.046
REMARK UNBOUND:                -0.046
REMARK  Name = No_2695-gen_results/8p0m/2024-11-27-11-27-31/
REMARK  1 active torsions:
REMARK  status: ('A' for Active; 'I' for Inactive)
REMARK    1  A    between atoms: C_6  and  C_8
REMARK                            x       y       z     vdW  Elec       q    Type
REMARK                         _______ _______ _______ _____ _____    ______ ____
ROOT
ATOM      1  C   UNL A   1     -29.076 -10.363  32.683  0.00  0.00    +0.007 A 
ATOM      2  C   UNL A   1     -29.718 -10.063  31.703  0.00  0.00    +0.012 A 
ATOM      3  C   UNL A   1     -29.602 -10.713  30.476  0.00  0.00    +0.058 A 
ATOM      4  C   UNL A   1     -28.622 -11.772  30.327  0.00  0.00    +0.012 A 
ATOM      5  C   UNL A   1     -27.891 -12.072  31.475  0.00  0.00    +0.007 A 
ATOM      6  C   UNL A   1     -28.058 -11.397  32.596  0.00  0.00    +0.080 A 
ATOM      7 CL   UNL A   1     -30.477 -10.335  29.047  0.00  0.00    -0.082 Cl
ENDROOT
BRANCH   6   8
ATOM      8  C   UNL A   1     -27.183 -11.788  33.757  0.00  0.00    +0.388 C 
ATOM      9  O   UNL A   1     -26.795 -12.840  33.850  0.00  0.00    -0.241 OA
ATOM     10  O   UNL A   1     -26.909 -10.848  34.649  0.00  0.00    -0.241 OA
ENDBRANCH   6   8
TORSDOF 1
ENDMDL
ENDMDL
