REMARK  Name = No_2695-gen_results/8p0m/2024-11-27-11-27-31/
REMARK  1 active torsions:
REMARK  status: ('A' for Active; 'I' for Inactive)
REMARK    1  A    between atoms: C_6  and  C_8
REMARK                            x       y       z     vdW  Elec       q    Type
REMARK                         _______ _______ _______ _____ _____    ______ ____
ROOT
ATOM      1  C   UNL A   1     -28.016  -0.814  28.878  0.00  0.00    +0.007 A 
ATOM      2  C   UNL A   1     -27.064  -0.119  28.608  0.00  0.00    +0.012 A 
ATOM      3  C   UNL A   1     -25.765  -0.390  29.036  0.00  0.00    +0.058 A 
ATOM      4  C   UNL A   1     -25.530  -1.530  29.901  0.00  0.00    +0.012 A 
ATOM      5  C   UNL A   1     -26.658  -2.292  30.203  0.00  0.00    +0.007 A 
ATOM      6  C   UNL A   1     -27.855  -1.956  29.763  0.00  0.00    +0.080 A 
ATOM      7 CL   UNL A   1     -24.372   0.555  28.694  0.00  0.00    -0.082 Cl
ENDROOT
BRANCH   6   8
ATOM      8  C   UNL A   1     -29.002  -2.835  30.187  0.00  0.00    +0.388 C 
ATOM      9  O   UNL A   1     -30.063  -2.477  30.082  0.00  0.00    -0.241 OA
ATOM     10  O   UNL A   1     -28.698  -4.022  30.688  0.00  0.00    -0.241 OA
ENDBRANCH   6   8
TORSDOF 1
