MODEL 2696
MODEL 1
REMARK VINA RESULT:    -7.401      0.000      0.000
REMARK INTER + INTRA:         -10.116
REMARK INTER:                  -9.131
REMARK INTRA:                  -0.984
REMARK UNBOUND:                -0.984
REMARK  Name = No_2696-gen_results/8p0m/2024-11-27-11-27-31/
REMARK  4 active torsions:
REMARK  status: ('A' for Active; 'I' for Inactive)
REMARK    1  A    between atoms: C_3  and  C_4
REMARK    2  A    between atoms: C_4  and  C_5
REMARK    3  A    between atoms: C_4  and  C_10
REMARK    4  A    between atoms: C_10  and  N_11
REMARK                            x       y       z     vdW  Elec       q    Type
REMARK                         _______ _______ _______ _____ _____    ______ ____
ROOT
ATOM      1  C   UNL A   1     -24.407  -0.878  29.195  0.00  0.00    +0.058 C 
ATOM      2  C   UNL A   1     -25.830  -0.106  29.378  0.00  0.00    +0.011 C 
ENDROOT
BRANCH   1   5
ATOM      3  C   UNL A   1     -24.125  -4.465  28.724  0.00  0.00    -0.000 A 
ATOM      4  C   UNL A   1     -23.915  -3.275  28.749  0.00  0.00    -0.004 A 
ATOM      5  C   UNL A   1     -24.705  -2.332  29.176  0.00  0.00    -0.017 A 
ATOM      6  C   UNL A   1     -25.395  -4.955  29.280  0.00  0.00    -0.000 A 
ATOM      7  C   UNL A   1     -26.313  -4.083  29.720  0.00  0.00    -0.000 A 
ATOM      8  C   UNL A   1     -25.995  -2.720  29.711  0.00  0.00    -0.004 A 
ENDBRANCH   1   5
BRANCH   1   9
ATOM      9  C   UNL A   1     -23.841  -0.334  28.008  0.00  0.00    -0.017 A 
ATOM     10  C   UNL A   1     -24.677   0.384  27.116  0.00  0.00    -0.004 A 
ATOM     11  C   UNL A   1     -24.069   1.228  26.229  0.00  0.00    -0.000 A 
ATOM     12  C   UNL A   1     -22.932   1.987  26.725  0.00  0.00    -0.000 A 
ATOM     13  C   UNL A   1     -22.105   1.418  27.694  0.00  0.00    -0.000 A 
ATOM     14  C   UNL A   1     -22.735   0.710  28.594  0.00  0.00    -0.004 A 
ENDBRANCH   1   9
BRANCH   1  15
ATOM     15  C   UNL A   1     -23.507  -0.302  30.193  0.00  0.00    +0.124 C 
BRANCH  15  16
ATOM     16  N   UNL A   1     -24.163  -0.075  31.498  0.00  0.00    -0.191 NA
ATOM     17  C   UNL A   1     -23.636  -0.789  32.552  0.00  0.00    +0.326 C 
ATOM     18 CL   UNL A   1     -22.680  -1.553  32.746  0.00  0.00    -0.021 Cl
ATOM     19  O   UNL A   1     -24.676  -0.844  33.547  0.00  0.00    -0.255 OA
ENDBRANCH  15  16
ENDBRANCH   1  15
TORSDOF 4
ENDMDL
ENDMDL
