REMARK  Name = No_2697-gen_results/8p0m/2024-11-27-11-27-31/
REMARK  2 active torsions:
REMARK  status: ('A' for Active; 'I' for Inactive)
REMARK    1  A    between atoms: C_3  and  C_13
REMARK    2  A    between atoms: C_8  and  C_20
REMARK                            x       y       z     vdW  Elec       q    Type
REMARK                         _______ _______ _______ _____ _____    ______ ____
ROOT
ATOM      1  C   UNL A   1     -28.016  -0.814  28.878  0.00  0.00    +0.001 A 
ATOM      2  C   UNL A   1     -27.064  -0.119  28.608  0.00  0.00    -0.007 A 
ATOM      3  C   UNL A   1     -26.972   0.714  27.506  0.00  0.00    +0.121 C 
ATOM      4  C   UNL A   1     -25.820   1.491  27.116  0.00  0.00    -0.007 A 
ATOM      5  C   UNL A   1     -24.656   1.424  27.918  0.00  0.00    +0.036 A 
ATOM      6  C   UNL A   1     -23.460   2.116  27.616  0.00  0.00    +0.003 A 
ATOM      7  C   UNL A   1     -23.473   2.664  26.285  0.00  0.00    +0.000 A 
ATOM      8  C   UNL A   1     -27.993  -1.617  30.102  0.00  0.00    +0.053 A 
ATOM      9  C   UNL A   1     -26.774  -1.783  30.782  0.00  0.00    +0.005 A 
ATOM     10  C   UNL A   1     -25.633  -1.148  30.381  0.00  0.00    +0.003 A 
ATOM     11  C   UNL A   1     -25.709  -0.310  29.275  0.00  0.00    +0.036 A 
ATOM     12  C   UNL A   1     -24.607   0.419  29.061  0.00  0.00    +0.195 C 
ATOM     13  C   UNL A   1     -25.761   2.260  26.011  0.00  0.00    -0.003 A 
ATOM     14  C   UNL A   1     -24.594   3.078  25.668  0.00  0.00    -0.000 A 
ATOM     15  O   UNL A   1     -23.505   0.383  29.702  0.00  0.00    -0.287 OA
ENDROOT
BRANCH   3  16
ATOM     16  C   UNL A   1     -28.108   0.830  26.596  0.00  0.00    +0.233 C 
ATOM     17  N   UNL A   1     -29.077   1.667  26.850  0.00  0.00    -0.279 N 
ATOM     18  O   UNL A   1     -28.167   0.166  25.536  0.00  0.00    -0.274 OA
ATOM     19  C   UNL A   1     -30.294   1.791  26.071  0.00  0.00    +0.093 C 
ATOM     20  C   UNL A   1     -29.111   2.575  28.083  0.00  0.00    +0.093 C 
ATOM     21  C   UNL A   1     -29.135   3.937  27.824  0.00  0.00    +0.022 C 
ATOM     22  C   UNL A   1     -30.323   4.284  27.172  0.00  0.00    +0.004 C 
ATOM     23  C   UNL A   1     -30.521   3.383  25.879  0.00  0.00    +0.022 C 
ENDBRANCH   3  16
BRANCH   8  24
ATOM     24  C   UNL A   1     -29.213  -2.411  30.489  0.00  0.00    +0.249 C 
ATOM     25  O   UNL A   1     -30.187  -1.944  30.739  0.00  0.00    -0.270 OA
ATOM     26  N   UNL A   1     -29.104  -3.820  30.271  0.00  0.00    -0.276 N 
ATOM     27  C   UNL A   1     -30.210  -4.710  30.509  0.00  0.00    +0.094 C 
ATOM     28  C   UNL A   1     -27.840  -4.498  30.002  0.00  0.00    +0.094 C 
ATOM     29  C   UNL A   1     -30.366  -5.364  31.430  0.00  0.00    +0.022 C 
ATOM     30  C   UNL A   1     -29.238  -6.192  31.758  0.00  0.00    +0.004 C 
ATOM     31  C   UNL A   1     -27.938  -5.554  31.276  0.00  0.00    +0.022 C 
ENDBRANCH   8  24
TORSDOF 2
