MODEL 2697
MODEL 1
REMARK VINA RESULT:    -7.826      0.000      0.000
REMARK INTER + INTRA:          -9.619
REMARK INTER:                  -8.741
REMARK INTRA:                  -0.878
REMARK UNBOUND:                -0.878
REMARK  Name = No_2697-gen_results/8p0m/2024-11-27-11-27-31/
REMARK  2 active torsions:
REMARK  status: ('A' for Active; 'I' for Inactive)
REMARK    1  A    between atoms: C_3  and  C_13
REMARK    2  A    between atoms: C_8  and  C_20
REMARK                            x       y       z     vdW  Elec       q    Type
REMARK                         _______ _______ _______ _____ _____    ______ ____
ROOT
ATOM      1  C   UNL A   1     -25.938  -1.517  28.421  0.00  0.00    +0.001 A 
ATOM      2  C   UNL A   1     -25.032  -0.759  28.163  0.00  0.00    -0.007 A 
ATOM      3  C   UNL A   1     -24.951   0.030  27.029  0.00  0.00    +0.121 C 
ATOM      4  C   UNL A   1     -23.846   0.881  26.656  0.00  0.00    -0.007 A 
ATOM      5  C   UNL A   1     -22.721   0.942  27.513  0.00  0.00    +0.036 A 
ATOM      6  C   UNL A   1     -21.570   1.715  27.234  0.00  0.00    +0.003 A 
ATOM      7  C   UNL A   1     -21.561   2.203  25.880  0.00  0.00    +0.000 A 
ATOM      8  C   UNL A   1     -25.913  -2.262  29.681  0.00  0.00    +0.053 A 
ATOM      9  C   UNL A   1     -24.719  -2.300  30.423  0.00  0.00    +0.005 A 
ATOM     10  C   UNL A   1     -23.613  -1.593  30.045  0.00  0.00    +0.003 A 
ATOM     11  C   UNL A   1     -23.700  -0.812  28.899  0.00  0.00    +0.036 A 
ATOM     12  C   UNL A   1     -22.650  -0.006  28.702  0.00  0.00    +0.195 C 
ATOM     13  C   UNL A   1     -23.794   1.604  25.521  0.00  0.00    -0.003 A 
ATOM     14  C   UNL A   1     -22.679   2.498  25.194  0.00  0.00    -0.000 A 
ATOM     15  O   UNL A   1     -21.581   0.074  29.394  0.00  0.00    -0.287 OA
ENDROOT
BRANCH   3  16
ATOM     16  C   UNL A   1     -26.047   0.016  26.064  0.00  0.00    +0.233 C 
ATOM     17  N   UNL A   1     -27.003   0.902  26.133  0.00  0.00    -0.279 N 
ATOM     18  O   UNL A   1     -26.081  -0.814  25.127  0.00  0.00    -0.274 OA
ATOM     19  C   UNL A   1     -28.184   0.918  25.292  0.00  0.00    +0.093 C 
ATOM     20  C   UNL A   1     -27.062   2.003  27.197  0.00  0.00    +0.093 C 
ATOM     21  C   UNL A   1     -27.040   3.303  26.715  0.00  0.00    +0.022 C 
ATOM     22  C   UNL A   1     -28.191   3.560  25.964  0.00  0.00    +0.004 C 
ATOM     23  C   UNL A   1     -28.361   2.460  24.830  0.00  0.00    +0.022 C 
ENDBRANCH   3  16
BRANCH   8  24
ATOM     24  C   UNL A   1     -27.084  -3.135  30.048  0.00  0.00    +0.249 C 
ATOM     25  O   UNL A   1     -27.176  -4.193  29.730  0.00  0.00    -0.270 OA
ATOM     26  N   UNL A   1     -27.950  -2.586  31.045  0.00  0.00    -0.276 N 
ATOM     27  C   UNL A   1     -29.067  -3.327  31.568  0.00  0.00    +0.094 C 
ATOM     28  C   UNL A   1     -27.918  -1.186  31.458  0.00  0.00    +0.094 C 
ATOM     29  C   UNL A   1     -30.160  -3.212  31.261  0.00  0.00    +0.022 C 
ATOM     30  C   UNL A   1     -30.644  -1.860  31.317  0.00  0.00    +0.004 C 
ATOM     31  C   UNL A   1     -29.505  -0.867  31.104  0.00  0.00    +0.022 C 
ENDBRANCH   8  24
TORSDOF 2
ENDMDL
ENDMDL
