MODEL 2699
MODEL 1
REMARK VINA RESULT:    -4.159      0.000      0.000
REMARK INTER + INTRA:          -4.684
REMARK INTER:                  -4.646
REMARK INTRA:                  -0.038
REMARK UNBOUND:                -0.038
REMARK  Name = No_2699-gen_results/8p0m/2024-11-27-11-27-31/
REMARK  2 active torsions:
REMARK  status: ('A' for Active; 'I' for Inactive)
REMARK    1  A    between atoms: C_1  and  C_2
REMARK    2  A    between atoms: C_3  and  C_4
REMARK                            x       y       z     vdW  Elec       q    Type
REMARK                         _______ _______ _______ _____ _____    ______ ____
ROOT
ATOM      1  C   UNL A   1      -9.013  -9.201  20.203  0.00  0.00    -0.026 C 
ATOM      2  C   UNL A   1      -9.994  -9.432  19.245  0.00  0.00    -0.005 C 
ENDROOT
BRANCH   1   3
ATOM      3  C   UNL A   1      -7.839  -9.226  19.912  0.00  0.00    +0.026 C 
ATOM      4  C   UNL A   1      -7.040  -8.048  19.706  0.00  0.00    +0.005 C 
ENDBRANCH   1   3
BRANCH   2   5
ATOM      5  C   UNL A   1      -9.646  -9.662  17.867  0.00  0.00    -0.000 C 
ATOM      6  C   UNL A   1      -9.454 -10.886  17.302  0.00  0.00    -0.000 C 
ENDBRANCH   2   5
TORSDOF 2
ENDMDL
ENDMDL
