MODEL 26
MODEL 1
REMARK VINA RESULT:    -4.449      0.000      0.000
REMARK INTER + INTRA:          -4.449
REMARK INTER:                  -4.449
REMARK INTRA:                   0.000
REMARK UNBOUND:                 0.000
REMARK  Name = No_26-gen_results/8p0m/2024-11-27-11-27-31/
REMARK  0 active torsions:
REMARK  status: ('A' for Active; 'I' for Inactive)
REMARK                            x       y       z     vdW  Elec       q    Type
REMARK                         _______ _______ _______ _____ _____    ______ ____
ROOT
ATOM      1  C   UNL A   1     -10.273  -9.121  19.401  0.00  0.00    +0.001 A 
ATOM      2  C   UNL A   1      -9.384  -9.191  20.218  0.00  0.00    +0.011 A 
ATOM      3  C   UNL A   1      -8.207  -9.910  20.017  0.00  0.00    +0.058 A 
ATOM      4  C   UNL A   1      -8.044 -10.670  18.792  0.00  0.00    +0.011 A 
ATOM      5  C   UNL A   1      -9.125 -10.548  17.890  0.00  0.00    +0.001 A 
ATOM      6  C   UNL A   1     -10.197  -9.851  18.171  0.00  0.00    +0.000 A 
ATOM      7 CL   UNL A   1      -6.916 -10.039  21.139  0.00  0.00    -0.082 Cl
ENDROOT
TORSDOF 0
ENDMDL
ENDMDL
