REMARK  Name = outputs/IAG933/test6/raw/output_2701_IAG933_linker_design_.xyz
REMARK  14 active torsions:
REMARK  status: ('A' for Active; 'I' for Inactive)
REMARK    1  A    between atoms: C_1  and  C_2
REMARK    2  A    between atoms: C_1  and  C_8
REMARK    3  A    between atoms: C_1  and  C_44
REMARK    4  A    between atoms: C_13  and  C_31
REMARK    5  A    between atoms: C_14  and  C_15
REMARK    6  A    between atoms: C_21  and  O_22
REMARK    7  A    between atoms: O_22  and  C_23
REMARK    8  A    between atoms: C_23  and  C_24
REMARK    9  A    between atoms: P_32  and  N_43
REMARK   10  A    between atoms: C_33  and  C_37
REMARK   11  A    between atoms: O_34  and  C_42
REMARK   12  A    between atoms: O_34  and  C_44
REMARK   13  A    between atoms: C_36  and  C_41
REMARK   14  A    between atoms: C_42  and  N_43
REMARK                            x       y       z     vdW  Elec       q    Type
REMARK                         _______ _______ _______ _____ _____    ______ ____
ROOT
ATOM      1  C   UNL A   1     -24.931  -0.061  28.073  0.00  0.00    +0.032 C 
ATOM      2  C   UNL A   1     -24.544   1.179  27.218  0.00  0.00    +0.033 C 
ATOM      3  C   UNL A   1     -23.377   1.444  27.050  0.00  0.00    +0.074 C 
ATOM      4  C   UNL A   1     -22.894   0.402  29.301  0.00  0.00    +0.030 C 
ATOM      5  C   UNL A   1     -22.455   1.071  28.118  0.00  0.00    +0.041 C 
ATOM      6  C   UNL A   1     -24.375   0.172  29.297  0.00  0.00    +0.100 C 
ENDROOT
BRANCH   2   7
ATOM      7  C   UNL A   1     -25.688   1.614  26.461  0.00  0.00    +0.016 C 
ATOM      8  C   UNL A   1     -26.250   2.920  26.395  0.00  0.00    +0.073 C 
ATOM      9  C   UNL A   1     -27.438   3.091  25.645  0.00  0.00    +0.106 C 
ATOM     10  N   UNL A   1     -28.075   2.089  25.003  0.00  0.00    -0.208 NA
ATOM     11  C   UNL A   1     -27.543   0.849  25.079  0.00  0.00    +0.253 C 
ATOM     12  C   UNL A   1     -26.354   0.576  25.777  0.00  0.00    +0.189 C 
ATOM     13  F   UNL A   1     -25.860  -0.681  25.795  0.00  0.00    -0.200 F 
BRANCH   8  14
ATOM     14  C   UNL A   1     -25.642   4.093  27.123  0.00  0.00    +0.266 C 
ATOM     15  N   UNL A   1     -25.614   5.252  26.449  0.00  0.00    -0.200 NA
ATOM     16  C   UNL A   1     -25.026   6.479  26.963  0.00  0.00    +0.139 C 
ATOM     17  O   UNL A   1     -25.143   3.966  28.243  0.00  0.00    -0.268 OA
ENDBRANCH   8  14
BRANCH  11  18
ATOM     18  O   UNL A   1     -28.193  -0.208  24.477  0.00  0.00    -0.456 OA
BRANCH  18  19
ATOM     19  C   UNL A   1     -29.460   0.005  23.866  0.00  0.00    +0.243 C 
BRANCH  19  20
ATOM     20  C   UNL A   1     -30.065  -1.377  23.573  0.00  0.00    +0.229 C 
ATOM     21  O   UNL A   1     -30.729  -1.878  24.721  0.00  0.00    -0.216 OA
ENDBRANCH  19  20
ENDBRANCH  18  19
ENDBRANCH  11  18
ENDBRANCH   2   7
BRANCH   3  23
ATOM     22  F   UNL A   1     -22.366   2.697  24.963  0.00  0.00    -0.198 F 
ATOM     23  C   UNL A   1     -22.904   1.726  25.748  0.00  0.00    +0.319 C 
ATOM     24  F   UNL A   1     -23.785   1.295  24.775  0.00  0.00    -0.198 F 
ENDBRANCH   3  23
BRANCH   5  25
ATOM     25  C   UNL A   1     -21.249   1.380  27.830  0.00  0.00    +0.182 C 
ATOM     26  O   UNL A   1     -21.153   2.036  26.564  0.00  0.00    -0.220 OA
ENDBRANCH   5  25
BRANCH   6  27
ATOM     27  C   UNL A   1     -24.855  -1.012  30.143  0.00  0.00    +0.063 C 
BRANCH  27  28
ATOM     28  C   UNL A   1     -24.973  -2.505  29.788  0.00  0.00    -0.019 C 
ATOM     29  C   UNL A   1     -23.906  -3.173  29.146  0.00  0.00    -0.004 C 
ATOM     30  C   UNL A   1     -23.989  -4.549  28.853  0.00  0.00    -0.000 C 
ATOM     31  C   UNL A   1     -25.137  -5.280  29.205  0.00  0.00    -0.000 C 
ATOM     32  C   UNL A   1     -26.232  -4.611  29.784  0.00  0.00    -0.000 C 
ATOM     33  C   UNL A   1     -26.155  -3.232  30.065  0.00  0.00    -0.004 C 
ENDBRANCH  27  28
BRANCH  27  34
ATOM     34  C   UNL A   1     -25.387  -0.679  31.571  0.00  0.00    +0.079 C 
ATOM     35  C   UNL A   1     -25.189   0.773  32.028  0.00  0.00    +0.019 C 
ATOM     36  C   UNL A   1     -25.336   0.684  33.544  0.00  0.00    +0.020 C 
ATOM     37  C   UNL A   1     -24.829  -0.715  33.905  0.00  0.00    +0.089 C 
ATOM     38  N   UNL A   1     -24.758  -1.481  32.646  0.00  0.00    -0.219 NA
ENDBRANCH  27  34
ENDBRANCH   6  27
BRANCH   6  39
ATOM     39  O   UNL A   1     -25.022   1.325  29.634  0.00  0.00    -0.341 OA
BRANCH  39  40
ATOM     40  C   UNL A   1     -24.468   2.451  30.253  0.00  0.00    +0.242 C 
BRANCH  40  41
ATOM     41  N   UNL A   1     -25.661   3.139  30.757  0.00  0.00    -0.113 NA
BRANCH  41  43
ATOM     42  C   UNL A   1     -27.254   5.095  32.163  0.00  0.00    +0.118 C 
ATOM     43  P   UNL A   1     -25.603   4.503  31.719  0.00  0.00    +0.329 P 
ATOM     44  O   UNL A   1     -24.787   5.602  31.098  0.00  0.00    -0.269 OA
ATOM     45  O   UNL A   1     -25.085   4.131  33.116  0.00  0.00    -0.150 OA
ENDBRANCH  41  43
ENDBRANCH  40  41
ENDBRANCH  39  40
ENDBRANCH   6  39
TORSDOF 14
