MODEL 2701
MODEL 1
REMARK VINA RESULT:    -4.058      0.000      0.000
REMARK INTER + INTRA:          -5.706
REMARK INTER:                  -5.244
REMARK INTRA:                  -0.463
REMARK UNBOUND:                -0.463
REMARK  Name = No_2701-gen_results/8p0m/2024-11-27-11-27-31/
REMARK  5 active torsions:
REMARK  status: ('A' for Active; 'I' for Inactive)
REMARK    1  A    between atoms: C_1  and  C_2
REMARK    2  A    between atoms: C_1  and  C_3
REMARK    3  A    between atoms: C_2  and  C_6
REMARK    4  A    between atoms: C_3  and  C_4
REMARK    5  A    between atoms: C_5  and  C_8
REMARK                            x       y       z     vdW  Elec       q    Type
REMARK                         _______ _______ _______ _____ _____    ______ ____
ROOT
ATOM      1  C   UNL A   1     -25.294  -1.254  28.601  0.00  0.00    +0.026 C 
ENDROOT
BRANCH   1   2
ATOM      2  C   UNL A   1     -25.024  -2.279  29.523  0.00  0.00    -0.026 C 
ATOM      3  C   UNL A   1     -23.982  -3.155  29.153  0.00  0.00    -0.005 C 
BRANCH   3   4
ATOM      4  C   UNL A   1     -24.211  -4.264  28.568  0.00  0.00    -0.000 C 
ATOM      5  C   UNL A   1     -25.019  -5.241  29.152  0.00  0.00    -0.000 C 
ENDBRANCH   3   4
ENDBRANCH   1   2
BRANCH   1   6
ATOM      6  C   UNL A   1     -24.205  -0.428  27.953  0.00  0.00    +0.005 C 
BRANCH   6   7
ATOM      7  C   UNL A   1     -24.522   0.209  27.175  0.00  0.00    +0.000 C 
BRANCH   7   8
ATOM      8  C   UNL A   1     -25.451  -0.369  26.091  0.00  0.00    +0.000 C 
ATOM      9  C   UNL A   1     -25.333  -0.104  24.777  0.00  0.00    +0.000 C 
ENDBRANCH   7   8
ENDBRANCH   6   7
ENDBRANCH   1   6
TORSDOF 5
ENDMDL
ENDMDL
