MODEL 2702
MODEL 1
REMARK VINA RESULT:    -6.528      0.000      0.000
REMARK INTER + INTRA:          -7.509
REMARK INTER:                  -7.291
REMARK INTRA:                  -0.218
REMARK UNBOUND:                -0.218
REMARK  Name = No_2702-gen_results/8p0m/2024-11-27-11-27-31/
REMARK  2 active torsions:
REMARK  status: ('A' for Active; 'I' for Inactive)
REMARK    1  A    between atoms: C_3  and  C_14
REMARK    2  A    between atoms: C_5  and  C_11
REMARK                            x       y       z     vdW  Elec       q    Type
REMARK                         _______ _______ _______ _____ _____    ______ ____
ROOT
ATOM      1  C   UNL A   1     -30.712  -9.498  29.624  0.00  0.00    +0.000 A 
ATOM      2  C   UNL A   1     -30.011 -10.128  30.383  0.00  0.00    +0.004 A 
ATOM      3  C   UNL A   1     -29.758  -9.789  31.701  0.00  0.00    +0.055 A 
ATOM      4  C   UNL A   1     -28.864 -10.476  32.603  0.00  0.00    +0.009 A 
ATOM      5  C   UNL A   1     -28.167 -11.612  32.129  0.00  0.00    +0.057 A 
ATOM      6  C   UNL A   1     -28.384 -12.015  30.786  0.00  0.00    +0.005 A 
ATOM      7  C   UNL A   1     -29.225 -11.285  30.004  0.00  0.00    +0.000 A 
ATOM      8  C   UNL A   1     -31.010 -10.040  28.260  0.00  0.00    +0.000 A 
ATOM      9  C   UNL A   1     -30.180 -11.079  27.749  0.00  0.00    +0.000 A 
ATOM     10  C   UNL A   1     -29.377 -11.760  28.607  0.00  0.00    +0.000 A 
ENDROOT
BRANCH   3  11
ATOM     11  C   UNL A   1     -30.367  -8.571  32.294  0.00  0.00    +0.265 C 
ATOM     12  N   UNL A   1     -29.797  -7.513  32.383  0.00  0.00    -0.200 NA
ATOM     13  O   UNL A   1     -31.530  -8.660  32.862  0.00  0.00    -0.268 OA
ATOM     14  C   UNL A   1     -30.262  -6.286  32.986  0.00  0.00    +0.139 C 
ENDBRANCH   3  11
BRANCH   5  15
ATOM     15  C   UNL A   1     -27.265 -12.374  33.022  0.00  0.00    +0.284 C 
ATOM     16  N   UNL A   1     -27.467 -12.265  34.358  0.00  0.00    -0.084 NA
ATOM     17  O   UNL A   1     -26.416 -13.134  32.555  0.00  0.00    -0.267 OA
ENDBRANCH   5  15
TORSDOF 2
ENDMDL
ENDMDL
