REMARK  Name = outputs/IAG933/test6/raw/output_2702_IAG933_linker_design_.xyz
REMARK  15 active torsions:
REMARK  status: ('A' for Active; 'I' for Inactive)
REMARK    1  A    between atoms: C_1  and  C_2
REMARK    2  A    between atoms: C_1  and  C_8
REMARK    3  A    between atoms: C_1  and  C_35
REMARK    4  A    between atoms: C_13  and  C_29
REMARK    5  A    between atoms: C_14  and  C_15
REMARK    6  A    between atoms: C_21  and  O_22
REMARK    7  A    between atoms: O_22  and  C_23
REMARK    8  A    between atoms: C_23  and  C_24
REMARK    9  A    between atoms: N_28  and  C_36
REMARK   10  A    between atoms: C_29  and  C_33
REMARK   11  A    between atoms: C_29  and  C_38
REMARK   12  A    between atoms: C_32  and  C_38
REMARK   13  A    between atoms: C_33  and  C_35
REMARK   14  A    between atoms: C_33  and  C_41
REMARK   15  A    between atoms: C_36  and  C_39
REMARK                            x       y       z     vdW  Elec       q    Type
REMARK                         _______ _______ _______ _____ _____    ______ ____
ROOT
ATOM      1  C   UNL A   1     -24.729   1.181  28.713  0.00  0.00    +0.140 C 
ENDROOT
BRANCH   1   4
ATOM      2  N   UNL A   1     -24.971   3.085  30.724  0.00  0.00    -0.195 NA
ATOM      3  O   UNL A   1     -22.976   2.313  30.117  0.00  0.00    -0.273 OA
ATOM      4  C   UNL A   1     -24.181   2.180  29.887  0.00  0.00    +0.249 C 
BRANCH   2   5
ATOM      5  C   UNL A   1     -24.580   3.947  31.922  0.00  0.00    +0.203 C 
BRANCH   5   7
ATOM      6  O   UNL A   1     -26.613   5.202  31.978  0.00  0.00    -0.270 OA
ATOM      7  C   UNL A   1     -25.837   4.502  32.622  0.00  0.00    +0.283 C 
ATOM      8  N   UNL A   1     -25.945   4.279  33.919  0.00  0.00    -0.086 NA
ENDBRANCH   5   7
ENDBRANCH   2   5
ENDBRANCH   1   4
BRANCH   1  10
ATOM      9  O   UNL A   1     -26.636  -0.325  28.746  0.00  0.00    -0.295 OA
ATOM     10  C   UNL A   1     -25.473   0.001  29.146  0.00  0.00    +0.164 C 
BRANCH  10  11
ATOM     11  C   UNL A   1     -24.855  -1.012  30.143  0.00  0.00    +0.096 C 
BRANCH  11  12
ATOM     12  C   UNL A   1     -24.973  -2.505  29.788  0.00  0.00    -0.014 C 
ATOM     13  C   UNL A   1     -23.906  -3.173  29.146  0.00  0.00    -0.004 C 
ATOM     14  C   UNL A   1     -23.989  -4.549  28.853  0.00  0.00    -0.000 C 
ATOM     15  C   UNL A   1     -25.137  -5.280  29.205  0.00  0.00    -0.000 C 
ATOM     16  C   UNL A   1     -26.232  -4.611  29.784  0.00  0.00    -0.000 C 
ATOM     17  C   UNL A   1     -26.155  -3.232  30.065  0.00  0.00    -0.004 C 
ENDBRANCH  11  12
BRANCH  11  18
ATOM     18  C   UNL A   1     -25.387  -0.679  31.571  0.00  0.00    +0.084 C 
ATOM     19  C   UNL A   1     -25.189   0.773  32.028  0.00  0.00    +0.020 C 
ATOM     20  C   UNL A   1     -25.336   0.684  33.544  0.00  0.00    +0.020 C 
ATOM     21  C   UNL A   1     -24.829  -0.715  33.905  0.00  0.00    +0.089 C 
ATOM     22  N   UNL A   1     -24.758  -1.481  32.646  0.00  0.00    -0.219 NA
ENDBRANCH  11  18
ENDBRANCH  10  11
ENDBRANCH   1  10
BRANCH   1  23
ATOM     23  C   UNL A   1     -24.538   1.413  27.315  0.00  0.00    +0.045 C 
BRANCH  23  24
ATOM     24  C   UNL A   1     -25.688   1.614  26.461  0.00  0.00    +0.017 C 
ATOM     25  C   UNL A   1     -26.250   2.920  26.395  0.00  0.00    +0.073 C 
ATOM     26  C   UNL A   1     -27.438   3.091  25.645  0.00  0.00    +0.106 C 
ATOM     27  N   UNL A   1     -28.075   2.089  25.003  0.00  0.00    -0.208 NA
ATOM     28  C   UNL A   1     -27.543   0.849  25.079  0.00  0.00    +0.253 C 
ATOM     29  C   UNL A   1     -26.354   0.576  25.777  0.00  0.00    +0.189 C 
ATOM     30  F   UNL A   1     -25.860  -0.681  25.795  0.00  0.00    -0.200 F 
BRANCH  25  31
ATOM     31  C   UNL A   1     -25.642   4.093  27.123  0.00  0.00    +0.266 C 
ATOM     32  N   UNL A   1     -25.614   5.252  26.449  0.00  0.00    -0.200 NA
ATOM     33  C   UNL A   1     -25.026   6.479  26.963  0.00  0.00    +0.139 C 
ATOM     34  O   UNL A   1     -25.143   3.966  28.243  0.00  0.00    -0.268 OA
ENDBRANCH  25  31
BRANCH  28  35
ATOM     35  O   UNL A   1     -28.193  -0.208  24.477  0.00  0.00    -0.456 OA
BRANCH  35  36
ATOM     36  C   UNL A   1     -29.460   0.005  23.866  0.00  0.00    +0.243 C 
BRANCH  36  37
ATOM     37  C   UNL A   1     -30.065  -1.377  23.573  0.00  0.00    +0.229 C 
ATOM     38  O   UNL A   1     -30.729  -1.878  24.721  0.00  0.00    -0.216 OA
ENDBRANCH  36  37
ENDBRANCH  35  36
ENDBRANCH  28  35
ENDBRANCH  23  24
BRANCH  23  40
ATOM     39  C   UNL A   1     -23.032   2.107  25.375  0.00  0.00    +0.005 C 
ATOM     40  C   UNL A   1     -23.281   1.593  26.778  0.00  0.00    +0.027 C 
BRANCH  40  41
ATOM     41  C   UNL A   1     -22.073   1.031  27.176  0.00  0.00    -0.026 C 
ATOM     42  C   UNL A   1     -20.916   1.606  27.642  0.00  0.00    -0.005 C 
ENDBRANCH  40  41
ENDBRANCH  23  40
ENDBRANCH   1  23
TORSDOF 15
