MODEL 2703
MODEL 1
REMARK VINA RESULT:    -7.295      0.000      0.000
REMARK INTER + INTRA:          -9.136
REMARK INTER:                  -8.575
REMARK INTRA:                  -0.561
REMARK UNBOUND:                -0.561
REMARK  Name = No_2703-gen_results/8p0m/2024-11-27-11-27-31/
REMARK  3 active torsions:
REMARK  status: ('A' for Active; 'I' for Inactive)
REMARK    1  A    between atoms: C_1  and  C_2
REMARK    2  A    between atoms: C_1  and  N_8
REMARK    3  A    between atoms: C_5  and  C_9
REMARK                            x       y       z     vdW  Elec       q    Type
REMARK                         _______ _______ _______ _____ _____    ______ ____
ROOT
ATOM      1  C   UNL A   1     -24.449  -0.568  28.553  0.00  0.00    -0.006 A 
ATOM      2  C   UNL A   1     -25.138  -0.272  27.489  0.00  0.00    -0.003 A 
ATOM      3  C   UNL A   1     -24.723   0.650  26.403  0.00  0.00    +0.004 A 
ATOM      4  C   UNL A   1     -23.469   1.303  26.572  0.00  0.00    +0.071 A 
ATOM      5  C   UNL A   1     -22.767   1.039  27.720  0.00  0.00    +0.004 A 
ATOM      6  C   UNL A   1     -23.188   0.202  28.697  0.00  0.00    -0.003 A 
ENDROOT
BRANCH   4   7
ATOM      7  C   UNL A   1     -22.973   2.218  25.590  0.00  0.00    +0.419 C 
ATOM      8  F   UNL A   1     -23.387   3.264  25.524  0.00  0.00    -0.166 F 
ATOM      9  F   UNL A   1     -23.073   1.615  24.257  0.00  0.00    -0.166 F 
ATOM     10  F   UNL A   1     -21.542   2.292  25.654  0.00  0.00    -0.166 F 
ENDBRANCH   4   7
BRANCH   1  11
ATOM     11  C   UNL A   1     -24.760  -1.309  29.457  0.00  0.00    +0.101 C 
BRANCH  11  12
ATOM     12  N   UNL A   1     -25.022  -2.522  29.135  0.00  0.00    -0.242 NA
ATOM     13  C   UNL A   1     -25.960  -3.226  29.761  0.00  0.00    +0.222 C 
ATOM     14  C   UNL A   1     -26.139  -4.603  29.573  0.00  0.00    +0.053 C 
ATOM     15  F   UNL A   1     -27.093  -2.632  30.074  0.00  0.00    -0.219 F 
ATOM     16  C   UNL A   1     -25.264  -5.295  29.246  0.00  0.00    +0.006 C 
ATOM     17  C   UNL A   1     -24.079  -4.684  28.626  0.00  0.00    +0.018 C 
ATOM     18  C   UNL A   1     -23.906  -3.293  28.733  0.00  0.00    +0.075 C 
ENDBRANCH  11  12
ENDBRANCH   1  11
TORSDOF 3
ENDMDL
ENDMDL
