REMARK  Name = No_2704-gen_results/8p0m/2024-11-27-11-27-31/
REMARK  5 active torsions:
REMARK  status: ('A' for Active; 'I' for Inactive)
REMARK    1  A    between atoms: C_2  and  C_3
REMARK    2  A    between atoms: C_3  and  C_6
REMARK    3  A    between atoms: C_3  and  N_8
REMARK    4  A    between atoms: N_7  and  C_10
REMARK    5  A    between atoms: N_8  and  C_9
REMARK                            x       y       z     vdW  Elec       q    Type
REMARK                         _______ _______ _______ _____ _____    ______ ____
ROOT
ATOM      1  C   UNL A   1     -29.698   0.051  28.976  0.00  0.00    +0.211 C 
ENDROOT
BRANCH   1   3
ATOM      2  O   UNL A   1     -28.123  -1.335  28.487  0.00  0.00    -0.271 OA
ATOM      3  C   UNL A   1     -28.521  -0.436  29.078  0.00  0.00    +0.267 C 
ATOM      4  N   UNL A   1     -27.706  -0.022  30.163  0.00  0.00    -0.202 NA
ATOM      5  C   UNL A   1     -26.395  -0.354  30.365  0.00  0.00    +0.139 C 
ENDBRANCH   1   3
BRANCH   1   6
ATOM      6  C   UNL A   1     -29.815   1.454  28.619  0.00  0.00    +0.103 C 
ATOM      7  N   UNL A   1     -30.798   1.957  28.478  0.00  0.00    -0.245 NA
BRANCH   7   8
ATOM      8  C   UNL A   1     -31.983   1.664  28.625  0.00  0.00    +0.099 C 
ATOM      9  C   UNL A   1     -32.933   1.964  27.823  0.00  0.00    +0.022 C 
ENDBRANCH   7   8
ENDBRANCH   1   6
BRANCH   1  10
ATOM     10  N   UNL A   1     -30.602  -0.288  30.105  0.00  0.00    -0.223 NA
BRANCH  10  11
ATOM     11  C   UNL A   1     -30.816  -1.448  30.458  0.00  0.00    +0.081 C 
ATOM     12  C   UNL A   1     -31.492  -1.628  31.651  0.00  0.00    +0.019 C 
ENDBRANCH  10  11
ENDBRANCH   1  10
TORSDOF 5
