MODEL 2704
MODEL 1
REMARK VINA RESULT:    -4.219      0.000      0.000
REMARK INTER + INTRA:          -5.948
REMARK INTER:                  -5.452
REMARK INTRA:                  -0.496
REMARK UNBOUND:                -0.496
REMARK  Name = No_2704-gen_results/8p0m/2024-11-27-11-27-31/
REMARK  5 active torsions:
REMARK  status: ('A' for Active; 'I' for Inactive)
REMARK    1  A    between atoms: C_2  and  C_3
REMARK    2  A    between atoms: C_3  and  C_6
REMARK    3  A    between atoms: C_3  and  N_8
REMARK    4  A    between atoms: N_7  and  C_10
REMARK    5  A    between atoms: N_8  and  C_9
REMARK                            x       y       z     vdW  Elec       q    Type
REMARK                         _______ _______ _______ _____ _____    ______ ____
ROOT
ATOM      1  C   UNL A   1     -12.634 -20.696  18.018  0.00  0.00    +0.211 C 
ENDROOT
BRANCH   1   3
ATOM      2  O   UNL A   1     -13.768 -19.869  19.652  0.00  0.00    -0.271 OA
ATOM      3  C   UNL A   1     -12.982 -20.598  19.243  0.00  0.00    +0.267 C 
ATOM      4  N   UNL A   1     -12.189 -21.240  20.229  0.00  0.00    -0.202 NA
ATOM      5  C   UNL A   1     -12.470 -21.330  21.564  0.00  0.00    +0.139 C 
ENDBRANCH   1   3
BRANCH   1   6
ATOM      6  C   UNL A   1     -12.599 -19.476  17.230  0.00  0.00    +0.103 C 
ATOM      7  N   UNL A   1     -11.668 -19.096  16.754  0.00  0.00    -0.245 NA
BRANCH   7   8
ATOM      8  C   UNL A   1     -10.512 -19.489  16.609  0.00  0.00    +0.099 C 
ATOM      9  C   UNL A   1      -9.897 -19.612  15.494  0.00  0.00    +0.022 C 
ENDBRANCH   7   8
ENDBRANCH   1   6
BRANCH   1  10
ATOM     10  N   UNL A   1     -13.310 -21.790  17.274  0.00  0.00    -0.223 NA
BRANCH  10  11
ATOM     11  C   UNL A   1     -12.835 -22.922  17.183  0.00  0.00    +0.081 C 
ATOM     12  C   UNL A   1     -11.510 -23.019  16.800  0.00  0.00    +0.019 C 
ENDBRANCH  10  11
ENDBRANCH   1  10
TORSDOF 5
ENDMDL
ENDMDL
