MODEL 2705
MODEL 1
REMARK VINA RESULT:    -6.204      0.000      0.000
REMARK INTER + INTRA:          -7.176
REMARK INTER:                  -6.929
REMARK INTRA:                  -0.247
REMARK UNBOUND:                -0.247
REMARK  Name = No_2705-gen_results/8p0m/2024-11-27-11-27-31/
REMARK  2 active torsions:
REMARK  status: ('A' for Active; 'I' for Inactive)
REMARK    1  A    between atoms: C_2  and  C_7
REMARK    2  A    between atoms: C_7  and  C_8
REMARK                            x       y       z     vdW  Elec       q    Type
REMARK                         _______ _______ _______ _____ _____    ______ ____
ROOT
ATOM      1  C   UNL A   1     -24.305  -1.290  29.695  0.00  0.00    +0.072 C 
ENDROOT
BRANCH   1   3
ATOM      2  C   UNL A   1     -23.808  -3.477  28.839  0.00  0.00    +0.015 A 
ATOM      3  C   UNL A   1     -24.568  -2.743  29.427  0.00  0.00    +0.063 A 
ATOM      4  N   UNL A   1     -25.756  -3.125  29.917  0.00  0.00    -0.248 NA
ATOM      5  C   UNL A   1     -26.152  -4.454  29.720  0.00  0.00    +0.099 A 
ATOM      6  C   UNL A   1     -25.321  -5.290  29.029  0.00  0.00    +0.021 A 
ATOM      7  C   UNL A   1     -24.178  -4.840  28.578  0.00  0.00    +0.003 A 
ENDBRANCH   1   3
BRANCH   1   8
ATOM      8  C   UNL A   1     -23.409  -0.624  29.045  0.00  0.00    -0.016 A 
ATOM      9  C   UNL A   1     -22.115  -0.499  29.314  0.00  0.00    -0.004 A 
ATOM     10  C   UNL A   1     -21.096   0.242  28.556  0.00  0.00    -0.000 A 
ATOM     11  C   UNL A   1     -21.603   1.153  27.655  0.00  0.00    -0.000 A 
ATOM     12  C   UNL A   1     -22.948   1.249  27.453  0.00  0.00    -0.000 A 
ATOM     13  C   UNL A   1     -23.868   0.425  28.097  0.00  0.00    -0.004 A 
ENDBRANCH   1   8
TORSDOF 2
ENDMDL
ENDMDL
