REMARK  Name = No_2706-gen_results/8p0m/2024-11-27-11-27-31/
REMARK  7 active torsions:
REMARK  status: ('A' for Active; 'I' for Inactive)
REMARK    1  A    between atoms: C_4  and  C_5
REMARK    2  A    between atoms: C_5  and  N_8
REMARK    3  A    between atoms: N_8  and  C_10
REMARK    4  A    between atoms: C_10  and  C_12
REMARK    5  A    between atoms: C_17  and  O_20
REMARK    6  A    between atoms: O_20  and  C_21
REMARK    7  A    between atoms: C_25  and  C_27
REMARK                            x       y       z     vdW  Elec       q    Type
REMARK                         _______ _______ _______ _____ _____    ______ ____
ROOT
ATOM      1  C   UNL A   1     -21.815   0.346  28.971  0.00  0.00    +0.182 C 
ATOM      2  C   UNL A   1     -21.067   0.315  27.729  0.00  0.00    +0.045 C 
ATOM      3  C   UNL A   1     -21.516   1.518  27.209  0.00  0.00    +0.012 C 
ATOM      4  C   UNL A   1     -22.949   1.806  27.102  0.00  0.00    +0.068 C 
ATOM      5  C   UNL A   1     -23.581   2.353  28.274  0.00  0.00    +0.160 C 
ATOM      6  C   UNL A   1     -23.656   1.709  29.545  0.00  0.00    +0.205 C 
ATOM      7  O   UNL A   1     -22.328   1.360  29.616  0.00  0.00    -0.472 OA
ENDROOT
BRANCH   1   8
ATOM      8  C   UNL A   1     -22.381  -0.979  29.297  0.00  0.00    +0.116 C 
BRANCH   8   9
ATOM      9  N   UNL A   1     -23.236  -1.108  30.449  0.00  0.00    -0.265 NA
ATOM     10  C   UNL A   1     -23.132  -0.069  31.352  0.00  0.00    +0.090 C 
BRANCH   9  11
ATOM     11  C   UNL A   1     -24.324  -1.908  30.432  0.00  0.00    +0.099 C 
BRANCH  11  15
ATOM     12  C   UNL A   1     -28.016  -0.814  28.878  0.00  0.00    +0.059 A 
ATOM     13  C   UNL A   1     -27.064  -0.119  28.608  0.00  0.00    +0.142 A 
ATOM     14  C   UNL A   1     -25.765  -0.390  29.036  0.00  0.00    +0.027 A 
ATOM     15  C   UNL A   1     -25.530  -1.530  29.901  0.00  0.00    -0.002 A 
ATOM     16  C   UNL A   1     -27.927  -1.923  29.790  0.00  0.00    +0.142 A 
ATOM     17  C   UNL A   1     -26.691  -2.281  30.295  0.00  0.00    +0.027 A 
ATOM     18  F   UNL A   1     -27.137   0.945  27.756  0.00  0.00    -0.204 F 
ATOM     19  F   UNL A   1     -29.073  -2.482  30.173  0.00  0.00    -0.204 F 
ENDBRANCH  11  15
ENDBRANCH   9  11
ENDBRANCH   8   9
ENDBRANCH   1   8
BRANCH   5  20
ATOM     20  O   UNL A   1     -24.962   2.919  27.871  0.00  0.00    -0.455 OA
BRANCH  20  21
ATOM     21  C   UNL A   1     -25.459   3.940  28.549  0.00  0.00    +0.145 A 
ATOM     22  C   UNL A   1     -26.028   4.811  27.869  0.00  0.00    +0.037 A 
ATOM     23  C   UNL A   1     -26.636   5.994  28.499  0.00  0.00    +0.003 A 
ATOM     24  C   UNL A   1     -26.630   6.069  29.912  0.00  0.00    +0.007 A 
ATOM     25  C   UNL A   1     -25.985   5.043  30.610  0.00  0.00    +0.083 A 
ATOM     26  C   UNL A   1     -25.424   4.003  29.991  0.00  0.00    +0.044 A 
BRANCH  25  27
ATOM     27  C   UNL A   1     -25.975   5.103  32.124  0.00  0.00    +0.388 C 
ATOM     28  O   UNL A   1     -25.149   5.686  32.668  0.00  0.00    -0.241 OA
ATOM     29  O   UNL A   1     -26.892   4.363  32.723  0.00  0.00    -0.241 OA
ENDBRANCH  25  27
ENDBRANCH  20  21
ENDBRANCH   5  20
TORSDOF 7
