REMARK  Name = outputs/IAG933/test6/raw/output_2707_IAG933_linker_design_.xyz
REMARK  11 active torsions:
REMARK  status: ('A' for Active; 'I' for Inactive)
REMARK    1  A    between atoms: C_1  and  C_2
REMARK    2  A    between atoms: C_1  and  C_8
REMARK    3  A    between atoms: C_1  and  C_39
REMARK    4  A    between atoms: C_13  and  C_34
REMARK    5  A    between atoms: C_14  and  C_15
REMARK    6  A    between atoms: C_21  and  O_22
REMARK    7  A    between atoms: O_22  and  C_23
REMARK    8  A    between atoms: C_23  and  C_24
REMARK    9  A    between atoms: C_29  and  N_43
REMARK   10  A    between atoms: C_31  and  C_39
REMARK   11  A    between atoms: C_39  and  N_43
REMARK                            x       y       z     vdW  Elec       q    Type
REMARK                         _______ _______ _______ _____ _____    ______ ____
ROOT
ATOM      1  C   UNL A   1     -25.428  -0.142  29.079  0.00  0.00    +0.118 C 
ENDROOT
BRANCH   1   2
ATOM      2  C   UNL A   1     -24.349   0.599  28.422  0.00  0.00    +0.076 C 
ATOM      3 CL   UNL A   1     -23.168   2.641  25.149  0.00  0.00    -0.082 Cl
ATOM      4  C   UNL A   1     -21.989   0.880  28.492  0.00  0.00    +0.099 C 
ATOM      5  C   UNL A   1     -24.453   1.346  27.216  0.00  0.00    +0.028 C 
ATOM      6  C   UNL A   1     -23.220   1.760  26.728  0.00  0.00    +0.060 C 
ATOM      7  N   UNL A   1     -23.124   0.405  29.018  0.00  0.00    -0.247 NA
ATOM      8  C   UNL A   1     -22.034   1.531  27.317  0.00  0.00    +0.032 C 
BRANCH   5   9
ATOM      9  C   UNL A   1     -25.688   1.614  26.461  0.00  0.00    +0.040 C 
ATOM     10  C   UNL A   1     -26.250   2.920  26.395  0.00  0.00    +0.077 C 
ATOM     11  C   UNL A   1     -27.438   3.091  25.645  0.00  0.00    +0.107 C 
ATOM     12  N   UNL A   1     -28.075   2.089  25.003  0.00  0.00    -0.208 NA
ATOM     13  C   UNL A   1     -27.543   0.849  25.079  0.00  0.00    +0.253 C 
ATOM     14  C   UNL A   1     -26.354   0.576  25.777  0.00  0.00    +0.193 C 
ATOM     15  F   UNL A   1     -25.860  -0.681  25.795  0.00  0.00    -0.199 F 
BRANCH  10  16
ATOM     16  C   UNL A   1     -25.642   4.093  27.123  0.00  0.00    +0.266 C 
ATOM     17  N   UNL A   1     -25.614   5.252  26.449  0.00  0.00    -0.200 NA
ATOM     18  C   UNL A   1     -25.026   6.479  26.963  0.00  0.00    +0.139 C 
ATOM     19  O   UNL A   1     -25.143   3.966  28.243  0.00  0.00    -0.268 OA
ENDBRANCH  10  16
BRANCH  13  20
ATOM     20  O   UNL A   1     -28.193  -0.208  24.477  0.00  0.00    -0.456 OA
BRANCH  20  21
ATOM     21  C   UNL A   1     -29.460   0.005  23.866  0.00  0.00    +0.243 C 
BRANCH  21  22
ATOM     22  C   UNL A   1     -30.065  -1.377  23.573  0.00  0.00    +0.229 C 
ATOM     23  O   UNL A   1     -30.729  -1.878  24.721  0.00  0.00    -0.216 OA
ENDBRANCH  21  22
ENDBRANCH  20  21
ENDBRANCH  13  20
ENDBRANCH   5   9
ENDBRANCH   1   2
BRANCH   1  24
ATOM     24  C   UNL A   1     -24.855  -1.012  30.143  0.00  0.00    +0.060 C 
BRANCH  24  25
ATOM     25  C   UNL A   1     -24.973  -2.505  29.788  0.00  0.00    -0.019 C 
ATOM     26  C   UNL A   1     -23.906  -3.173  29.146  0.00  0.00    -0.004 C 
ATOM     27  C   UNL A   1     -23.989  -4.549  28.853  0.00  0.00    -0.000 C 
ATOM     28  C   UNL A   1     -25.137  -5.280  29.205  0.00  0.00    -0.000 C 
ATOM     29  C   UNL A   1     -26.232  -4.611  29.784  0.00  0.00    -0.000 C 
ATOM     30  C   UNL A   1     -26.155  -3.232  30.065  0.00  0.00    -0.004 C 
ENDBRANCH  24  25
BRANCH  24  31
ATOM     31  C   UNL A   1     -25.387  -0.679  31.571  0.00  0.00    +0.079 C 
ATOM     32  C   UNL A   1     -25.189   0.773  32.028  0.00  0.00    +0.019 C 
ATOM     33  C   UNL A   1     -25.336   0.684  33.544  0.00  0.00    +0.020 C 
ATOM     34  C   UNL A   1     -24.829  -0.715  33.905  0.00  0.00    +0.089 C 
ATOM     35  N   UNL A   1     -24.758  -1.481  32.646  0.00  0.00    -0.219 NA
ENDBRANCH  24  31
ENDBRANCH   1  24
BRANCH   1  36
ATOM     36  N   UNL A   1     -26.782  -0.155  28.872  0.00  0.00    -0.214 NA
BRANCH  36  38
ATOM     37  C   UNL A   1     -28.696   2.904  29.663  0.00  0.00    +0.056 C 
ATOM     38  C   UNL A   1     -27.745   0.717  29.162  0.00  0.00    +0.077 C 
ATOM     39  N   UNL A   1     -30.792   2.974  28.492  0.00  0.00    -0.257 N 
ATOM     40  C   UNL A   1     -32.007   2.987  27.647  0.00  0.00    +0.117 C 
ATOM     41  C   UNL A   1     -30.099   4.137  28.394  0.00  0.00    +0.227 C 
ATOM     42  O   UNL A   1     -29.663   1.335  27.211  0.00  0.00    -0.205 OA
ATOM     43  C   UNL A   1     -28.900   4.235  29.301  0.00  0.00    +0.089 C 
ATOM     44  C   UNL A   1     -29.706   1.947  28.710  0.00  0.00    +0.190 C 
ATOM     45  O   UNL A   1     -30.192   4.854  27.359  0.00  0.00    -0.275 OA
ATOM     46  C   UNL A   1     -27.361   2.174  29.492  0.00  0.00    +0.022 C 
ATOM     47  C   UNL A   1     -29.225   0.527  29.322  0.00  0.00    +0.067 C 
ENDBRANCH  36  38
ENDBRANCH   1  36
TORSDOF 11
