MODEL 2707
MODEL 1
REMARK VINA RESULT:    -6.347      0.000      0.000
REMARK INTER + INTRA:          -6.347
REMARK INTER:                  -6.347
REMARK INTRA:                   0.000
REMARK UNBOUND:                 0.000
REMARK  Name = No_2707-gen_results/8p0m/2024-11-27-11-27-31/
REMARK  0 active torsions:
REMARK  status: ('A' for Active; 'I' for Inactive)
REMARK                            x       y       z     vdW  Elec       q    Type
REMARK                         _______ _______ _______ _____ _____    ______ ____
ROOT
ATOM      1  C   UNL A   1     -24.379   0.740  30.440  0.00  0.00    +0.018 A 
ATOM      2  C   UNL A   1     -24.863  -0.354  30.259  0.00  0.00    -0.004 A 
ATOM      3  C   UNL A   1     -26.059  -0.795  30.798  0.00  0.00    +0.106 C 
ATOM      4  C   UNL A   1     -26.619  -2.119  30.666  0.00  0.00    +0.047 C 
ATOM      5  C   UNL A   1     -25.906  -3.083  29.914  0.00  0.00    -0.021 A 
ATOM      6  C   UNL A   1     -26.342  -4.418  29.745  0.00  0.00    -0.004 A 
ATOM      7  C   UNL A   1     -25.517  -5.288  29.038  0.00  0.00    -0.000 A 
ATOM      8  C   UNL A   1     -24.215  -4.874  28.656  0.00  0.00    -0.000 A 
ATOM      9  C   UNL A   1     -23.765  -3.594  28.813  0.00  0.00    -0.000 A 
ATOM     10  C   UNL A   1     -24.576  -2.690  29.477  0.00  0.00    -0.003 A 
ATOM     11  C   UNL A   1     -24.099  -1.437  29.622  0.00  0.00    +0.016 A 
ATOM     12  C   UNL A   1     -23.115   1.140  29.727  0.00  0.00    +0.099 A 
ATOM     13  N   UNL A   1     -22.340   0.185  29.205  0.00  0.00    -0.242 NA
ATOM     14  C   UNL A   1     -22.814  -1.013  29.080  0.00  0.00    +0.099 A 
ATOM     15 CL   UNL A   1     -27.006   0.328  31.695  0.00  0.00    -0.110 Cl
ENDROOT
TORSDOF 0
ENDMDL
ENDMDL
