REMARK  Name = No_2708-gen_results/8p0m/2024-11-27-11-27-31/
REMARK  3 active torsions:
REMARK  status: ('A' for Active; 'I' for Inactive)
REMARK    1  A    between atoms: C_2  and  O_7
REMARK    2  A    between atoms: O_7  and  C_8
REMARK    3  A    between atoms: C_10  and  C_11
REMARK                            x       y       z     vdW  Elec       q    Type
REMARK                         _______ _______ _______ _____ _____    ______ ____
ROOT
ATOM      1  C   UNL A   1     -27.712   1.737  27.478  0.00  0.00    +0.150 A 
ATOM      2  C   UNL A   1     -28.015   2.654  27.853  0.00  0.00    +0.038 A 
ATOM      3  C   UNL A   1     -28.146   1.343  26.075  0.00  0.00    +0.089 A 
ATOM      4  C   UNL A   1     -29.077   3.530  27.343  0.00  0.00    +0.003 A 
ATOM      5  C   UNL A   1     -29.525   3.241  26.023  0.00  0.00    +0.000 A 
ATOM      6  C   UNL A   1     -29.050   2.143  25.378  0.00  0.00    +0.008 A 
ENDROOT
BRANCH   3   7
ATOM      7  C   UNL A   1     -27.692   0.173  25.433  0.00  0.00    +0.268 C 
ATOM      8  O   UNL A   1     -26.487  -0.249  25.545  0.00  0.00    -0.268 OA
ATOM      9  N   UNL A   1     -28.574  -0.629  24.826  0.00  0.00    -0.200 NA
ATOM     10  C   UNL A   1     -29.908  -0.329  24.671  0.00  0.00    +0.139 C 
ENDBRANCH   3   7
BRANCH   1  11
ATOM     11  O   UNL A   1     -26.888   0.991  27.795  0.00  0.00    -0.453 OA
BRANCH  11  13
ATOM     12  C   UNL A   1     -28.016  -0.814  28.878  0.00  0.00    +0.037 A 
ATOM     13  C   UNL A   1     -27.064  -0.119  28.608  0.00  0.00    +0.145 A 
ATOM     14  C   UNL A   1     -25.792  -0.430  29.076  0.00  0.00    +0.037 A 
ATOM     15  C   UNL A   1     -25.576  -1.565  29.936  0.00  0.00    +0.003 A 
ATOM     16  C   UNL A   1     -26.735  -2.300  30.217  0.00  0.00    +0.000 A 
ATOM     17  C   UNL A   1     -27.918  -1.954  29.763  0.00  0.00    +0.003 A 
ENDBRANCH  11  13
ENDBRANCH   1  11
TORSDOF 3
