MODEL 2708
MODEL 1
REMARK VINA RESULT:    -7.029      0.000      0.000
REMARK INTER + INTRA:          -8.769
REMARK INTER:                  -8.262
REMARK INTRA:                  -0.507
REMARK UNBOUND:                -0.507
REMARK  Name = No_2708-gen_results/8p0m/2024-11-27-11-27-31/
REMARK  3 active torsions:
REMARK  status: ('A' for Active; 'I' for Inactive)
REMARK    1  A    between atoms: C_2  and  O_7
REMARK    2  A    between atoms: O_7  and  C_8
REMARK    3  A    between atoms: C_10  and  C_11
REMARK                            x       y       z     vdW  Elec       q    Type
REMARK                         _______ _______ _______ _____ _____    ______ ____
ROOT
ATOM      1  C   UNL A   1     -24.719  -0.591  27.984  0.00  0.00    +0.150 A 
ATOM      2  C   UNL A   1     -25.328  -0.293  27.201  0.00  0.00    +0.038 A 
ATOM      3  C   UNL A   1     -23.449   0.198  28.262  0.00  0.00    +0.089 A 
ATOM      4  C   UNL A   1     -24.997   0.618  26.097  0.00  0.00    +0.003 A 
ATOM      5  C   UNL A   1     -23.832   1.412  26.290  0.00  0.00    +0.000 A 
ATOM      6  C   UNL A   1     -23.054   1.208  27.386  0.00  0.00    +0.008 A 
ENDROOT
BRANCH   3   7
ATOM      7  C   UNL A   1     -22.617  -0.056  29.371  0.00  0.00    +0.268 C 
ATOM      8  O   UNL A   1     -21.573  -0.794  29.292  0.00  0.00    -0.268 OA
ATOM      9  N   UNL A   1     -22.809   0.625  30.507  0.00  0.00    -0.200 NA
ATOM     10  C   UNL A   1     -23.860   1.487  30.720  0.00  0.00    +0.139 C 
ENDBRANCH   3   7
BRANCH   1  11
ATOM     11  O   UNL A   1     -24.890  -1.281  28.895  0.00  0.00    -0.453 OA
BRANCH  11  13
ATOM     12  C   UNL A   1     -23.986  -3.464  28.550  0.00  0.00    +0.037 A 
ATOM     13  C   UNL A   1     -24.829  -2.667  28.890  0.00  0.00    +0.145 A 
ATOM     14  C   UNL A   1     -26.006  -3.083  29.501  0.00  0.00    +0.037 A 
ATOM     15  C   UNL A   1     -26.280  -4.483  29.706  0.00  0.00    +0.003 A 
ATOM     16  C   UNL A   1     -25.262  -5.337  29.262  0.00  0.00    +0.000 A 
ATOM     17  C   UNL A   1     -24.174  -4.893  28.674  0.00  0.00    +0.003 A 
ENDBRANCH  11  13
ENDBRANCH   1  11
TORSDOF 3
ENDMDL
ENDMDL
