MODEL 2709
MODEL 1
REMARK VINA RESULT:    -3.666      0.000      0.000
REMARK INTER + INTRA:          -3.666
REMARK INTER:                  -3.666
REMARK INTRA:                   0.000
REMARK UNBOUND:                 0.000
REMARK  Name = No_2709-gen_results/8p0m/2024-11-27-11-27-31/
REMARK  0 active torsions:
REMARK  status: ('A' for Active; 'I' for Inactive)
REMARK                            x       y       z     vdW  Elec       q    Type
REMARK                         _______ _______ _______ _____ _____    ______ ____
ROOT
ATOM      1 CL   UNL A   1      -7.329  -8.551  19.857  0.00  0.00    -0.010 Cl
ATOM      2  C   UNL A   1      -7.865  -9.725  20.292  0.00  0.00    +0.477 C 
ATOM      3  F   UNL A   1      -7.876 -10.622  19.489  0.00  0.00    -0.156 F 
ATOM      4  F   UNL A   1      -7.270 -10.144  21.461  0.00  0.00    -0.156 F 
ATOM      5  F   UNL A   1      -9.181  -9.491  20.650  0.00  0.00    -0.156 F 
ENDROOT
TORSDOF 0
ENDMDL
ENDMDL
