MODEL 270
MODEL 1
REMARK VINA RESULT:    -6.284      0.000      0.000
REMARK INTER + INTRA:          -7.004
REMARK INTER:                  -6.652
REMARK INTRA:                  -0.352
REMARK UNBOUND:                -0.352
REMARK  Name = No_270-gen_results/8p0m/2024-11-27-11-27-31/
REMARK  1 active torsions:
REMARK  status: ('A' for Active; 'I' for Inactive)
REMARK    1  A    between atoms: C_3  and  C_4
REMARK                            x       y       z     vdW  Elec       q    Type
REMARK                         _______ _______ _______ _____ _____    ______ ____
ROOT
ATOM      1  C   UNL A   1     -26.235  -4.340  29.706  0.00  0.00    +0.000 A 
ATOM      2  C   UNL A   1     -25.908  -3.179  29.620  0.00  0.00    +0.000 A 
ATOM      3  C   UNL A   1     -24.740  -2.759  29.069  0.00  0.00    +0.000 A 
ATOM      4  C   UNL A   1     -25.359  -5.386  29.147  0.00  0.00    +0.000 A 
ATOM      5  C   UNL A   1     -24.186  -5.063  28.616  0.00  0.00    +0.000 A 
ATOM      6  C   UNL A   1     -23.830  -3.724  28.536  0.00  0.00    +0.000 A 
ENDROOT
BRANCH   3   7
ATOM      7  C   UNL A   1     -24.326  -1.343  28.953  0.00  0.00    +0.000 A 
ATOM      8  C   UNL A   1     -22.927  -1.063  29.099  0.00  0.00    +0.000 A 
ATOM      9  C   UNL A   1     -22.437   0.251  29.040  0.00  0.00    +0.000 A 
ATOM     10  C   UNL A   1     -24.778  -0.638  27.656  0.00  0.00    +0.000 A 
ATOM     11  C   UNL A   1     -22.837   0.903  27.790  0.00  0.00    +0.000 A 
ATOM     12  C   UNL A   1     -24.306   0.788  27.515  0.00  0.00    +0.000 A 
ENDBRANCH   3   7
TORSDOF 1
ENDMDL
ENDMDL
