REMARK  Name = No_2710-gen_results/8p0m/2024-11-27-11-27-31/
REMARK  0 active torsions:
REMARK  status: ('A' for Active; 'I' for Inactive)
REMARK                            x       y       z     vdW  Elec       q    Type
REMARK                         _______ _______ _______ _____ _____    ______ ____
ROOT
ATOM      1  O   UNL A   1     -28.123  -1.335  28.487  0.00  0.00    -0.275 OA
ATOM      2  C   UNL A   1     -27.481  -0.404  28.709  0.00  0.00    +0.230 C 
ATOM      3  C   UNL A   1     -26.380  -0.087  27.939  0.00  0.00    +0.111 C 
ATOM      4  N   UNL A   1     -27.423   0.175  30.055  0.00  0.00    -0.273 N 
ATOM      5  C   UNL A   1     -25.848   1.005  27.994  0.00  0.00    -0.015 A 
ATOM      6  C   UNL A   1     -24.725   1.490  27.170  0.00  0.00    -0.004 A 
ATOM      7  C   UNL A   1     -23.760   2.380  27.612  0.00  0.00    -0.000 A 
ATOM      8  C   UNL A   1     -24.026   2.946  28.841  0.00  0.00    -0.000 A 
ATOM      9  C   UNL A   1     -24.985   2.546  29.726  0.00  0.00    -0.003 A 
ATOM     10  C   UNL A   1     -25.793   1.500  29.300  0.00  0.00    -0.006 A 
ATOM     11  C   UNL A   1     -26.721   1.084  30.296  0.00  0.00    +0.120 C 
ATOM     12  C   UNL A   1     -28.497  -0.458  30.934  0.00  0.00    +0.115 C 
ENDROOT
TORSDOF 0
