MODEL 2710
MODEL 1
REMARK VINA RESULT:    -5.621      0.000      0.000
REMARK INTER + INTRA:          -5.621
REMARK INTER:                  -5.621
REMARK INTRA:                   0.000
REMARK UNBOUND:                 0.000
REMARK  Name = No_2710-gen_results/8p0m/2024-11-27-11-27-31/
REMARK  0 active torsions:
REMARK  status: ('A' for Active; 'I' for Inactive)
REMARK                            x       y       z     vdW  Elec       q    Type
REMARK                         _______ _______ _______ _____ _____    ______ ____
ROOT
ATOM      1  O   UNL A   1     -22.740   0.056  29.140  0.00  0.00    -0.275 OA
ATOM      2  C   UNL A   1     -23.510  -0.756  29.413  0.00  0.00    +0.230 C 
ATOM      3  C   UNL A   1     -23.437  -2.027  28.879  0.00  0.00    +0.111 C 
ATOM      4  N   UNL A   1     -24.859  -0.403  29.866  0.00  0.00    -0.273 N 
ATOM      5  C   UNL A   1     -24.073  -2.957  29.338  0.00  0.00    -0.015 A 
ATOM      6  C   UNL A   1     -24.020  -4.367  28.912  0.00  0.00    -0.004 A 
ATOM      7  C   UNL A   1     -25.099  -5.235  28.949  0.00  0.00    -0.000 A 
ATOM      8  C   UNL A   1     -26.208  -4.739  29.603  0.00  0.00    -0.000 A 
ATOM      9  C   UNL A   1     -26.410  -3.445  29.986  0.00  0.00    -0.003 A 
ATOM     10  C   UNL A   1     -25.360  -2.574  29.728  0.00  0.00    -0.006 A 
ATOM     11  C   UNL A   1     -25.663  -1.229  30.084  0.00  0.00    +0.120 C 
ATOM     12  C   UNL A   1     -24.930   1.094  30.152  0.00  0.00    +0.115 C 
ENDROOT
TORSDOF 0
ENDMDL
ENDMDL
