REMARK  Name = outputs/IAG933/test6/raw/output_2711_IAG933_linker_design_.xyz
REMARK  14 active torsions:
REMARK  status: ('A' for Active; 'I' for Inactive)
REMARK    1  A    between atoms: C_1  and  C_2
REMARK    2  A    between atoms: C_1  and  C_8
REMARK    3  A    between atoms: C_1  and  C_35
REMARK    4  A    between atoms: C_21  and  O_22
REMARK    5  A    between atoms: O_22  and  C_23
REMARK    6  A    between atoms: C_23  and  C_24
REMARK    7  A    between atoms: C_28  and  O_29
REMARK    8  A    between atoms: O_29  and  C_36
REMARK    9  A    between atoms: C_30  and  C_31
REMARK   10  A    between atoms: C_30  and  C_42
REMARK   11  A    between atoms: C_35  and  C_38
REMARK   12  A    between atoms: C_35  and  O_44
REMARK   13  A    between atoms: C_39  and  C_42
REMARK   14  A    between atoms: C_41  and  O_44
REMARK                            x       y       z     vdW  Elec       q    Type
REMARK                         _______ _______ _______ _____ _____    ______ ____
ROOT
ATOM      1  C   UNL A   1     -24.508   0.235  29.315  0.00  0.00    +0.145 C 
ENDROOT
BRANCH   1   6
ATOM      2  C   UNL A   1     -20.868  -0.135  28.799  0.00  0.00    +0.138 C 
ATOM      3  N   UNL A   1     -20.276   0.802  28.166  0.00  0.00    -0.228 NA
ATOM      4  C   UNL A   1     -22.427   1.548  27.490  0.00  0.00    +0.156 C 
ATOM      5  C   UNL A   1     -22.042  -0.317  29.293  0.00  0.00    -0.002 C 
ATOM      6  C   UNL A   1     -23.062   0.448  28.748  0.00  0.00    +0.038 C 
ATOM      7  C   UNL A   1     -21.091   1.570  27.523  0.00  0.00    +0.117 C 
BRANCH   4   8
ATOM      8  O   UNL A   1     -22.958   2.556  26.645  0.00  0.00    -0.445 OA
BRANCH   8   9
ATOM      9  C   UNL A   1     -22.932   2.262  25.387  0.00  0.00    +0.391 C 
ATOM     10  O   UNL A   1     -22.780   1.740  24.430  0.00  0.00    -0.167 OA
ENDBRANCH   8   9
ENDBRANCH   4   8
ENDBRANCH   1   6
BRANCH   1  11
ATOM     11  C   UNL A   1     -24.855  -1.012  30.143  0.00  0.00    +0.070 C 
BRANCH  11  12
ATOM     12  C   UNL A   1     -24.973  -2.505  29.788  0.00  0.00    -0.018 C 
ATOM     13  C   UNL A   1     -23.906  -3.173  29.146  0.00  0.00    -0.004 C 
ATOM     14  C   UNL A   1     -23.989  -4.549  28.853  0.00  0.00    -0.000 C 
ATOM     15  C   UNL A   1     -25.137  -5.280  29.205  0.00  0.00    -0.000 C 
ATOM     16  C   UNL A   1     -26.232  -4.611  29.784  0.00  0.00    -0.000 C 
ATOM     17  C   UNL A   1     -26.155  -3.232  30.065  0.00  0.00    -0.004 C 
ENDBRANCH  11  12
BRANCH  11  18
ATOM     18  C   UNL A   1     -25.387  -0.679  31.571  0.00  0.00    +0.080 C 
ATOM     19  C   UNL A   1     -25.189   0.773  32.028  0.00  0.00    +0.019 C 
ATOM     20  C   UNL A   1     -25.336   0.684  33.544  0.00  0.00    +0.020 C 
ATOM     21  C   UNL A   1     -24.829  -0.715  33.905  0.00  0.00    +0.089 C 
ATOM     22  N   UNL A   1     -24.758  -1.481  32.646  0.00  0.00    -0.219 NA
ENDBRANCH  11  18
ENDBRANCH   1  11
BRANCH   1  23
ATOM     23  O   UNL A   1     -25.245  -0.031  28.210  0.00  0.00    -0.350 OA
BRANCH  23  36
ATOM     24  C   UNL A   1     -25.688   1.614  26.461  0.00  0.00    +0.101 C 
ATOM     25  C   UNL A   1     -26.250   2.920  26.395  0.00  0.00    +0.055 C 
ATOM     26  C   UNL A   1     -25.642   4.093  27.123  0.00  0.00    +0.218 C 
ATOM     27  N   UNL A   1     -25.614   5.252  26.449  0.00  0.00    -0.236 NA
ATOM     28  C   UNL A   1     -25.026   6.479  26.963  0.00  0.00    +0.155 C 
ATOM     29  O   UNL A   1     -25.143   3.966  28.243  0.00  0.00    -0.462 OA
ATOM     30  C   UNL A   1     -27.438   3.091  25.645  0.00  0.00    +0.102 C 
ATOM     31  N   UNL A   1     -28.075   2.089  25.003  0.00  0.00    -0.212 NA
ATOM     32  C   UNL A   1     -27.543   0.849  25.079  0.00  0.00    +0.234 C 
ATOM     33  C   UNL A   1     -26.354   0.576  25.777  0.00  0.00    +0.242 C 
ATOM     34  F   UNL A   1     -25.860  -0.681  25.795  0.00  0.00    -0.227 F 
ATOM     35  C   UNL A   1     -24.934   2.630  28.584  0.00  0.00    +0.195 C 
ATOM     36  C   UNL A   1     -24.999   1.292  27.594  0.00  0.00    +0.163 C 
BRANCH  32  37
ATOM     37  O   UNL A   1     -28.193  -0.208  24.477  0.00  0.00    -0.459 OA
BRANCH  37  38
ATOM     38  C   UNL A   1     -29.460   0.005  23.866  0.00  0.00    +0.242 C 
BRANCH  38  39
ATOM     39  C   UNL A   1     -30.065  -1.377  23.573  0.00  0.00    +0.229 C 
ATOM     40  O   UNL A   1     -30.729  -1.878  24.721  0.00  0.00    -0.216 OA
ENDBRANCH  38  39
ENDBRANCH  37  38
ENDBRANCH  32  37
BRANCH  35  41
ATOM     41  C   UNL A   1     -24.764   2.808  30.157  0.00  0.00    +0.046 C 
BRANCH  41  42
ATOM     42  C   UNL A   1     -25.048   4.220  30.662  0.00  0.00    +0.004 C 
BRANCH  42  43
ATOM     43  C   UNL A   1     -24.732   4.438  32.100  0.00  0.00    +0.000 C 
ATOM     44  C   UNL A   1     -25.434   5.541  32.663  0.00  0.00    +0.000 C 
ENDBRANCH  42  43
ENDBRANCH  41  42
ENDBRANCH  35  41
ENDBRANCH  23  36
ENDBRANCH   1  23
TORSDOF 14
