MODEL 2711
MODEL 1
REMARK VINA RESULT:    -5.010      0.000      0.000
REMARK INTER + INTRA:          -6.015
REMARK INTER:                  -5.889
REMARK INTRA:                  -0.126
REMARK UNBOUND:                -0.126
REMARK  Name = No_2711-gen_results/8p0m/2024-11-27-11-27-31/
REMARK  3 active torsions:
REMARK  status: ('A' for Active; 'I' for Inactive)
REMARK    1  A    between atoms: C_2  and  C_7
REMARK    2  A    between atoms: C_7  and  N_8
REMARK    3  A    between atoms: N_8  and  C_9
REMARK                            x       y       z     vdW  Elec       q    Type
REMARK                         _______ _______ _______ _____ _____    ______ ____
ROOT
ATOM      1  C   UNL A   1     -24.005  -3.805  28.770  0.00  0.00    -0.003 A 
ATOM      2  C   UNL A   1     -24.419  -2.891  29.093  0.00  0.00    -0.001 A 
ATOM      3  C   UNL A   1     -24.836  -5.034  29.063  0.00  0.00    -0.000 A 
ATOM      4  C   UNL A   1     -26.133  -4.880  29.598  0.00  0.00    -0.000 A 
ATOM      5  C   UNL A   1     -25.730  -2.460  29.629  0.00  0.00    -0.003 A 
ATOM      6  C   UNL A   1     -26.525  -3.564  29.905  0.00  0.00    -0.000 A 
ENDROOT
BRANCH   2   7
ATOM      7  C   UNL A   1     -23.700  -1.465  28.801  0.00  0.00    +0.139 C 
BRANCH   7   8
ATOM      8  N   UNL A   1     -22.481  -1.493  28.961  0.00  0.00    -0.232 NA
BRANCH   8   9
ATOM      9  C   UNL A   1     -21.682  -0.499  29.085  0.00  0.00    +0.081 C 
ATOM     10  C   UNL A   1     -21.688   0.620  28.200  0.00  0.00    +0.019 C 
ENDBRANCH   8   9
ENDBRANCH   7   8
ENDBRANCH   2   7
TORSDOF 3
ENDMDL
ENDMDL
