MODEL 2712
MODEL 1
REMARK VINA RESULT:    -6.167      0.000      0.000
REMARK INTER + INTRA:          -8.027
REMARK INTER:                  -7.609
REMARK INTRA:                  -0.418
REMARK UNBOUND:                -0.418
REMARK  Name = No_2712-gen_results/8p0m/2024-11-27-11-27-31/
REMARK  4 active torsions:
REMARK  status: ('A' for Active; 'I' for Inactive)
REMARK    1  A    between atoms: C_3  and  C_4
REMARK    2  A    between atoms: C_6  and  C_12
REMARK    3  A    between atoms: C_12  and  N_13
REMARK    4  A    between atoms: C_14  and  C_15
REMARK                            x       y       z     vdW  Elec       q    Type
REMARK                         _______ _______ _______ _____ _____    ______ ____
ROOT
ATOM      1  C   UNL A   1     -24.784  -1.865  31.021  0.00  0.00    +0.011 A 
ATOM      2  C   UNL A   1     -24.260  -1.005  31.331  0.00  0.00    +0.034 A 
ATOM      3  C   UNL A   1     -24.263  -2.455  29.788  0.00  0.00    +0.072 A 
ATOM      4  C   UNL A   1     -23.124  -0.250  30.819  0.00  0.00    +0.004 A 
ATOM      5  C   UNL A   1     -22.612  -0.769  29.648  0.00  0.00    +0.003 A 
ATOM      6  C   UNL A   1     -23.129  -1.902  29.138  0.00  0.00    +0.002 A 
ATOM      7 BR   UNL A   1     -24.947  -0.358  33.085  0.00  0.00    -0.049 Br
ENDROOT
BRANCH   3   8
ATOM      8  C   UNL A   1     -24.761  -3.723  29.210  0.00  0.00    +0.419 C 
ATOM      9  F   UNL A   1     -24.342  -4.683  29.598  0.00  0.00    -0.166 F 
ATOM     10  F   UNL A   1     -24.664  -3.678  27.908  0.00  0.00    -0.166 F 
ATOM     11  F   UNL A   1     -26.183  -3.818  29.383  0.00  0.00    -0.166 F 
ENDBRANCH   3   8
BRANCH   5  12
ATOM     12  C   UNL A   1     -21.461  -0.113  28.953  0.00  0.00    +0.152 C 
BRANCH  12  13
ATOM     13  N   UNL A   1     -21.556   0.640  28.135  0.00  0.00    -0.264 NA
ATOM     14  C   UNL A   1     -22.573   1.080  27.506  0.00  0.00    +0.093 C 
BRANCH  14  15
ATOM     15  C   UNL A   1     -22.611   2.238  26.574  0.00  0.00    +0.016 C 
ATOM     16  C   UNL A   1     -23.530   2.163  25.627  0.00  0.00    -0.024 C 
ATOM     17  C   UNL A   1     -24.428   1.085  25.599  0.00  0.00    +0.031 C 
ENDBRANCH  14  15
ENDBRANCH  12  13
ENDBRANCH   5  12
TORSDOF 4
ENDMDL
ENDMDL
