REMARK  Name = No_2712-gen_results/8p0m/2024-11-27-11-27-31/
REMARK  4 active torsions:
REMARK  status: ('A' for Active; 'I' for Inactive)
REMARK    1  A    between atoms: C_3  and  C_4
REMARK    2  A    between atoms: C_6  and  C_12
REMARK    3  A    between atoms: C_12  and  N_13
REMARK    4  A    between atoms: C_14  and  C_15
REMARK                            x       y       z     vdW  Elec       q    Type
REMARK                         _______ _______ _______ _____ _____    ______ ____
ROOT
ATOM      1  C   UNL A   1     -28.016  -0.814  28.878  0.00  0.00    +0.011 A 
ATOM      2  C   UNL A   1     -28.469  -0.785  29.829  0.00  0.00    +0.034 A 
ATOM      3  C   UNL A   1     -27.087   0.290  28.638  0.00  0.00    +0.072 A 
ATOM      4  C   UNL A   1     -28.391   0.104  30.980  0.00  0.00    +0.004 A 
ATOM      5  C   UNL A   1     -27.533   1.167  30.787  0.00  0.00    +0.003 A 
ATOM      6  C   UNL A   1     -26.828   1.256  29.645  0.00  0.00    +0.002 A 
ATOM      7 BR   UNL A   1     -29.602  -2.397  30.118  0.00  0.00    -0.049 Br
ENDROOT
BRANCH   3   8
ATOM      8  C   UNL A   1     -26.252   0.411  27.422  0.00  0.00    +0.419 C 
ATOM      9  F   UNL A   1     -26.495  -0.238  26.546  0.00  0.00    -0.166 F 
ATOM     10  F   UNL A   1     -24.992   0.288  27.743  0.00  0.00    -0.166 F 
ATOM     11  F   UNL A   1     -26.288   1.760  26.932  0.00  0.00    -0.166 F 
ENDBRANCH   3   8
BRANCH   5  12
ATOM     12  C   UNL A   1     -27.343   2.206  31.846  0.00  0.00    +0.152 C 
BRANCH  12  13
ATOM     13  N   UNL A   1     -27.505   3.301  31.701  0.00  0.00    -0.264 NA
ATOM     14  C   UNL A   1     -27.000   4.314  32.286  0.00  0.00    +0.093 C 
BRANCH  14  15
ATOM     15  C   UNL A   1     -27.131   5.737  31.874  0.00  0.00    +0.016 C 
ATOM     16  C   UNL A   1     -27.684   5.927  30.689  0.00  0.00    -0.024 C 
ATOM     17  C   UNL A   1     -28.165   4.834  29.952  0.00  0.00    +0.031 C 
ENDBRANCH  14  15
ENDBRANCH  12  13
ENDBRANCH   5  12
TORSDOF 4
