MODEL 2713
MODEL 1
REMARK VINA RESULT:    -7.427      0.000      0.000
REMARK INTER + INTRA:         -14.637
REMARK INTER:                 -11.335
REMARK INTRA:                  -3.302
REMARK UNBOUND:                -3.302
REMARK  Name = No_2713-gen_results/8p0m/2024-11-27-11-27-31/
REMARK  9 active torsions:
REMARK  status: ('A' for Active; 'I' for Inactive)
REMARK    1  A    between atoms: C_2  and  C_3
REMARK    2  A    between atoms: C_3  and  C_5
REMARK    3  A    between atoms: N_4  and  C_11
REMARK    4  A    between atoms: N_4  and  C_15
REMARK    5  A    between atoms: C_8  and  C_12
REMARK    6  A    between atoms: C_11  and  C_22
REMARK    7  A    between atoms: C_15  and  C_16
REMARK    8  A    between atoms: C_22  and  C_23
REMARK    9  A    between atoms: C_26  and  C_27
REMARK                            x       y       z     vdW  Elec       q    Type
REMARK                         _______ _______ _______ _____ _____    ______ ____
ROOT
ATOM      1  O   UNL A   1     -28.273  -0.755  24.095  0.00  0.00    -0.275 OA
ATOM      2  C   UNL A   1     -28.422   0.333  24.427  0.00  0.00    +0.230 C 
ATOM      3  N   UNL A   1     -27.410   1.161  24.769  0.00  0.00    -0.275 N 
ENDROOT
BRANCH   2   4
ATOM      4  C   UNL A   1     -29.737   0.796  24.485  0.00  0.00    +0.112 C 
BRANCH   4   5
ATOM      5  C   UNL A   1     -30.432   1.136  23.468  0.00  0.00    -0.013 A 
ATOM      6  C   UNL A   1     -30.399   2.239  22.835  0.00  0.00    -0.004 A 
ATOM      7  C   UNL A   1     -31.331   2.630  21.706  0.00  0.00    +0.004 A 
ATOM      8  C   UNL A   1     -32.343   1.723  21.408  0.00  0.00    +0.057 A 
ATOM      9  C   UNL A   1     -32.461   0.548  22.123  0.00  0.00    +0.004 A 
ATOM     10  C   UNL A   1     -31.575   0.216  23.133  0.00  0.00    -0.004 A 
BRANCH   8  11
ATOM     11  C   UNL A   1     -33.273   2.038  20.303  0.00  0.00    +0.284 C 
ATOM     12  N   UNL A   1     -32.938   2.877  19.394  0.00  0.00    -0.084 NA
ATOM     13  O   UNL A   1     -34.521   1.653  20.396  0.00  0.00    -0.267 OA
ENDBRANCH   8  11
ENDBRANCH   4   5
ENDBRANCH   2   4
BRANCH   3  14
ATOM     14  C   UNL A   1     -26.056   0.644  24.721  0.00  0.00    +0.098 C 
BRANCH  14  15
ATOM     15  C   UNL A   1     -25.640  -0.133  25.866  0.00  0.00    +0.048 C 
BRANCH  15  16
ATOM     16  C   UNL A   1     -24.592   0.282  26.499  0.00  0.00    -0.021 A 
ATOM     17  C   UNL A   1     -23.846   1.326  25.899  0.00  0.00    -0.004 A 
ATOM     18  C   UNL A   1     -23.013   1.985  26.459  0.00  0.00    -0.000 A 
ATOM     19  C   UNL A   1     -24.200  -0.106  27.740  0.00  0.00    -0.004 A 
ATOM     20  C   UNL A   1     -22.608   1.597  27.807  0.00  0.00    -0.000 A 
ATOM     21  C   UNL A   1     -23.265   0.569  28.479  0.00  0.00    -0.000 A 
BRANCH  19  22
ATOM     22  C   UNL A   1     -24.978  -1.137  28.446  0.00  0.00    -0.000 A 
ATOM     23  C   UNL A   1     -26.042  -0.722  29.109  0.00  0.00    -0.000 A 
ATOM     24  C   UNL A   1     -26.727  -1.614  29.972  0.00  0.00    -0.000 A 
ATOM     25  C   UNL A   1     -24.608  -2.483  28.450  0.00  0.00    -0.000 A 
ATOM     26  C   UNL A   1     -25.317  -3.438  29.232  0.00  0.00    -0.000 A 
ATOM     27  C   UNL A   1     -26.412  -2.970  29.976  0.00  0.00    -0.000 A 
ENDBRANCH  19  22
ENDBRANCH  15  16
ENDBRANCH  14  15
ENDBRANCH   3  14
BRANCH   3  28
ATOM     28  C   UNL A   1     -27.520   2.535  25.164  0.00  0.00    +0.120 C 
BRANCH  28  29
ATOM     29  C   UNL A   1     -27.109   2.808  26.331  0.00  0.00    -0.002 A 
ATOM     30  C   UNL A   1     -26.100   3.843  26.471  0.00  0.00    -0.003 A 
ATOM     31  C   UNL A   1     -25.648   4.311  27.753  0.00  0.00    -0.000 A 
ATOM     32  C   UNL A   1     -26.193   3.628  28.900  0.00  0.00    -0.000 A 
ATOM     33  C   UNL A   1     -27.149   2.631  28.772  0.00  0.00    -0.000 A 
ATOM     34  C   UNL A   1     -27.631   2.265  27.547  0.00  0.00    -0.003 A 
ENDBRANCH  28  29
ENDBRANCH   3  28
TORSDOF 9
ENDMDL
ENDMDL
