REMARK  Name = outputs/IAG933/test6/raw/output_2714_IAG933_linker_design_.xyz
REMARK  10 active torsions:
REMARK  status: ('A' for Active; 'I' for Inactive)
REMARK    1  A    between atoms: C_1  and  C_2
REMARK    2  A    between atoms: C_1  and  C_8
REMARK    3  A    between atoms: C_1  and  N_37
REMARK    4  A    between atoms: C_13  and  C_36
REMARK    5  A    between atoms: C_14  and  C_15
REMARK    6  A    between atoms: C_21  and  O_22
REMARK    7  A    between atoms: O_22  and  C_23
REMARK    8  A    between atoms: C_23  and  C_24
REMARK    9  A    between atoms: C_30  and  N_43
REMARK   10  A    between atoms: N_32  and  C_41
REMARK                            x       y       z     vdW  Elec       q    Type
REMARK                         _______ _______ _______ _____ _____    ______ ____
ROOT
ATOM      1  O   UNL A   1     -21.113   0.838  27.849  0.00  0.00    -0.338 OA
ATOM      2  C   UNL A   1     -24.440   1.130  28.964  0.00  0.00    +0.115 C 
ATOM      3  N   UNL A   1     -23.168   1.542  26.633  0.00  0.00    -0.188 NA
ATOM      4  C   UNL A   1     -22.973   1.854  29.474  0.00  0.00    +0.064 C 
ATOM      5  C   UNL A   1     -21.911   0.969  28.608  0.00  0.00    +0.151 C 
ATOM      6  C   UNL A   1     -22.585  -0.310  29.387  0.00  0.00    +0.105 C 
ATOM      7  C   UNL A   1     -24.327   1.356  27.213  0.00  0.00    +0.117 C 
ATOM      8  N   UNL A   1     -24.028  -0.149  29.350  0.00  0.00    -0.256 NA
ATOM      9  C   UNL A   1     -21.961   1.814  27.478  0.00  0.00    +0.207 C 
ENDROOT
BRANCH   7  10
ATOM     10  C   UNL A   1     -25.688   1.614  26.461  0.00  0.00    +0.033 C 
ATOM     11  C   UNL A   1     -26.250   2.920  26.395  0.00  0.00    +0.074 C 
ATOM     12  C   UNL A   1     -27.438   3.091  25.645  0.00  0.00    +0.106 C 
ATOM     13  N   UNL A   1     -28.075   2.089  25.003  0.00  0.00    -0.208 NA
ATOM     14  C   UNL A   1     -27.543   0.849  25.079  0.00  0.00    +0.253 C 
ATOM     15  C   UNL A   1     -26.354   0.576  25.777  0.00  0.00    +0.191 C 
ATOM     16  F   UNL A   1     -25.860  -0.681  25.795  0.00  0.00    -0.200 F 
BRANCH  11  17
ATOM     17  C   UNL A   1     -25.642   4.093  27.123  0.00  0.00    +0.266 C 
ATOM     18  N   UNL A   1     -25.614   5.252  26.449  0.00  0.00    -0.200 NA
ATOM     19  C   UNL A   1     -25.026   6.479  26.963  0.00  0.00    +0.139 C 
ATOM     20  O   UNL A   1     -25.143   3.966  28.243  0.00  0.00    -0.268 OA
ENDBRANCH  11  17
BRANCH  14  21
ATOM     21  O   UNL A   1     -28.193  -0.208  24.477  0.00  0.00    -0.456 OA
BRANCH  21  22
ATOM     22  C   UNL A   1     -29.460   0.005  23.866  0.00  0.00    +0.243 C 
BRANCH  22  23
ATOM     23  C   UNL A   1     -30.065  -1.377  23.573  0.00  0.00    +0.229 C 
ATOM     24  O   UNL A   1     -30.729  -1.878  24.721  0.00  0.00    -0.216 OA
ENDBRANCH  22  23
ENDBRANCH  21  22
ENDBRANCH  14  21
ENDBRANCH   7  10
BRANCH   2  28
ATOM     25  C   UNL A   1     -27.032   1.765  29.588  0.00  0.00    +0.126 C 
ATOM     26  O   UNL A   1     -27.848  -0.600  29.409  0.00  0.00    -0.203 OA
ATOM     27  C   UNL A   1     -27.334   0.350  29.070  0.00  0.00    +0.230 C 
ATOM     28  N   UNL A   1     -26.039   0.934  29.235  0.00  0.00    -0.232 NA
ENDBRANCH   2  28
BRANCH   3  31
ATOM     29  F   UNL A   1     -21.663   1.867  25.085  0.00  0.00    -0.179 F 
ATOM     30  F   UNL A   1     -23.641   1.313  24.485  0.00  0.00    -0.179 F 
ATOM     31  C   UNL A   1     -22.852   1.637  25.385  0.00  0.00    +0.386 C 
ENDBRANCH   3  31
BRANCH   8  32
ATOM     32  C   UNL A   1     -24.855  -1.012  30.143  0.00  0.00    +0.097 C 
BRANCH  32  33
ATOM     33  C   UNL A   1     -24.973  -2.505  29.788  0.00  0.00    -0.006 C 
ATOM     34  C   UNL A   1     -23.906  -3.173  29.146  0.00  0.00    -0.003 C 
ATOM     35  C   UNL A   1     -23.989  -4.549  28.853  0.00  0.00    -0.000 C 
ATOM     36  C   UNL A   1     -25.137  -5.280  29.205  0.00  0.00    -0.000 C 
ATOM     37  C   UNL A   1     -26.232  -4.611  29.784  0.00  0.00    -0.000 C 
ATOM     38  C   UNL A   1     -26.155  -3.232  30.065  0.00  0.00    -0.003 C 
ENDBRANCH  32  33
BRANCH  32  39
ATOM     39  C   UNL A   1     -25.387  -0.679  31.571  0.00  0.00    +0.092 C 
ATOM     40  C   UNL A   1     -25.189   0.773  32.028  0.00  0.00    +0.021 C 
ATOM     41  C   UNL A   1     -25.336   0.684  33.544  0.00  0.00    +0.020 C 
ATOM     42  C   UNL A   1     -24.829  -0.715  33.905  0.00  0.00    +0.089 C 
ATOM     43  N   UNL A   1     -24.758  -1.481  32.646  0.00  0.00    -0.218 NA
ENDBRANCH  32  39
ENDBRANCH   8  32
TORSDOF 10
