MODEL 2714
MODEL 1
REMARK VINA RESULT:    -6.583      0.000      0.000
REMARK INTER + INTRA:          -9.511
REMARK INTER:                  -8.892
REMARK INTRA:                  -0.619
REMARK UNBOUND:                -0.619
REMARK  Name = No_2714-gen_results/8p0m/2024-11-27-11-27-31/
REMARK  6 active torsions:
REMARK  status: ('A' for Active; 'I' for Inactive)
REMARK    1  A    between atoms: C_2  and  C_13
REMARK    2  A    between atoms: C_4  and  C_7
REMARK    3  A    between atoms: C_13  and  O_15
REMARK    4  A    between atoms: O_15  and  C_16
REMARK    5  A    between atoms: C_16  and  C_17
REMARK    6  A    between atoms: C_17  and  C_19
REMARK                            x       y       z     vdW  Elec       q    Type
REMARK                         _______ _______ _______ _____ _____    ______ ____
ROOT
ATOM      1  C   UNL A   1     -29.168 -10.457  32.633  0.00  0.00    +0.006 A 
ATOM      2  C   UNL A   1     -28.376 -11.146  32.720  0.00  0.00    +0.076 A 
ATOM      3  C   UNL A   1     -29.734 -10.288  31.241  0.00  0.00    +0.000 A 
ATOM      4  C   UNL A   1     -29.287 -11.136  30.206  0.00  0.00    +0.000 A 
ATOM      5  C   UNL A   1     -27.759 -12.157  31.831  0.00  0.00    +0.006 A 
ATOM      6  C   UNL A   1     -28.260 -12.037  30.543  0.00  0.00    +0.000 A 
ENDROOT
BRANCH   4   7
ATOM      7  C   UNL A   1     -29.771 -11.012  28.873  0.00  0.00    +0.000 A 
ATOM      8  C   UNL A   1     -30.543 -10.300  28.520  0.00  0.00    +0.000 A 
ATOM      9  C   UNL A   1     -29.143 -11.879  27.845  0.00  0.00    +0.000 A 
ATOM     10  C   UNL A   1     -29.696 -11.875  26.542  0.00  0.00    +0.000 A 
ATOM     11  C   UNL A   1     -31.208 -10.132  27.172  0.00  0.00    +0.000 A 
ATOM     12  C   UNL A   1     -30.692 -11.023  26.224  0.00  0.00    +0.000 A 
ENDBRANCH   4   7
BRANCH   2  13
ATOM     13  C   UNL A   1     -27.729 -11.306  34.197  0.00  0.00    +0.341 C 
ATOM     14  O   UNL A   1     -27.273 -12.275  34.627  0.00  0.00    -0.245 OA
BRANCH  13  15
ATOM     15  O   UNL A   1     -27.848 -10.251  34.924  0.00  0.00    -0.442 OA
BRANCH  15  16
ATOM     16  C   UNL A   1     -26.924  -9.288  35.038  0.00  0.00    +0.249 C 
BRANCH  16  17
ATOM     17  C   UNL A   1     -27.084  -8.216  35.614  0.00  0.00    +0.259 C 
ATOM     18  O   UNL A   1     -26.086  -7.660  36.119  0.00  0.00    -0.211 OA
BRANCH  17  19
ATOM     19  C   UNL A   1     -28.350  -7.557  35.790  0.00  0.00    +0.244 C 
ATOM     20  O   UNL A   1     -28.582  -6.455  35.365  0.00  0.00    -0.285 OA
ENDBRANCH  17  19
ENDBRANCH  16  17
ENDBRANCH  15  16
ENDBRANCH  13  15
ENDBRANCH   2  13
TORSDOF 6
ENDMDL
ENDMDL
