MODEL 2715
MODEL 1
REMARK VINA RESULT:    -6.400      0.000      0.000
REMARK INTER + INTRA:          -7.152
REMARK INTER:                  -6.774
REMARK INTRA:                  -0.378
REMARK UNBOUND:                -0.378
REMARK  Name = No_2715-gen_results/8p0m/2024-11-27-11-27-31/
REMARK  1 active torsions:
REMARK  status: ('A' for Active; 'I' for Inactive)
REMARK    1  A    between atoms: C_3  and  C_7
REMARK                            x       y       z     vdW  Elec       q    Type
REMARK                         _______ _______ _______ _____ _____    ______ ____
ROOT
ATOM      1  C   UNL A   1     -24.126  -3.938  28.610  0.00  0.00    +0.000 A 
ATOM      2  C   UNL A   1     -24.755  -4.731  28.905  0.00  0.00    +0.000 A 
ATOM      3  C   UNL A   1     -24.655  -2.616  28.944  0.00  0.00    +0.000 A 
ATOM      4  C   UNL A   1     -25.850  -2.452  29.600  0.00  0.00    +0.000 A 
ATOM      5  C   UNL A   1     -26.037  -4.855  29.598  0.00  0.00    +0.000 A 
ATOM      6  C   UNL A   1     -26.557  -3.581  29.927  0.00  0.00    +0.000 A 
ENDROOT
BRANCH   3   7
ATOM      7  C   UNL A   1     -23.890  -1.371  28.644  0.00  0.00    +0.000 A 
ATOM      8  C   UNL A   1     -22.610  -1.329  29.184  0.00  0.00    +0.000 A 
ATOM      9  C   UNL A   1     -24.386  -0.355  27.861  0.00  0.00    +0.000 A 
ATOM     10  C   UNL A   1     -23.544   0.632  27.415  0.00  0.00    +0.000 A 
ATOM     11  C   UNL A   1     -21.840  -0.138  28.999  0.00  0.00    +0.000 A 
ATOM     12  C   UNL A   1     -22.322   0.791  28.054  0.00  0.00    +0.000 A 
ENDBRANCH   3   7
TORSDOF 1
ENDMDL
ENDMDL
