REMARK  Name = outputs/IAG933/test6/raw/output_2715_IAG933_linker_design_.xyz
REMARK  13 active torsions:
REMARK  status: ('A' for Active; 'I' for Inactive)
REMARK    1  A    between atoms: C_1  and  C_2
REMARK    2  A    between atoms: C_1  and  C_8
REMARK    3  A    between atoms: C_1  and  C_30
REMARK    4  A    between atoms: C_13  and  C_44
REMARK    5  A    between atoms: C_14  and  C_15
REMARK    6  A    between atoms: C_21  and  O_22
REMARK    7  A    between atoms: O_22  and  C_23
REMARK    8  A    between atoms: C_23  and  C_24
REMARK    9  A    between atoms: C_30  and  C_32
REMARK   10  A    between atoms: C_30  and  C_45
REMARK   11  A    between atoms: C_34  and  O_43
REMARK   12  A    between atoms: C_35  and  O_43
REMARK   13  A    between atoms: C_35  and  C_45
REMARK                            x       y       z     vdW  Elec       q    Type
REMARK                         _______ _______ _______ _____ _____    ______ ____
ROOT
ATOM      1  C   UNL A   1     -25.658   0.046  29.280  0.00  0.00    +0.035 C 
ENDROOT
BRANCH   1   2
ATOM      2  C   UNL A   1     -24.517   0.468  28.434  0.00  0.00    -0.035 C 
ATOM      3  C   UNL A   1     -23.337   1.734  27.026  0.00  0.00    +0.163 C 
ATOM      4  F   UNL A   1     -21.039   1.526  27.598  0.00  0.00    -0.206 F 
ATOM      5  C   UNL A   1     -23.094   0.391  28.776  0.00  0.00    +0.081 C 
ATOM      6  C   UNL A   1     -22.364   1.268  27.893  0.00  0.00    +0.149 C 
ATOM      7  F   UNL A   1     -23.050   2.455  25.933  0.00  0.00    -0.202 F 
ATOM      8  C   UNL A   1     -24.595   1.280  27.330  0.00  0.00    +0.024 C 
BRANCH   8   9
ATOM      9  C   UNL A   1     -25.688   1.614  26.461  0.00  0.00    +0.040 C 
ATOM     10  C   UNL A   1     -26.250   2.920  26.395  0.00  0.00    +0.077 C 
ATOM     11  C   UNL A   1     -27.438   3.091  25.645  0.00  0.00    +0.107 C 
ATOM     12  N   UNL A   1     -28.075   2.089  25.003  0.00  0.00    -0.208 NA
ATOM     13  C   UNL A   1     -27.543   0.849  25.079  0.00  0.00    +0.253 C 
ATOM     14  C   UNL A   1     -26.354   0.576  25.777  0.00  0.00    +0.193 C 
ATOM     15  F   UNL A   1     -25.860  -0.681  25.795  0.00  0.00    -0.199 F 
BRANCH  10  16
ATOM     16  C   UNL A   1     -25.642   4.093  27.123  0.00  0.00    +0.266 C 
ATOM     17  N   UNL A   1     -25.614   5.252  26.449  0.00  0.00    -0.200 NA
ATOM     18  C   UNL A   1     -25.026   6.479  26.963  0.00  0.00    +0.139 C 
ATOM     19  O   UNL A   1     -25.143   3.966  28.243  0.00  0.00    -0.268 OA
ENDBRANCH  10  16
BRANCH  13  20
ATOM     20  O   UNL A   1     -28.193  -0.208  24.477  0.00  0.00    -0.456 OA
BRANCH  20  21
ATOM     21  C   UNL A   1     -29.460   0.005  23.866  0.00  0.00    +0.243 C 
BRANCH  21  22
ATOM     22  C   UNL A   1     -30.065  -1.377  23.573  0.00  0.00    +0.229 C 
ATOM     23  O   UNL A   1     -30.729  -1.878  24.721  0.00  0.00    -0.216 OA
ENDBRANCH  21  22
ENDBRANCH  20  21
ENDBRANCH  13  20
ENDBRANCH   8   9
ENDBRANCH   1   2
BRANCH   1  24
ATOM     24  C   UNL A   1     -24.855  -1.012  30.143  0.00  0.00    +0.043 C 
BRANCH  24  25
ATOM     25  C   UNL A   1     -24.973  -2.505  29.788  0.00  0.00    -0.021 C 
ATOM     26  C   UNL A   1     -23.906  -3.173  29.146  0.00  0.00    -0.004 C 
ATOM     27  C   UNL A   1     -23.989  -4.549  28.853  0.00  0.00    -0.000 C 
ATOM     28  C   UNL A   1     -25.137  -5.280  29.205  0.00  0.00    -0.000 C 
ATOM     29  C   UNL A   1     -26.232  -4.611  29.784  0.00  0.00    -0.000 C 
ATOM     30  C   UNL A   1     -26.155  -3.232  30.065  0.00  0.00    -0.004 C 
ENDBRANCH  24  25
BRANCH  24  31
ATOM     31  C   UNL A   1     -25.387  -0.679  31.571  0.00  0.00    +0.077 C 
ATOM     32  C   UNL A   1     -25.189   0.773  32.028  0.00  0.00    +0.019 C 
ATOM     33  C   UNL A   1     -25.336   0.684  33.544  0.00  0.00    +0.020 C 
ATOM     34  C   UNL A   1     -24.829  -0.715  33.905  0.00  0.00    +0.089 C 
ATOM     35  N   UNL A   1     -24.758  -1.481  32.646  0.00  0.00    -0.219 NA
ENDBRANCH  24  31
ENDBRANCH   1  24
BRANCH   1  36
ATOM     36  C   UNL A   1     -26.613   1.298  29.387  0.00  0.00    +0.114 C 
BRANCH  36  38
ATOM     37  O   UNL A   1     -28.537   0.813  29.722  0.00  0.00    -0.250 OA
ATOM     38  C   UNL A   1     -27.807   1.782  29.608  0.00  0.00    +0.317 C 
BRANCH  38  39
ATOM     39  O   UNL A   1     -27.881   3.206  29.568  0.00  0.00    -0.450 OA
BRANCH  39  43
ATOM     40  C   UNL A   1     -28.576   5.563  30.581  0.00  0.00    +0.082 C 
ATOM     41  O   UNL A   1     -30.587   3.942  30.461  0.00  0.00    -0.347 OA
ATOM     42  O   UNL A   1     -29.398   7.024  28.744  0.00  0.00    -0.220 OA
ATOM     43  C   UNL A   1     -28.290   4.046  30.752  0.00  0.00    +0.201 C 
ATOM     44  C   UNL A   1     -30.276   4.658  29.206  0.00  0.00    +0.175 C 
ATOM     45  C   UNL A   1     -29.057   5.675  29.121  0.00  0.00    +0.185 C 
ATOM     46  C   UNL A   1     -29.532   3.344  31.251  0.00  0.00    +0.186 C 
ENDBRANCH  39  43
ENDBRANCH  38  39
ENDBRANCH  36  38
ENDBRANCH   1  36
TORSDOF 13
