MODEL 2716
MODEL 1
REMARK VINA RESULT:    -5.374      0.000      0.000
REMARK INTER + INTRA:          -5.728
REMARK INTER:                  -5.688
REMARK INTRA:                  -0.040
REMARK UNBOUND:                -0.040
REMARK  Name = No_2716-gen_results/8p0m/2024-11-27-11-27-31/
REMARK  1 active torsions:
REMARK  status: ('A' for Active; 'I' for Inactive)
REMARK    1  A    between atoms: C_1  and  C_7
REMARK                            x       y       z     vdW  Elec       q    Type
REMARK                         _______ _______ _______ _____ _____    ______ ____
ROOT
ATOM      1  C   UNL A   1      -9.505 -10.115  18.245  0.00  0.00    +0.080 A 
ATOM      2  C   UNL A   1      -8.413 -10.489  18.607  0.00  0.00    +0.007 A 
ATOM      3  C   UNL A   1      -7.838 -10.119  19.808  0.00  0.00    +0.000 A 
ATOM      4  C   UNL A   1      -8.592  -9.283  20.679  0.00  0.00    +0.000 A 
ATOM      5  C   UNL A   1      -9.869  -9.033  20.306  0.00  0.00    +0.000 A 
ATOM      6  C   UNL A   1     -10.350  -9.464  19.156  0.00  0.00    +0.007 A 
ENDROOT
BRANCH   1   7
ATOM      7  C   UNL A   1     -10.060 -10.580  16.921  0.00  0.00    +0.388 C 
ATOM      8  O   UNL A   1      -9.619 -11.014  16.092  0.00  0.00    -0.241 OA
ATOM      9  O   UNL A   1     -11.482 -10.512  16.979  0.00  0.00    -0.241 OA
ENDBRANCH   1   7
TORSDOF 1
ENDMDL
ENDMDL
