MODEL 2718
MODEL 1
REMARK VINA RESULT:    -5.001      0.000      0.000
REMARK INTER + INTRA:          -5.001
REMARK INTER:                  -5.001
REMARK INTRA:                   0.000
REMARK UNBOUND:                 0.000
REMARK  Name = No_2718-gen_results/8p0m/2024-11-27-11-27-31/
REMARK  0 active torsions:
REMARK  status: ('A' for Active; 'I' for Inactive)
REMARK                            x       y       z     vdW  Elec       q    Type
REMARK                         _______ _______ _______ _____ _____    ______ ____
ROOT
ATOM      1  C   UNL A   1     -10.414  -9.323  19.055  0.00  0.00    +0.042 A 
ATOM      2  C   UNL A   1      -9.611  -9.165  19.946  0.00  0.00    +0.003 A 
ATOM      3  C   UNL A   1      -8.367  -9.786  19.909  0.00  0.00    +0.000 A 
ATOM      4  C   UNL A   1      -8.013 -10.672  18.831  0.00  0.00    +0.003 A 
ATOM      5  C   UNL A   1      -9.009 -10.815  17.856  0.00  0.00    +0.042 A 
ATOM      6  C   UNL A   1     -10.176 -10.220  17.946  0.00  0.00    +0.196 A 
ATOM      7  O   UNL A   1     -11.103 -10.443  16.975  0.00  0.00    -0.287 OA
ENDROOT
TORSDOF 0
ENDMDL
ENDMDL
