REMARK  Name = outputs/IAG933/test6/raw/output_2719_IAG933_linker_design_.xyz
REMARK  15 active torsions:
REMARK  status: ('A' for Active; 'I' for Inactive)
REMARK    1  A    between atoms: C_1  and  C_2
REMARK    2  A    between atoms: C_1  and  C_8
REMARK    3  A    between atoms: C_1  and  C_39
REMARK    4  A    between atoms: C_13  and  C_29
REMARK    5  A    between atoms: C_14  and  C_15
REMARK    6  A    between atoms: C_21  and  O_22
REMARK    7  A    between atoms: O_22  and  C_23
REMARK    8  A    between atoms: C_23  and  C_24
REMARK    9  A    between atoms: C_28  and  C_30
REMARK   10  A    between atoms: C_28  and  C_37
REMARK   11  A    between atoms: C_29  and  C_30
REMARK   12  A    between atoms: C_30  and  N_40
REMARK   13  A    between atoms: C_31  and  C_33
REMARK   14  A    between atoms: C_31  and  C_39
REMARK   15  A    between atoms: C_39  and  N_40
REMARK                            x       y       z     vdW  Elec       q    Type
REMARK                         _______ _______ _______ _____ _____    ______ ____
ROOT
ATOM      1  C   UNL A   1     -25.715  -0.202  29.190  0.00  0.00    +0.081 C 
ENDROOT
BRANCH   1   2
ATOM      2  C   UNL A   1     -24.855  -1.012  30.143  0.00  0.00    +0.054 C 
BRANCH   2   3
ATOM      3  C   UNL A   1     -24.973  -2.505  29.788  0.00  0.00    -0.020 C 
ATOM      4  C   UNL A   1     -23.906  -3.173  29.146  0.00  0.00    -0.004 C 
ATOM      5  C   UNL A   1     -23.989  -4.549  28.853  0.00  0.00    -0.000 C 
ATOM      6  C   UNL A   1     -25.137  -5.280  29.205  0.00  0.00    -0.000 C 
ATOM      7  C   UNL A   1     -26.232  -4.611  29.784  0.00  0.00    -0.000 C 
ATOM      8  C   UNL A   1     -26.155  -3.232  30.065  0.00  0.00    -0.004 C 
ENDBRANCH   2   3
BRANCH   2   9
ATOM      9  C   UNL A   1     -25.387  -0.679  31.571  0.00  0.00    +0.078 C 
ATOM     10  C   UNL A   1     -25.189   0.773  32.028  0.00  0.00    +0.019 C 
ATOM     11  C   UNL A   1     -25.336   0.684  33.544  0.00  0.00    +0.020 C 
ATOM     12  C   UNL A   1     -24.829  -0.715  33.905  0.00  0.00    +0.089 C 
ATOM     13  N   UNL A   1     -24.758  -1.481  32.646  0.00  0.00    -0.219 NA
ENDBRANCH   2   9
ENDBRANCH   1   2
BRANCH   1  14
ATOM     14  C   UNL A   1     -27.029  -0.617  28.506  0.00  0.00    +0.047 C 
BRANCH  14  16
ATOM     15  C   UNL A   1     -29.895  -0.272  30.855  0.00  0.00    +0.062 C 
ATOM     16  C   UNL A   1     -28.300  -0.155  29.189  0.00  0.00    +0.117 C 
ATOM     17  O   UNL A   1     -29.512  -0.639  28.517  0.00  0.00    -0.356 OA
ATOM     18  C   UNL A   1     -30.433  -1.005  29.584  0.00  0.00    +0.147 C 
ATOM     19  C   UNL A   1     -31.884  -0.453  29.685  0.00  0.00    +0.172 C 
ATOM     20  O   UNL A   1     -32.108  -0.493  31.154  0.00  0.00    -0.351 OA
ATOM     21  C   UNL A   1     -28.437  -0.667  30.645  0.00  0.00    +0.035 C 
ATOM     22  C   UNL A   1     -30.881  -0.831  31.874  0.00  0.00    +0.145 C 
ENDBRANCH  14  16
ENDBRANCH   1  14
BRANCH   1  23
ATOM     23  N   UNL A   1     -25.386   1.148  28.953  0.00  0.00    -0.219 NA
BRANCH  23  24
ATOM     24  C   UNL A   1     -24.067   1.560  28.212  0.00  0.00    +0.088 C 
BRANCH  24  25
ATOM     25  C   UNL A   1     -24.230   1.277  26.879  0.00  0.00    +0.103 C 
ATOM     26 CL   UNL A   1     -23.192   1.960  25.572  0.00  0.00    -0.113 Cl
BRANCH  25  27
ATOM     27  C   UNL A   1     -25.688   1.614  26.461  0.00  0.00    +0.086 C 
ATOM     28  C   UNL A   1     -26.250   2.920  26.395  0.00  0.00    +0.056 C 
ATOM     29  C   UNL A   1     -27.438   3.091  25.645  0.00  0.00    +0.102 C 
ATOM     30  N   UNL A   1     -28.075   2.089  25.003  0.00  0.00    -0.212 NA
ATOM     31  C   UNL A   1     -27.543   0.849  25.079  0.00  0.00    +0.234 C 
ATOM     32  C   UNL A   1     -26.354   0.576  25.777  0.00  0.00    +0.241 C 
ATOM     33  F   UNL A   1     -25.860  -0.681  25.795  0.00  0.00    -0.227 F 
BRANCH  28  34
ATOM     34  C   UNL A   1     -25.642   4.093  27.123  0.00  0.00    +0.263 C 
ATOM     35  N   UNL A   1     -25.614   5.252  26.449  0.00  0.00    -0.200 NA
ATOM     36  C   UNL A   1     -25.026   6.479  26.963  0.00  0.00    +0.139 C 
ATOM     37  O   UNL A   1     -25.143   3.966  28.243  0.00  0.00    -0.269 OA
ENDBRANCH  28  34
BRANCH  31  38
ATOM     38  O   UNL A   1     -28.193  -0.208  24.477  0.00  0.00    -0.459 OA
BRANCH  38  39
ATOM     39  C   UNL A   1     -29.460   0.005  23.866  0.00  0.00    +0.242 C 
BRANCH  39  40
ATOM     40  C   UNL A   1     -30.065  -1.377  23.573  0.00  0.00    +0.229 C 
ATOM     41  O   UNL A   1     -30.729  -1.878  24.721  0.00  0.00    -0.216 OA
ENDBRANCH  39  40
ENDBRANCH  38  39
ENDBRANCH  31  38
ENDBRANCH  25  27
ENDBRANCH  24  25
BRANCH  24  42
ATOM     42  C   UNL A   1     -22.724   0.750  28.983  0.00  0.00    +0.019 C 
BRANCH  42  43
ATOM     43  C   UNL A   1     -22.040   0.688  27.772  0.00  0.00    +0.002 C 
ATOM     44  C   UNL A   1     -21.108   1.780  27.416  0.00  0.00    +0.000 C 
ENDBRANCH  42  43
ENDBRANCH  24  42
ENDBRANCH  23  24
ENDBRANCH   1  23
TORSDOF 15
