MODEL 2719
MODEL 1
REMARK VINA RESULT:    -7.254      0.000      0.000
REMARK INTER + INTRA:          -8.657
REMARK INTER:                  -8.102
REMARK INTRA:                  -0.556
REMARK UNBOUND:                -0.556
REMARK  Name = No_2719-gen_results/8p0m/2024-11-27-11-27-31/
REMARK  2 active torsions:
REMARK  status: ('A' for Active; 'I' for Inactive)
REMARK    1  A    between atoms: C_3  and  C_7
REMARK    2  A    between atoms: C_5  and  C_13
REMARK                            x       y       z     vdW  Elec       q    Type
REMARK                         _______ _______ _______ _____ _____    ______ ____
ROOT
ATOM      1  C   UNL A   1     -26.456  -2.109  30.011  0.00  0.00    -0.000 A 
ATOM      2  C   UNL A   1     -25.773  -1.244  29.513  0.00  0.00    -0.000 A 
ATOM      3  C   UNL A   1     -24.588  -1.458  28.829  0.00  0.00    -0.000 A 
ATOM      4  C   UNL A   1     -24.161  -2.811  28.680  0.00  0.00    +0.001 A 
ATOM      5  C   UNL A   1     -25.014  -3.759  29.102  0.00  0.00    +0.044 A 
ATOM      6  C   UNL A   1     -26.133  -3.463  29.697  0.00  0.00    +0.001 A 
ENDROOT
BRANCH   3   7
ATOM      7  C   UNL A   1     -23.704  -0.337  28.349  0.00  0.00    -0.000 A 
ATOM      8  C   UNL A   1     -23.855   0.528  27.560  0.00  0.00    -0.000 A 
ATOM      9  C   UNL A   1     -22.859   1.561  27.204  0.00  0.00    -0.000 A 
ATOM     10  C   UNL A   1     -21.556   1.411  27.717  0.00  0.00    +0.000 A 
ATOM     11  C   UNL A   1     -21.274   0.272  28.494  0.00  0.00    -0.000 A 
ATOM     12  C   UNL A   1     -22.268  -0.612  28.853  0.00  0.00    -0.000 A 
ENDBRANCH   3   7
BRANCH   5  13
ATOM     13  C   UNL A   1     -24.429  -5.133  28.800  0.00  0.00    +0.341 C 
ATOM     14  F   UNL A   1     -25.077  -5.967  28.941  0.00  0.00    -0.193 F 
ATOM     15  F   UNL A   1     -23.564  -5.042  28.063  0.00  0.00    -0.193 F 
ENDBRANCH   5  13
TORSDOF 2
ENDMDL
ENDMDL
