MODEL 271
MODEL 1
REMARK VINA RESULT:    -7.081      0.000      0.000
REMARK INTER + INTRA:          -8.278
REMARK INTER:                  -7.909
REMARK INTRA:                  -0.370
REMARK UNBOUND:                -0.370
REMARK  Name = No_271-gen_results/8p0m/2024-11-27-11-27-31/
REMARK  2 active torsions:
REMARK  status: ('A' for Active; 'I' for Inactive)
REMARK    1  A    between atoms: C_4  and  O_8
REMARK    2  A    between atoms: O_8  and  C_9
REMARK                            x       y       z     vdW  Elec       q    Type
REMARK                         _______ _______ _______ _____ _____    ______ ____
ROOT
ATOM      1  C   UNL A   1     -22.794  -1.203  28.876  0.00  0.00    +0.372 C 
ATOM      2  C   UNL A   1     -21.682  -0.223  29.200  0.00  0.00    +0.234 C 
ATOM      3  O   UNL A   1     -21.451   0.656  28.211  0.00  0.00    -0.341 OA
ATOM      4  C   UNL A   1     -22.457   1.642  27.899  0.00  0.00    +0.172 C 
ATOM      5  C   UNL A   1     -23.493   1.089  27.008  0.00  0.00    +0.041 A 
ATOM      6  C   UNL A   1     -23.719   1.554  25.770  0.00  0.00    +0.001 A 
ATOM      7  C   UNL A   1     -24.751   1.020  24.955  0.00  0.00    -0.000 A 
ATOM      8  C   UNL A   1     -25.580   0.038  25.589  0.00  0.00    +0.003 A 
ATOM      9  C   UNL A   1     -25.393  -0.401  26.830  0.00  0.00    +0.037 A 
ATOM     10  C   UNL A   1     -24.363   0.136  27.623  0.00  0.00    +0.141 A 
ATOM     11  O   UNL A   1     -23.690  -0.486  27.888  0.00  0.00    -0.442 OA
ENDROOT
BRANCH   1  12
ATOM     12  O   UNL A   1     -23.550  -1.469  29.893  0.00  0.00    -0.441 OA
BRANCH  12  16
ATOM     13  C   UNL A   1     -27.047  -2.690  30.515  0.00  0.00    +0.015 A 
ATOM     14  C   UNL A   1     -26.888  -3.670  30.161  0.00  0.00    +0.058 A 
ATOM     15  C   UNL A   1     -25.832  -1.788  30.497  0.00  0.00    +0.038 A 
ATOM     16  C   UNL A   1     -24.641  -2.245  29.896  0.00  0.00    +0.142 A 
ATOM     17  C   UNL A   1     -25.786  -4.372  29.466  0.00  0.00    +0.015 A 
ATOM     18  C   UNL A   1     -24.653  -3.572  29.425  0.00  0.00    +0.038 A 
ATOM     19 CL   UNL A   1     -28.354  -4.758  30.171  0.00  0.00    -0.082 Cl
ENDBRANCH  12  16
ENDBRANCH   1  12
TORSDOF 2
ENDMDL
ENDMDL
