REMARK  Name = outputs/IAG933/test6/raw/output_2721_IAG933_linker_design_.xyz
REMARK  14 active torsions:
REMARK  status: ('A' for Active; 'I' for Inactive)
REMARK    1  A    between atoms: C_1  and  C_2
REMARK    2  A    between atoms: C_1  and  C_8
REMARK    3  A    between atoms: C_1  and  C_42
REMARK    4  A    between atoms: C_13  and  N_28
REMARK    5  A    between atoms: C_14  and  C_15
REMARK    6  A    between atoms: C_21  and  O_22
REMARK    7  A    between atoms: O_22  and  C_23
REMARK    8  A    between atoms: C_23  and  C_24
REMARK    9  A    between atoms: C_31  and  C_43
REMARK   10  A    between atoms: C_33  and  C_42
REMARK   11  A    between atoms: C_38  and  C_41
REMARK   12  A    between atoms: C_38  and  C_42
REMARK   13  A    between atoms: C_41  and  C_43
REMARK   14  A    between atoms: C_43  and  C_45
REMARK                            x       y       z     vdW  Elec       q    Type
REMARK                         _______ _______ _______ _____ _____    ______ ____
ROOT
ATOM      1  N   UNL A   1     -24.438   1.442  27.033  0.00  0.00    -0.232 N 
ATOM      2  N   UNL A   1     -23.002   0.482  28.897  0.00  0.00    -0.185 N 
ATOM      3  O   UNL A   1     -23.317   2.412  25.191  0.00  0.00    -0.267 OA
ATOM      4  C   UNL A   1     -24.374   0.692  28.313  0.00  0.00    +0.196 C 
ATOM      5  O   UNL A   1     -23.144   1.546  29.829  0.00  0.00    -0.083 OA
ATOM      6  C   UNL A   1     -23.230   1.840  26.332  0.00  0.00    +0.283 C 
ATOM      7  F   UNL A   1     -21.022   1.763  25.840  0.00  0.00    -0.198 F 
ATOM      8  C   UNL A   1     -21.738   1.001  28.100  0.00  0.00    +0.139 C 
ATOM      9  C   UNL A   1     -22.031   1.560  26.767  0.00  0.00    +0.213 C 
ENDROOT
BRANCH   1  10
ATOM     10  C   UNL A   1     -25.688   1.614  26.461  0.00  0.00    +0.094 C 
ATOM     11  C   UNL A   1     -26.250   2.920  26.395  0.00  0.00    +0.090 C 
ATOM     12  C   UNL A   1     -27.438   3.091  25.645  0.00  0.00    +0.108 C 
ATOM     13  N   UNL A   1     -28.075   2.089  25.003  0.00  0.00    -0.208 NA
ATOM     14  C   UNL A   1     -27.543   0.849  25.079  0.00  0.00    +0.255 C 
ATOM     15  C   UNL A   1     -26.354   0.576  25.777  0.00  0.00    +0.207 C 
ATOM     16  F   UNL A   1     -25.860  -0.681  25.795  0.00  0.00    -0.198 F 
BRANCH  11  17
ATOM     17  C   UNL A   1     -25.642   4.093  27.123  0.00  0.00    +0.268 C 
ATOM     18  N   UNL A   1     -25.614   5.252  26.449  0.00  0.00    -0.200 NA
ATOM     19  C   UNL A   1     -25.026   6.479  26.963  0.00  0.00    +0.139 C 
ATOM     20  O   UNL A   1     -25.143   3.966  28.243  0.00  0.00    -0.268 OA
ENDBRANCH  11  17
BRANCH  14  21
ATOM     21  O   UNL A   1     -28.193  -0.208  24.477  0.00  0.00    -0.456 OA
BRANCH  21  22
ATOM     22  C   UNL A   1     -29.460   0.005  23.866  0.00  0.00    +0.243 C 
BRANCH  22  23
ATOM     23  C   UNL A   1     -30.065  -1.377  23.573  0.00  0.00    +0.229 C 
ATOM     24  O   UNL A   1     -30.729  -1.878  24.721  0.00  0.00    -0.216 OA
ENDBRANCH  22  23
ENDBRANCH  21  22
ENDBRANCH  14  21
ENDBRANCH   1  10
BRANCH   4  25
ATOM     25  C   UNL A   1     -25.516  -0.070  29.009  0.00  0.00    +0.078 C 
BRANCH  25  27
ATOM     26  O   UNL A   1     -28.131  -0.495  29.159  0.00  0.00    -0.223 OA
ATOM     27  C   UNL A   1     -27.057   0.526  29.140  0.00  0.00    +0.156 C 
BRANCH  27  28
ATOM     28  C   UNL A   1     -27.892   1.614  29.830  0.00  0.00    +0.038 C 
BRANCH  28  29
ATOM     29  C   UNL A   1     -28.184   3.051  29.812  0.00  0.00    +0.069 C 
BRANCH  29  30
ATOM     30  C   UNL A   1     -27.104   4.168  30.166  0.00  0.00    +0.185 C 
ATOM     31  O   UNL A   1     -25.803   3.316  30.527  0.00  0.00    -0.220 OA
ENDBRANCH  29  30
BRANCH  29  33
ATOM     32  O   UNL A   1     -30.563   3.425  30.716  0.00  0.00    -0.220 OA
ATOM     33  C   UNL A   1     -29.182   3.519  30.829  0.00  0.00    +0.185 C 
ENDBRANCH  29  33
ENDBRANCH  28  29
ENDBRANCH  27  28
ENDBRANCH  25  27
BRANCH  25  34
ATOM     34  C   UNL A   1     -24.855  -1.012  30.143  0.00  0.00    +0.044 C 
BRANCH  34  35
ATOM     35  C   UNL A   1     -24.973  -2.505  29.788  0.00  0.00    -0.021 C 
ATOM     36  C   UNL A   1     -23.906  -3.173  29.146  0.00  0.00    -0.004 C 
ATOM     37  C   UNL A   1     -23.989  -4.549  28.853  0.00  0.00    -0.000 C 
ATOM     38  C   UNL A   1     -25.137  -5.280  29.205  0.00  0.00    -0.000 C 
ATOM     39  C   UNL A   1     -26.232  -4.611  29.784  0.00  0.00    -0.000 C 
ATOM     40  C   UNL A   1     -26.155  -3.232  30.065  0.00  0.00    -0.004 C 
ENDBRANCH  34  35
BRANCH  34  41
ATOM     41  C   UNL A   1     -25.387  -0.679  31.571  0.00  0.00    +0.077 C 
ATOM     42  C   UNL A   1     -25.189   0.773  32.028  0.00  0.00    +0.019 C 
ATOM     43  C   UNL A   1     -25.336   0.684  33.544  0.00  0.00    +0.020 C 
ATOM     44  C   UNL A   1     -24.829  -0.715  33.905  0.00  0.00    +0.089 C 
ATOM     45  N   UNL A   1     -24.758  -1.481  32.646  0.00  0.00    -0.219 NA
ENDBRANCH  34  41
ENDBRANCH  25  34
ENDBRANCH   4  25
TORSDOF 14
