MODEL 2721
MODEL 1
REMARK VINA RESULT:    -7.813      0.000      0.000
REMARK INTER + INTRA:         -10.302
REMARK INTER:                  -9.184
REMARK INTRA:                  -1.118
REMARK UNBOUND:                -1.118
REMARK  Name = No_2721-gen_results/8p0m/2024-11-27-11-27-31/
REMARK  3 active torsions:
REMARK  status: ('A' for Active; 'I' for Inactive)
REMARK    1  A    between atoms: C_2  and  C_7
REMARK    2  A    between atoms: C_7  and  C_8
REMARK    3  A    between atoms: C_7  and  C_14
REMARK                            x       y       z     vdW  Elec       q    Type
REMARK                         _______ _______ _______ _____ _____    ______ ____
ROOT
ATOM      1  C   UNL A   1     -24.326  -1.222  29.370  0.00  0.00    +0.085 C 
ENDROOT
BRANCH   1   3
ATOM      2  C   UNL A   1     -23.792  -3.469  28.725  0.00  0.00    -0.004 A 
ATOM      3  C   UNL A   1     -24.564  -2.683  29.222  0.00  0.00    -0.013 A 
ATOM      4  C   UNL A   1     -25.786  -3.104  29.736  0.00  0.00    -0.004 A 
ATOM      5  C   UNL A   1     -26.190  -4.484  29.650  0.00  0.00    -0.000 A 
ATOM      6  C   UNL A   1     -25.247  -5.320  29.040  0.00  0.00    -0.000 A 
ATOM      7  C   UNL A   1     -24.112  -4.870  28.555  0.00  0.00    -0.000 A 
ENDBRANCH   1   3
BRANCH   1   8
ATOM      8  C   UNL A   1     -23.890  -0.413  28.566  0.00  0.00    -0.013 A 
ATOM      9  C   UNL A   1     -22.640   0.345  28.711  0.00  0.00    -0.004 A 
ATOM     10  C   UNL A   1     -22.192   1.393  27.814  0.00  0.00    -0.000 A 
ATOM     11  C   UNL A   1     -23.029   1.677  26.745  0.00  0.00    -0.000 A 
ATOM     12  C   UNL A   1     -24.232   1.039  26.576  0.00  0.00    -0.000 A 
ATOM     13  C   UNL A   1     -24.690   0.066  27.431  0.00  0.00    -0.004 A 
ENDBRANCH   1   8
BRANCH   1  14
ATOM     14  C   UNL A   1     -24.636  -0.774  30.769  0.00  0.00    +0.067 A 
ATOM     15  N   UNL A   1     -25.344   0.168  31.025  0.00  0.00    -0.247 NA
ATOM     16  C   UNL A   1     -23.711  -1.176  31.774  0.00  0.00    +0.015 A 
ATOM     17  C   UNL A   1     -24.071  -0.944  33.026  0.00  0.00    +0.003 A 
ATOM     18  C   UNL A   1     -25.766   0.512  32.244  0.00  0.00    +0.099 A 
ATOM     19  C   UNL A   1     -25.041   0.034  33.304  0.00  0.00    +0.021 A 
ENDBRANCH   1  14
TORSDOF 3
ENDMDL
ENDMDL
