REMARK  Name = outputs/IAG933/test6/raw/output_2722_IAG933_linker_design_.xyz
REMARK  12 active torsions:
REMARK  status: ('A' for Active; 'I' for Inactive)
REMARK    1  A    between atoms: C_1  and  C_2
REMARK    2  A    between atoms: C_1  and  C_8
REMARK    3  A    between atoms: C_1  and  C_43
REMARK    4  A    between atoms: C_13  and  C_31
REMARK    5  A    between atoms: C_14  and  C_15
REMARK    6  A    between atoms: C_21  and  O_22
REMARK    7  A    between atoms: O_22  and  C_23
REMARK    8  A    between atoms: C_23  and  C_24
REMARK    9  A    between atoms: N_29  and  C_46
REMARK   10  A    between atoms: C_37  and  S_44
REMARK   11  A    between atoms: C_43  and  S_44
REMARK   12  A    between atoms: C_43  and  C_45
REMARK                            x       y       z     vdW  Elec       q    Type
REMARK                         _______ _______ _______ _____ _____    ______ ____
ROOT
ATOM      1  C   UNL A   1     -25.550  -0.229  28.984  0.00  0.00    +0.055 C 
ENDROOT
BRANCH   1   7
ATOM      2  C   UNL A   1     -24.610   1.248  27.189  0.00  0.00    +0.026 C 
ATOM      3  C   UNL A   1     -23.071   0.258  28.909  0.00  0.00    +0.001 C 
ATOM      4  C   UNL A   1     -23.360   1.544  26.347  0.00  0.00    +0.004 C 
ATOM      5  C   UNL A   1     -21.904   0.946  28.096  0.00  0.00    +0.000 C 
ATOM      6  C   UNL A   1     -22.309   2.023  27.255  0.00  0.00    +0.000 C 
ATOM      7  C   UNL A   1     -24.546   0.708  28.497  0.00  0.00    +0.015 C 
BRANCH   2   8
ATOM      8  C   UNL A   1     -25.688   1.614  26.461  0.00  0.00    +0.016 C 
ATOM      9  C   UNL A   1     -26.250   2.920  26.395  0.00  0.00    +0.073 C 
ATOM     10  C   UNL A   1     -27.438   3.091  25.645  0.00  0.00    +0.106 C 
ATOM     11  N   UNL A   1     -28.075   2.089  25.003  0.00  0.00    -0.208 NA
ATOM     12  C   UNL A   1     -27.543   0.849  25.079  0.00  0.00    +0.253 C 
ATOM     13  C   UNL A   1     -26.354   0.576  25.777  0.00  0.00    +0.189 C 
ATOM     14  F   UNL A   1     -25.860  -0.681  25.795  0.00  0.00    -0.200 F 
BRANCH   9  15
ATOM     15  C   UNL A   1     -25.642   4.093  27.123  0.00  0.00    +0.266 C 
ATOM     16  N   UNL A   1     -25.614   5.252  26.449  0.00  0.00    -0.200 NA
ATOM     17  C   UNL A   1     -25.026   6.479  26.963  0.00  0.00    +0.139 C 
ATOM     18  O   UNL A   1     -25.143   3.966  28.243  0.00  0.00    -0.268 OA
ENDBRANCH   9  15
BRANCH  12  19
ATOM     19  O   UNL A   1     -28.193  -0.208  24.477  0.00  0.00    -0.456 OA
BRANCH  19  20
ATOM     20  C   UNL A   1     -29.460   0.005  23.866  0.00  0.00    +0.243 C 
BRANCH  20  21
ATOM     21  C   UNL A   1     -30.065  -1.377  23.573  0.00  0.00    +0.229 C 
ATOM     22  O   UNL A   1     -30.729  -1.878  24.721  0.00  0.00    -0.216 OA
ENDBRANCH  20  21
ENDBRANCH  19  20
ENDBRANCH  12  19
ENDBRANCH   2   8
ENDBRANCH   1   7
BRANCH   1  23
ATOM     23  C   UNL A   1     -24.855  -1.012  30.143  0.00  0.00    +0.048 C 
BRANCH  23  24
ATOM     24  C   UNL A   1     -24.973  -2.505  29.788  0.00  0.00    -0.020 C 
ATOM     25  C   UNL A   1     -23.906  -3.173  29.146  0.00  0.00    -0.004 C 
ATOM     26  C   UNL A   1     -23.989  -4.549  28.853  0.00  0.00    -0.000 C 
ATOM     27  C   UNL A   1     -25.137  -5.280  29.205  0.00  0.00    -0.000 C 
ATOM     28  C   UNL A   1     -26.232  -4.611  29.784  0.00  0.00    -0.000 C 
ATOM     29  C   UNL A   1     -26.155  -3.232  30.065  0.00  0.00    -0.004 C 
ENDBRANCH  23  24
BRANCH  23  30
ATOM     30  C   UNL A   1     -25.387  -0.679  31.571  0.00  0.00    +0.078 C 
ATOM     31  C   UNL A   1     -25.189   0.773  32.028  0.00  0.00    +0.019 C 
ATOM     32  C   UNL A   1     -25.336   0.684  33.544  0.00  0.00    +0.020 C 
ATOM     33  C   UNL A   1     -24.829  -0.715  33.905  0.00  0.00    +0.089 C 
ATOM     34  N   UNL A   1     -24.758  -1.481  32.646  0.00  0.00    -0.219 NA
ENDBRANCH  23  30
ENDBRANCH   1  23
BRANCH   1  35
ATOM     35  S   UNL A   1     -27.353  -0.075  29.369  0.00  0.00    -0.124 S 
BRANCH  35  42
ATOM     36  C   UNL A   1     -29.747   0.095  28.052  0.00  0.00    +0.006 C 
ATOM     37  N   UNL A   1     -31.866   2.359  27.853  0.00  0.00    -0.271 NA
ATOM     38  C   UNL A   1     -29.716   1.156  29.190  0.00  0.00    +0.055 C 
ATOM     39  C   UNL A   1     -29.395   2.196  31.618  0.00  0.00    +0.235 C 
ATOM     40  C   UNL A   1     -31.377   1.417  26.933  0.00  0.00    +0.072 C 
ATOM     41  C   UNL A   1     -31.173   0.022  27.489  0.00  0.00    +0.018 C 
ATOM     42  C   UNL A   1     -28.650   0.820  30.192  0.00  0.00    +0.125 C 
ATOM     43  C   UNL A   1     -30.705   2.076  29.837  0.00  0.00    +0.135 C 
ATOM     44  C   UNL A   1     -32.073   2.158  29.273  0.00  0.00    +0.102 C 
ATOM     45  O   UNL A   1     -30.337   2.764  30.883  0.00  0.00    -0.337 OA
ATOM     46  N   UNL A   1     -28.915   1.006  31.312  0.00  0.00    -0.179 NA
BRANCH  37  47
ATOM     47  C   UNL A   1     -33.070   3.067  27.462  0.00  0.00    +0.072 C 
ATOM     48  C   UNL A   1     -32.779   3.885  26.212  0.00  0.00    +0.019 C 
ENDBRANCH  37  47
ENDBRANCH  35  42
ENDBRANCH   1  35
TORSDOF 12
