MODEL 2722
MODEL 1
REMARK VINA RESULT:    -6.494      0.000      0.000
REMARK INTER + INTRA:          -7.176
REMARK INTER:                  -6.874
REMARK INTRA:                  -0.302
REMARK UNBOUND:                -0.302
REMARK  Name = No_2722-gen_results/8p0m/2024-11-27-11-27-31/
REMARK  1 active torsions:
REMARK  status: ('A' for Active; 'I' for Inactive)
REMARK    1  A    between atoms: C_4  and  C_7
REMARK                            x       y       z     vdW  Elec       q    Type
REMARK                         _______ _______ _______ _____ _____    ______ ____
ROOT
ATOM      1  C   UNL A   1     -24.082  -1.233  29.125  0.00  0.00    +0.017 A 
ATOM      2  C   UNL A   1     -22.887  -0.865  29.378  0.00  0.00    +0.001 A 
ATOM      3  C   UNL A   1     -22.402   0.504  29.162  0.00  0.00    +0.000 A 
ATOM      4  C   UNL A   1     -24.319  -0.425  27.867  0.00  0.00    +0.089 A 
ATOM      5  N   UNL A   1     -25.527  -0.589  27.193  0.00  0.00    -0.128 NA
ATOM      6  C   UNL A   1     -23.493   0.659  27.475  0.00  0.00    +0.018 A 
ATOM      7  C   UNL A   1     -22.348   0.968  27.923  0.00  0.00    +0.001 A 
ENDROOT
BRANCH   1  11
ATOM      8  C   UNL A   1     -26.257  -4.346  29.723  0.00  0.00    +0.000 A 
ATOM      9  C   UNL A   1     -25.593  -5.062  29.328  0.00  0.00    +0.000 A 
ATOM     10  C   UNL A   1     -25.786  -2.952  29.745  0.00  0.00    +0.000 A 
ATOM     11  C   UNL A   1     -24.551  -2.594  29.129  0.00  0.00    +0.001 A 
ATOM     12  C   UNL A   1     -23.821  -3.629  28.601  0.00  0.00    +0.000 A 
ATOM     13  C   UNL A   1     -24.290  -4.895  28.631  0.00  0.00    +0.000 A 
ENDBRANCH   1  11
TORSDOF 1
ENDMDL
ENDMDL
