MODEL 2723
MODEL 1
REMARK VINA RESULT:    -4.901      0.000      0.000
REMARK INTER + INTRA:          -5.254
REMARK INTER:                  -5.188
REMARK INTRA:                  -0.066
REMARK UNBOUND:                -0.066
REMARK  Name = No_2723-gen_results/8p0m/2024-11-27-11-27-31/
REMARK  1 active torsions:
REMARK  status: ('A' for Active; 'I' for Inactive)
REMARK    1  A    between atoms: C_2  and  C_7
REMARK                            x       y       z     vdW  Elec       q    Type
REMARK                         _______ _______ _______ _____ _____    ______ ____
ROOT
ATOM      1  C   UNL A   1     -23.864  -3.521  28.558  0.00  0.00    -0.000 A 
ATOM      2  C   UNL A   1     -24.605  -2.641  28.932  0.00  0.00    -0.000 A 
ATOM      3  C   UNL A   1     -25.809  -2.935  29.561  0.00  0.00    -0.000 A 
ATOM      4  C   UNL A   1     -26.234  -4.298  29.748  0.00  0.00    -0.000 A 
ATOM      5  C   UNL A   1     -25.329  -5.252  29.266  0.00  0.00    -0.000 A 
ATOM      6  C   UNL A   1     -24.210  -4.922  28.662  0.00  0.00    -0.000 A 
ENDROOT
BRANCH   2   7
ATOM      7  C   UNL A   1     -24.342  -1.183  28.797  0.00  0.00    -0.005 C 
ATOM      8  C   UNL A   1     -23.512  -0.545  29.546  0.00  0.00    -0.026 C 
ATOM      9  C   UNL A   1     -23.303  -1.059  30.966  0.00  0.00    +0.031 C 
ENDBRANCH   2   7
TORSDOF 1
ENDMDL
ENDMDL
