MODEL 2724
MODEL 1
REMARK VINA RESULT:    -6.291      0.000      0.000
REMARK INTER + INTRA:          -8.962
REMARK INTER:                  -8.498
REMARK INTRA:                  -0.464
REMARK UNBOUND:                -0.464
REMARK  Name = No_2724-gen_results/8p0m/2024-11-27-11-27-31/
REMARK  7 active torsions:
REMARK  status: ('A' for Active; 'I' for Inactive)
REMARK    1  A    between atoms: C_2  and  C_3
REMARK    2  A    between atoms: C_3  and  C_5
REMARK    3  A    between atoms: N_4  and  C_11
REMARK    4  A    between atoms: C_9  and  C_12
REMARK    5  A    between atoms: C_11  and  C_17
REMARK    6  A    between atoms: C_17  and  C_19
REMARK    7  A    between atoms: C_20  and  O_21
REMARK                            x       y       z     vdW  Elec       q    Type
REMARK                         _______ _______ _______ _____ _____    ______ ____
ROOT
ATOM      1  O   UNL A   1     -23.290 -20.372   5.335  0.00  0.00    -0.274 OA
ATOM      2  C   UNL A   1     -23.311 -20.748   6.418  0.00  0.00    +0.234 C 
ATOM      3  N   UNL A   1     -22.015 -20.272   7.148  0.00  0.00    -0.251 N 
ATOM      4  C   UNL A   1     -21.727 -20.578   8.506  0.00  0.00    +0.120 C 
ENDROOT
BRANCH   3   5
ATOM      5  C   UNL A   1     -20.972 -19.496   6.475  0.00  0.00    +0.111 C 
ATOM      6  C   UNL A   1     -20.952 -18.240   6.741  0.00  0.00    +0.144 C 
ATOM      7  O   UNL A   1     -20.142 -17.564   5.899  0.00  0.00    -0.230 OA
BRANCH   5   8
ATOM      8  C   UNL A   1     -20.201 -20.255   5.645  0.00  0.00    +0.082 C 
BRANCH   8   9
ATOM      9  C   UNL A   1     -19.287 -21.090   6.443  0.00  0.00    +0.013 C 
ATOM     10  C   UNL A   1     -18.035 -20.586   6.798  0.00  0.00    +0.113 C 
ATOM     11  C   UNL A   1     -17.234 -21.244   5.781  0.00  0.00    +0.071 C 
BRANCH  10  12
ATOM     12  O   UNL A   1     -17.278 -21.195   7.607  0.00  0.00    -0.476 OA
ATOM     13  C   UNL A   1     -17.091 -21.059   6.967  0.00  0.00    +0.252 C 
ENDBRANCH  10  12
ENDBRANCH   8   9
ENDBRANCH   5   8
ENDBRANCH   3   5
BRANCH   2  14
ATOM     14  C   UNL A   1     -23.945 -21.313   7.016  0.00  0.00    +0.112 C 
BRANCH  14  15
ATOM     15  C   UNL A   1     -25.227 -20.791   7.391  0.00  0.00    -0.013 A 
ATOM     16  C   UNL A   1     -26.369 -21.034   6.680  0.00  0.00    -0.004 A 
ATOM     17  C   UNL A   1     -27.608 -20.245   6.873  0.00  0.00    -0.000 A 
ATOM     18  C   UNL A   1     -27.671 -19.250   7.839  0.00  0.00    +0.007 A 
ATOM     19  C   UNL A   1     -26.485 -18.993   8.604  0.00  0.00    +0.080 A 
ATOM     20  C   UNL A   1     -25.376 -19.682   8.344  0.00  0.00    +0.003 A 
BRANCH  19  21
ATOM     21  C   UNL A   1     -26.542 -17.897   9.596  0.00  0.00    +0.388 C 
ATOM     22  O   UNL A   1     -26.846 -18.035  10.800  0.00  0.00    -0.241 OA
ATOM     23  O   UNL A   1     -26.288 -16.680   9.104  0.00  0.00    -0.241 OA
ENDBRANCH  19  21
ENDBRANCH  14  15
ENDBRANCH   2  14
TORSDOF 7
ENDMDL
ENDMDL
