MODEL 2725
MODEL 1
REMARK VINA RESULT:    -5.674      0.000      0.000
REMARK INTER + INTRA:          -6.596
REMARK INTER:                  -6.337
REMARK INTRA:                  -0.259
REMARK UNBOUND:                -0.259
REMARK  Name = No_2725-gen_results/8p0m/2024-11-27-11-27-31/
REMARK  2 active torsions:
REMARK  status: ('A' for Active; 'I' for Inactive)
REMARK    1  A    between atoms: C_3  and  C_9
REMARK    2  A    between atoms: C_9  and  C_10
REMARK                            x       y       z     vdW  Elec       q    Type
REMARK                         _______ _______ _______ _____ _____    ______ ____
ROOT
ATOM      1  C   UNL A   1     -29.508 -10.645  32.184  0.00  0.00    +0.003 C 
ATOM      2  C   UNL A   1     -29.028 -10.069  32.924  0.00  0.00    +0.036 C 
ATOM      3  C   UNL A   1     -28.603 -11.544  31.371  0.00  0.00    +0.007 C 
ATOM      4  C   UNL A   1     -27.736 -12.382  32.053  0.00  0.00    +0.036 C 
ATOM      5  C   UNL A   1     -28.198 -10.759  34.065  0.00  0.00    +0.182 C 
ATOM      6  C   UNL A   1     -27.216 -11.692  33.398  0.00  0.00    +0.182 C 
ATOM      7  O   UNL A   1     -29.003 -11.547  34.901  0.00  0.00    -0.220 OA
ATOM      8  O   UNL A   1     -26.771 -12.685  33.980  0.00  0.00    -0.220 OA
ENDROOT
BRANCH   3   9
ATOM      9  C   UNL A   1     -28.664 -11.636  29.910  0.00  0.00    +0.026 C 
BRANCH   9  10
ATOM     10  C   UNL A   1     -29.733 -11.035  29.233  0.00  0.00    -0.031 C 
ATOM     11  C   UNL A   1     -29.854 -11.288  27.840  0.00  0.00    -0.030 C 
ATOM     12  C   UNL A   1     -29.037 -12.242  27.209  0.00  0.00    +0.030 C 
ENDBRANCH   9  10
ENDBRANCH   3   9
TORSDOF 2
ENDMDL
ENDMDL
