REMARK  Name = outputs/IAG933/test6/raw/output_2725_IAG933_linker_design_.xyz
REMARK  16 active torsions:
REMARK  status: ('A' for Active; 'I' for Inactive)
REMARK    1  A    between atoms: C_1  and  C_2
REMARK    2  A    between atoms: C_1  and  C_8
REMARK    3  A    between atoms: C_1  and  N_31
REMARK    4  A    between atoms: C_13  and  C_36
REMARK    5  A    between atoms: C_14  and  C_15
REMARK    6  A    between atoms: C_21  and  O_22
REMARK    7  A    between atoms: O_22  and  C_23
REMARK    8  A    between atoms: C_23  and  C_24
REMARK    9  A    between atoms: C_28  and  O_34
REMARK   10  A    between atoms: C_30  and  O_34
REMARK   11  A    between atoms: N_31  and  C_39
REMARK   12  A    between atoms: C_33  and  C_40
REMARK   13  A    between atoms: C_33  and  C_41
REMARK   14  A    between atoms: C_36  and  C_38
REMARK   15  A    between atoms: C_37  and  C_39
REMARK   16  A    between atoms: C_37  and  C_41
REMARK                            x       y       z     vdW  Elec       q    Type
REMARK                         _______ _______ _______ _____ _____    ______ ____
ROOT
ATOM      1  N   UNL A   1     -24.812  -0.066  29.070  0.00  0.00    -0.272 N 
ATOM      2  O   UNL A   1     -23.224   1.511  29.181  0.00  0.00    -0.270 OA
ATOM      3  C   UNL A   1     -24.072   0.964  28.443  0.00  0.00    +0.252 C 
ENDROOT
BRANCH   3   5
ATOM      4  C   UNL A   1     -23.351   1.708  26.031  0.00  0.00    +0.180 C 
ATOM      5  C   UNL A   1     -24.247   1.484  26.973  0.00  0.00    +0.093 C 
BRANCH   5   6
ATOM      6  C   UNL A   1     -25.688   1.614  26.461  0.00  0.00    +0.045 C 
ATOM      7  C   UNL A   1     -26.250   2.920  26.395  0.00  0.00    +0.077 C 
ATOM      8  C   UNL A   1     -27.438   3.091  25.645  0.00  0.00    +0.107 C 
ATOM      9  N   UNL A   1     -28.075   2.089  25.003  0.00  0.00    -0.208 NA
ATOM     10  C   UNL A   1     -27.543   0.849  25.079  0.00  0.00    +0.253 C 
ATOM     11  C   UNL A   1     -26.354   0.576  25.777  0.00  0.00    +0.193 C 
ATOM     12  F   UNL A   1     -25.860  -0.681  25.795  0.00  0.00    -0.199 F 
BRANCH   7  13
ATOM     13  C   UNL A   1     -25.642   4.093  27.123  0.00  0.00    +0.266 C 
ATOM     14  N   UNL A   1     -25.614   5.252  26.449  0.00  0.00    -0.200 NA
ATOM     15  C   UNL A   1     -25.026   6.479  26.963  0.00  0.00    +0.139 C 
ATOM     16  O   UNL A   1     -25.143   3.966  28.243  0.00  0.00    -0.268 OA
ENDBRANCH   7  13
BRANCH  10  17
ATOM     17  O   UNL A   1     -28.193  -0.208  24.477  0.00  0.00    -0.456 OA
BRANCH  17  18
ATOM     18  C   UNL A   1     -29.460   0.005  23.866  0.00  0.00    +0.243 C 
BRANCH  18  19
ATOM     19  C   UNL A   1     -30.065  -1.377  23.573  0.00  0.00    +0.229 C 
ATOM     20  O   UNL A   1     -30.729  -1.878  24.721  0.00  0.00    -0.216 OA
ENDBRANCH  18  19
ENDBRANCH  17  18
ENDBRANCH  10  17
ENDBRANCH   5   6
BRANCH   4  21
ATOM     21  O   UNL A   1     -21.986   1.785  25.991  0.00  0.00    -0.441 OA
BRANCH  21  23
ATOM     22  F   UNL A   1     -20.970   0.830  27.809  0.00  0.00    -0.181 F 
ATOM     23  C   UNL A   1     -21.312   1.925  27.319  0.00  0.00    +0.403 C 
ENDBRANCH  21  23
ENDBRANCH   4  21
ENDBRANCH   3   5
BRANCH   1  24
ATOM     24  C   UNL A   1     -26.057  -0.066  28.258  0.00  0.00    +0.102 C 
BRANCH  24  25
ATOM     25  C   UNL A   1     -26.878   0.887  28.850  0.00  0.00    +0.086 C 
BRANCH  25  26
ATOM     26  C   UNL A   1     -28.339   0.205  28.961  0.00  0.00    +0.154 C 
ATOM     27  O   UNL A   1     -28.518  -0.938  28.630  0.00  0.00    -0.296 OA
BRANCH  26  28
ATOM     28  C   UNL A   1     -29.382   1.146  29.384  0.00  0.00    +0.085 C 
BRANCH  28  30
ATOM     29  N   UNL A   1     -29.919   3.403  28.471  0.00  0.00    -0.131 NA
ATOM     30  C   UNL A   1     -29.970   1.929  28.171  0.00  0.00    +0.117 C 
ENDBRANCH  28  30
ENDBRANCH  26  28
ENDBRANCH  25  26
ENDBRANCH  24  25
ENDBRANCH   1  24
BRANCH   1  31
ATOM     31  C   UNL A   1     -24.855  -1.012  30.143  0.00  0.00    +0.114 C 
BRANCH  31  32
ATOM     32  C   UNL A   1     -24.973  -2.505  29.788  0.00  0.00    -0.003 C 
ATOM     33  C   UNL A   1     -23.906  -3.173  29.146  0.00  0.00    -0.003 C 
ATOM     34  C   UNL A   1     -23.989  -4.549  28.853  0.00  0.00    -0.000 C 
ATOM     35  C   UNL A   1     -25.137  -5.280  29.205  0.00  0.00    -0.000 C 
ATOM     36  C   UNL A   1     -26.232  -4.611  29.784  0.00  0.00    -0.000 C 
ATOM     37  C   UNL A   1     -26.155  -3.232  30.065  0.00  0.00    -0.003 C 
ENDBRANCH  31  32
BRANCH  31  38
ATOM     38  C   UNL A   1     -25.387  -0.679  31.571  0.00  0.00    +0.095 C 
ATOM     39  C   UNL A   1     -25.189   0.773  32.028  0.00  0.00    +0.021 C 
ATOM     40  C   UNL A   1     -25.336   0.684  33.544  0.00  0.00    +0.020 C 
ATOM     41  C   UNL A   1     -24.829  -0.715  33.905  0.00  0.00    +0.089 C 
ATOM     42  N   UNL A   1     -24.758  -1.481  32.646  0.00  0.00    -0.217 NA
ENDBRANCH  31  38
ENDBRANCH   1  31
TORSDOF 16
