MODEL 2726
MODEL 1
REMARK VINA RESULT:    -6.420      0.000      0.000
REMARK INTER + INTRA:          -7.447
REMARK INTER:                  -7.546
REMARK INTRA:                   0.099
REMARK UNBOUND:                 0.099
REMARK  Name = No_2726-gen_results/8p0m/2024-11-27-11-27-31/
REMARK  3 active torsions:
REMARK  status: ('A' for Active; 'I' for Inactive)
REMARK    1  A    between atoms: C_1  and  C_2
REMARK    2  A    between atoms: C_5  and  C_12
REMARK    3  A    between atoms: C_10  and  C_15
REMARK                            x       y       z     vdW  Elec       q    Type
REMARK                         _______ _______ _______ _____ _____    ______ ____
ROOT
ATOM      1  C   UNL A   1     -24.299   1.234  26.209  0.00  0.00    +0.255 C 
ATOM      2  N   UNL A   1     -24.008   0.797  27.564  0.00  0.00    -0.218 N 
ATOM      3  O   UNL A   1     -23.262   1.611  25.584  0.00  0.00    -0.270 OA
ATOM      4  C   UNL A   1     -22.821   1.139  28.316  0.00  0.00    +0.327 C 
ATOM      5  C   UNL A   1     -25.090   0.216  28.398  0.00  0.00    +0.123 C 
ATOM      6  O   UNL A   1     -22.620   2.298  28.506  0.00  0.00    -0.265 OA
ENDROOT
BRANCH   1   7
ATOM      7  C   UNL A   1     -25.323   0.876  25.676  0.00  0.00    +0.054 A 
ATOM      8  C   UNL A   1     -26.438   1.644  25.583  0.00  0.00    +0.004 A 
ATOM      9  C   UNL A   1     -27.699   1.221  24.933  0.00  0.00    +0.004 A 
ATOM     10  C   UNL A   1     -27.719  -0.087  24.346  0.00  0.00    +0.071 A 
ATOM     11  C   UNL A   1     -26.517  -0.827  24.401  0.00  0.00    +0.004 A 
ATOM     12  C   UNL A   1     -25.384  -0.369  25.022  0.00  0.00    +0.004 A 
BRANCH  10  13
ATOM     13  C   UNL A   1     -28.870  -0.630  23.663  0.00  0.00    +0.419 C 
ATOM     14  F   UNL A   1     -29.454  -0.197  22.959  0.00  0.00    -0.166 F 
ATOM     15  F   UNL A   1     -28.583  -1.978  23.289  0.00  0.00    -0.166 F 
ATOM     16  F   UNL A   1     -29.804  -1.102  24.755  0.00  0.00    -0.166 F 
ENDBRANCH  10  13
ENDBRANCH   1   7
BRANCH   4  17
ATOM     17  C   UNL A   1     -22.149  -0.006  28.797  0.00  0.00    +0.470 C 
ATOM     18  F   UNL A   1     -22.266   0.111  30.163  0.00  0.00    -0.162 F 
ATOM     19  F   UNL A   1     -22.786  -1.124  28.470  0.00  0.00    -0.162 F 
ATOM     20  F   UNL A   1     -20.896   0.049  28.479  0.00  0.00    -0.162 F 
ENDBRANCH   4  17
TORSDOF 3
ENDMDL
ENDMDL
