REMARK  Name = No_273-gen_results/8p0m/2024-11-27-11-27-31/
REMARK  4 active torsions:
REMARK  status: ('A' for Active; 'I' for Inactive)
REMARK    1  A    between atoms: C_2  and  C_4
REMARK    2  A    between atoms: C_2  and  C_5
REMARK    3  A    between atoms: C_5  and  C_11
REMARK    4  A    between atoms: C_15  and  C_17
REMARK                            x       y       z     vdW  Elec       q    Type
REMARK                         _______ _______ _______ _____ _____    ______ ____
ROOT
ATOM      1  C   UNL A   1     -28.814   1.222  29.974  0.00  0.00    +0.079 C 
ENDROOT
BRANCH   1   2
ATOM      2  C   UNL A   1     -29.983   1.450  29.507  0.00  0.00    -0.018 A 
ATOM      3  C   UNL A   1     -30.978   1.843  30.324  0.00  0.00    -0.004 A 
ATOM      4  C   UNL A   1     -32.328   2.033  29.836  0.00  0.00    -0.000 A 
ATOM      5  C   UNL A   1     -32.529   1.789  28.473  0.00  0.00    -0.000 A 
ATOM      6  C   UNL A   1     -31.527   1.352  27.649  0.00  0.00    -0.001 A 
ATOM      7  C   UNL A   1     -30.338   1.175  28.136  0.00  0.00    -0.004 A 
BRANCH   6   8
ATOM      8  C   UNL A   1     -31.843   1.097  26.219  0.00  0.00    -0.005 C 
ATOM      9  C   UNL A   1     -31.105   1.093  25.355  0.00  0.00    -0.026 C 
ATOM     10  C   UNL A   1     -29.691   1.474  25.691  0.00  0.00    +0.031 C 
ENDBRANCH   6   8
ENDBRANCH   1   2
BRANCH   1  12
ATOM     11 CL   UNL A   1     -28.149  -0.820  28.908  0.00  0.00    -0.076 Cl
ATOM     12  C   UNL A   1     -27.834   0.496  29.060  0.00  0.00    +0.222 C 
ATOM     13  F   UNL A   1     -27.790   1.142  28.045  0.00  0.00    -0.218 F 
BRANCH  12  14
ATOM     14  C   UNL A   1     -26.454   0.669  29.727  0.00  0.00    +0.022 A 
ATOM     15  C   UNL A   1     -25.406   0.371  28.990  0.00  0.00    -0.001 A 
ATOM     16  C   UNL A   1     -24.247  -0.209  29.501  0.00  0.00    -0.000 A 
ATOM     17  C   UNL A   1     -24.137  -0.612  30.729  0.00  0.00    -0.000 A 
ATOM     18  C   UNL A   1     -25.226  -0.288  31.625  0.00  0.00    -0.000 A 
ATOM     19  C   UNL A   1     -26.365   0.229  31.069  0.00  0.00    -0.001 A 
ENDBRANCH  12  14
ENDBRANCH   1  12
TORSDOF 4
