REMARK  Name = outputs/IAG933/test6/raw/output_2730_IAG933_linker_design_.xyz
REMARK  12 active torsions:
REMARK  status: ('A' for Active; 'I' for Inactive)
REMARK    1  A    between atoms: C_1  and  C_2
REMARK    2  A    between atoms: C_1  and  C_8
REMARK    3  A    between atoms: C_1  and  N_36
REMARK    4  A    between atoms: C_13  and  C_31
REMARK    5  A    between atoms: C_14  and  C_15
REMARK    6  A    between atoms: C_21  and  O_22
REMARK    7  A    between atoms: O_22  and  C_23
REMARK    8  A    between atoms: C_23  and  C_24
REMARK    9  A    between atoms: C_28  and  N_36
REMARK   10  A    between atoms: C_28  and  N_37
REMARK   11  A    between atoms: C_32  and  C_38
REMARK   12  A    between atoms: N_34  and  N_36
REMARK                            x       y       z     vdW  Elec       q    Type
REMARK                         _______ _______ _______ _____ _____    ______ ____
ROOT
ATOM      1  O   UNL A   1     -22.795   2.402  26.338  0.00  0.00    -0.432 OA
ATOM      2  C   UNL A   1     -24.167   1.379  26.573  0.00  0.00    +0.259 C 
ATOM      3  C   UNL A   1     -22.288   1.622  27.161  0.00  0.00    +0.311 C 
ATOM      4  N   UNL A   1     -23.530   1.084  27.636  0.00  0.00    -0.213 N 
ATOM      5  N   UNL A   1     -21.086   1.420  27.653  0.00  0.00    -0.091 NA
ENDROOT
BRANCH   2   6
ATOM      6  C   UNL A   1     -25.688   1.614  26.461  0.00  0.00    +0.131 C 
ATOM      7  C   UNL A   1     -26.250   2.920  26.395  0.00  0.00    +0.060 C 
ATOM      8  C   UNL A   1     -27.438   3.091  25.645  0.00  0.00    +0.102 C 
ATOM      9  N   UNL A   1     -28.075   2.089  25.003  0.00  0.00    -0.212 NA
ATOM     10  C   UNL A   1     -27.543   0.849  25.079  0.00  0.00    +0.234 C 
ATOM     11  C   UNL A   1     -26.354   0.576  25.777  0.00  0.00    +0.245 C 
ATOM     12  F   UNL A   1     -25.860  -0.681  25.795  0.00  0.00    -0.227 F 
BRANCH   7  13
ATOM     13  C   UNL A   1     -25.642   4.093  27.123  0.00  0.00    +0.263 C 
ATOM     14  N   UNL A   1     -25.614   5.252  26.449  0.00  0.00    -0.200 NA
ATOM     15  C   UNL A   1     -25.026   6.479  26.963  0.00  0.00    +0.139 C 
ATOM     16  O   UNL A   1     -25.143   3.966  28.243  0.00  0.00    -0.269 OA
ENDBRANCH   7  13
BRANCH  10  17
ATOM     17  O   UNL A   1     -28.193  -0.208  24.477  0.00  0.00    -0.459 OA
BRANCH  17  18
ATOM     18  C   UNL A   1     -29.460   0.005  23.866  0.00  0.00    +0.242 C 
BRANCH  18  19
ATOM     19  C   UNL A   1     -30.065  -1.377  23.573  0.00  0.00    +0.229 C 
ATOM     20  O   UNL A   1     -30.729  -1.878  24.721  0.00  0.00    -0.216 OA
ENDBRANCH  18  19
ENDBRANCH  17  18
ENDBRANCH  10  17
ENDBRANCH   2   6
BRANCH   4  21
ATOM     21  C   UNL A   1     -23.853   0.935  28.832  0.00  0.00    +0.194 C 
BRANCH  21  22
ATOM     22  N   UNL A   1     -25.076   0.016  29.097  0.00  0.00    -0.160 NA
BRANCH  22  25
ATOM     23  C   UNL A   1     -27.561   0.226  28.678  0.00  0.00    +0.280 C 
ATOM     24  O   UNL A   1     -28.227  -0.795  28.622  0.00  0.00    -0.267 OA
ATOM     25  N   UNL A   1     -26.218   0.244  28.620  0.00  0.00    -0.122 NA
BRANCH  23  27
ATOM     26  C   UNL A   1     -28.879   1.942  29.930  0.00  0.00    +0.005 C 
ATOM     27  C   UNL A   1     -28.290   1.511  28.817  0.00  0.00    +0.061 C 
ENDBRANCH  23  27
ENDBRANCH  22  25
BRANCH  22  28
ATOM     28  C   UNL A   1     -24.855  -1.012  30.143  0.00  0.00    +0.117 C 
BRANCH  28  29
ATOM     29  C   UNL A   1     -24.973  -2.505  29.788  0.00  0.00    -0.005 C 
ATOM     30  C   UNL A   1     -23.906  -3.173  29.146  0.00  0.00    -0.003 C 
ATOM     31  C   UNL A   1     -23.989  -4.549  28.853  0.00  0.00    -0.000 C 
ATOM     32  C   UNL A   1     -25.137  -5.280  29.205  0.00  0.00    -0.000 C 
ATOM     33  C   UNL A   1     -26.232  -4.611  29.784  0.00  0.00    -0.000 C 
ATOM     34  C   UNL A   1     -26.155  -3.232  30.065  0.00  0.00    -0.003 C 
ENDBRANCH  28  29
BRANCH  28  35
ATOM     35  C   UNL A   1     -25.387  -0.679  31.571  0.00  0.00    +0.093 C 
ATOM     36  C   UNL A   1     -25.189   0.773  32.028  0.00  0.00    +0.021 C 
ATOM     37  C   UNL A   1     -25.336   0.684  33.544  0.00  0.00    +0.020 C 
ATOM     38  C   UNL A   1     -24.829  -0.715  33.905  0.00  0.00    +0.089 C 
ATOM     39  N   UNL A   1     -24.758  -1.481  32.646  0.00  0.00    -0.218 NA
ENDBRANCH  28  35
ENDBRANCH  22  28
ENDBRANCH  21  22
ENDBRANCH   4  21
TORSDOF 12
