MODEL 2731
MODEL 1
REMARK VINA RESULT:    -6.586      0.000      0.000
REMARK INTER + INTRA:         -11.858
REMARK INTER:                  -9.282
REMARK INTRA:                  -2.576
REMARK UNBOUND:                -2.576
REMARK  Name = No_2731-gen_results/8p0m/2024-11-27-11-27-31/
REMARK  7 active torsions:
REMARK  status: ('A' for Active; 'I' for Inactive)
REMARK    1  A    between atoms: C_3  and  C_7
REMARK    2  A    between atoms: C_8  and  C_14
REMARK    3  A    between atoms: C_14  and  O_16
REMARK    4  A    between atoms: O_16  and  C_17
REMARK    5  A    between atoms: C_17  and  C_18
REMARK    6  A    between atoms: C_18  and  C_19
REMARK    7  A    between atoms: C_21  and  N_25
REMARK                            x       y       z     vdW  Elec       q    Type
REMARK                         _______ _______ _______ _____ _____    ______ ____
ROOT
ATOM      1  C   UNL A   1     -26.883  -1.241  29.627  0.00  0.00    +0.341 C 
ATOM      2  O   UNL A   1     -27.930  -1.049  29.183  0.00  0.00    -0.245 OA
ENDROOT
BRANCH   1   4
ATOM      3  C   UNL A   1     -24.876  -2.416  28.709  0.00  0.00    +0.006 A 
ATOM      4  C   UNL A   1     -26.047  -2.470  29.401  0.00  0.00    +0.076 A 
ATOM      5  C   UNL A   1     -26.530  -3.686  29.889  0.00  0.00    +0.006 A 
ATOM      6  C   UNL A   1     -25.829  -4.911  29.644  0.00  0.00    +0.000 A 
ATOM      7  C   UNL A   1     -24.246  -3.663  28.544  0.00  0.00    +0.000 A 
ATOM      8  C   UNL A   1     -24.714  -4.841  29.001  0.00  0.00    +0.000 A 
BRANCH   3  11
ATOM      9  C   UNL A   1     -24.247   0.650  26.774  0.00  0.00    +0.030 A 
ATOM     10  C   UNL A   1     -24.745  -0.397  27.120  0.00  0.00    +0.002 A 
ATOM     11  C   UNL A   1     -24.307  -1.133  28.220  0.00  0.00    +0.000 A 
ATOM     12  C   UNL A   1     -23.156  -0.666  28.968  0.00  0.00    +0.002 A 
ATOM     13  C   UNL A   1     -22.621   0.556  28.501  0.00  0.00    +0.030 A 
ATOM     14  C   UNL A   1     -23.099   1.174  27.450  0.00  0.00    +0.140 A 
ATOM     15  F   UNL A   1     -22.519   2.315  27.058  0.00  0.00    -0.204 F 
ENDBRANCH   3  11
ENDBRANCH   1   4
BRANCH   1  16
ATOM     16  O   UNL A   1     -26.453  -0.528  30.712  0.00  0.00    -0.445 OA
BRANCH  16  17
ATOM     17  C   UNL A   1     -26.860   0.802  30.721  0.00  0.00    +0.213 C 
BRANCH  17  18
ATOM     18  C   UNL A   1     -25.786   1.647  30.383  0.00  0.00    +0.074 C 
BRANCH  18  19
ATOM     19  C   UNL A   1     -26.009   2.412  29.305  0.00  0.00    -0.017 A 
ATOM     20  C   UNL A   1     -25.357   3.437  29.026  0.00  0.00    +0.015 A 
ATOM     21  C   UNL A   1     -25.752   4.440  28.170  0.00  0.00    +0.081 A 
ATOM     22  C   UNL A   1     -26.842   4.191  27.351  0.00  0.00    +0.019 A 
ATOM     23  C   UNL A   1     -27.606   3.067  27.518  0.00  0.00    +0.001 A 
ATOM     24  C   UNL A   1     -27.295   2.162  28.535  0.00  0.00    -0.004 A 
BRANCH  21  25
ATOM     25  N   UNL A   1     -24.921   5.534  27.949  0.00  0.00    -0.248 NA
ATOM     26  C   UNL A   1     -25.149   6.498  27.152  0.00  0.00    +0.073 C 
ATOM     27  C   UNL A   1     -24.236   7.500  26.938  0.00  0.00    +0.053 C 
ENDBRANCH  21  25
ENDBRANCH  18  19
ENDBRANCH  17  18
ENDBRANCH  16  17
ENDBRANCH   1  16
TORSDOF 7
ENDMDL
ENDMDL
