MODEL 2734
MODEL 1
REMARK VINA RESULT:    -7.357      0.000      0.000
REMARK INTER + INTRA:          -8.547
REMARK INTER:                  -8.217
REMARK INTRA:                  -0.330
REMARK UNBOUND:                -0.330
REMARK  Name = No_2734-gen_results/8p0m/2024-11-27-11-27-31/
REMARK  2 active torsions:
REMARK  status: ('A' for Active; 'I' for Inactive)
REMARK    1  A    between atoms: C_2  and  N_7
REMARK    2  A    between atoms: C_10  and  C_11
REMARK                            x       y       z     vdW  Elec       q    Type
REMARK                         _______ _______ _______ _____ _____    ______ ____
ROOT
ATOM      1  N   UNL A   1     -24.061   0.463  29.546  0.00  0.00    -0.283 N 
ATOM      2  C   UNL A   1     -23.633   1.495  29.052  0.00  0.00    +0.061 C 
ATOM      3  C   UNL A   1     -23.759   1.738  27.675  0.00  0.00    -0.008 C 
ATOM      4  C   UNL A   1     -24.227  -0.507  28.544  0.00  0.00    +0.104 C 
ATOM      5  C   UNL A   1     -24.220  -0.030  27.300  0.00  0.00    +0.052 C 
ENDROOT
BRANCH   1   7
ATOM      6  C   UNL A   1     -24.993   0.493  31.525  0.00  0.00    +0.015 A 
ATOM      7  C   UNL A   1     -24.199   0.054  30.991  0.00  0.00    +0.052 A 
ATOM      8  C   UNL A   1     -25.111   0.078  32.975  0.00  0.00    +0.001 A 
ATOM      9  C   UNL A   1     -24.104  -0.729  33.546  0.00  0.00    +0.000 A 
ATOM     10  C   UNL A   1     -23.019  -0.768  31.346  0.00  0.00    +0.015 A 
ATOM     11  C   UNL A   1     -23.089  -1.164  32.674  0.00  0.00    +0.001 A 
ATOM     12  C   UNL A   1     -26.228   0.486  33.861  0.00  0.00    +0.000 A 
ATOM     13  C   UNL A   1     -26.471  -0.293  34.965  0.00  0.00    +0.000 A 
ATOM     14  C   UNL A   1     -25.362  -1.004  35.578  0.00  0.00    +0.000 A 
ATOM     15  C   UNL A   1     -24.268  -1.330  34.821  0.00  0.00    +0.000 A 
ENDBRANCH   1   7
BRANCH   4  16
ATOM     16  C   UNL A   1     -24.745  -1.844  29.031  0.00  0.00    -0.004 A 
ATOM     17  C   UNL A   1     -25.922  -2.017  29.386  0.00  0.00    -0.003 A 
ATOM     18  C   UNL A   1     -26.435  -3.326  29.687  0.00  0.00    -0.000 A 
ATOM     19  C   UNL A   1     -23.886  -2.987  28.821  0.00  0.00    -0.003 A 
ATOM     20  C   UNL A   1     -24.296  -4.265  29.029  0.00  0.00    -0.000 A 
ATOM     21  C   UNL A   1     -25.614  -4.440  29.494  0.00  0.00    -0.000 A 
ENDBRANCH   4  16
TORSDOF 2
ENDMDL
ENDMDL
