REMARK  Name = outputs/IAG933/test6/raw/output_2735_IAG933_linker_design_.xyz
REMARK  12 active torsions:
REMARK  status: ('A' for Active; 'I' for Inactive)
REMARK    1  A    between atoms: C_1  and  C_2
REMARK    2  A    between atoms: C_1  and  C_8
REMARK    3  A    between atoms: C_1  and  C_41
REMARK    4  A    between atoms: C_13  and  C_28
REMARK    5  A    between atoms: C_14  and  C_15
REMARK    6  A    between atoms: C_21  and  O_22
REMARK    7  A    between atoms: O_22  and  C_23
REMARK    8  A    between atoms: C_23  and  C_24
REMARK    9  A    between atoms: C_29  and  N_34
REMARK   10  A    between atoms: N_34  and  C_41
REMARK   11  A    between atoms: C_36  and  N_37
REMARK   12  A    between atoms: C_36  and  C_39
REMARK                            x       y       z     vdW  Elec       q    Type
REMARK                         _______ _______ _______ _____ _____    ______ ____
ROOT
ATOM      1  C   UNL A   1     -24.550   2.251  30.334  0.00  0.00    +0.327 C 
ATOM      2  N   UNL A   1     -24.447   1.180  29.098  0.00  0.00    -0.243 N 
ATOM      3  N   UNL A   1     -25.452   3.259  30.962  0.00  0.00    -0.178 NA
ATOM      4  O   UNL A   1     -23.575   2.292  30.791  0.00  0.00    -0.250 OA
ENDROOT
BRANCH   2   6
ATOM      5  C   UNL A   1     -24.309   1.571  26.743  0.00  0.00    -0.001 C 
ATOM      6  C   UNL A   1     -23.648   1.297  27.956  0.00  0.00    +0.052 C 
ATOM      7  C   UNL A   1     -22.258   1.235  28.021  0.00  0.00    +0.015 C 
ATOM      8  C   UNL A   1     -21.492   1.632  26.925  0.00  0.00    +0.001 C 
ATOM      9  C   UNL A   1     -22.137   2.049  25.776  0.00  0.00    -0.000 C 
ATOM     10  C   UNL A   1     -23.520   1.952  25.648  0.00  0.00    -0.003 C 
BRANCH   5  11
ATOM     11  C   UNL A   1     -25.688   1.614  26.461  0.00  0.00    +0.093 C 
ATOM     12  C   UNL A   1     -26.250   2.920  26.395  0.00  0.00    +0.059 C 
ATOM     13  C   UNL A   1     -27.438   3.091  25.645  0.00  0.00    +0.102 C 
ATOM     14  N   UNL A   1     -28.075   2.089  25.003  0.00  0.00    -0.212 NA
ATOM     15  C   UNL A   1     -27.543   0.849  25.079  0.00  0.00    +0.234 C 
ATOM     16  C   UNL A   1     -26.354   0.576  25.777  0.00  0.00    +0.244 C 
ATOM     17  F   UNL A   1     -25.860  -0.681  25.795  0.00  0.00    -0.227 F 
BRANCH  12  18
ATOM     18  C   UNL A   1     -25.642   4.093  27.123  0.00  0.00    +0.263 C 
ATOM     19  N   UNL A   1     -25.614   5.252  26.449  0.00  0.00    -0.200 NA
ATOM     20  C   UNL A   1     -25.026   6.479  26.963  0.00  0.00    +0.139 C 
ATOM     21  O   UNL A   1     -25.143   3.966  28.243  0.00  0.00    -0.269 OA
ENDBRANCH  12  18
BRANCH  15  22
ATOM     22  O   UNL A   1     -28.193  -0.208  24.477  0.00  0.00    -0.459 OA
BRANCH  22  23
ATOM     23  C   UNL A   1     -29.460   0.005  23.866  0.00  0.00    +0.242 C 
BRANCH  23  24
ATOM     24  C   UNL A   1     -30.065  -1.377  23.573  0.00  0.00    +0.229 C 
ATOM     25  O   UNL A   1     -30.729  -1.878  24.721  0.00  0.00    -0.216 OA
ENDBRANCH  23  24
ENDBRANCH  22  23
ENDBRANCH  15  22
ENDBRANCH   5  11
ENDBRANCH   2   6
BRANCH   2  27
ATOM     26  C   UNL A   1     -26.441  -0.271  28.479  0.00  0.00    +0.022 C 
ATOM     27  C   UNL A   1     -25.270   0.054  29.159  0.00  0.00    +0.087 C 
BRANCH  27  28
ATOM     28  C   UNL A   1     -24.855  -1.012  30.143  0.00  0.00    +0.057 C 
BRANCH  28  29
ATOM     29  C   UNL A   1     -24.973  -2.505  29.788  0.00  0.00    -0.019 C 
ATOM     30  C   UNL A   1     -23.906  -3.173  29.146  0.00  0.00    -0.004 C 
ATOM     31  C   UNL A   1     -23.989  -4.549  28.853  0.00  0.00    -0.000 C 
ATOM     32  C   UNL A   1     -25.137  -5.280  29.205  0.00  0.00    -0.000 C 
ATOM     33  C   UNL A   1     -26.232  -4.611  29.784  0.00  0.00    -0.000 C 
ATOM     34  C   UNL A   1     -26.155  -3.232  30.065  0.00  0.00    -0.004 C 
ENDBRANCH  28  29
BRANCH  28  35
ATOM     35  C   UNL A   1     -25.387  -0.679  31.571  0.00  0.00    +0.078 C 
ATOM     36  C   UNL A   1     -25.189   0.773  32.028  0.00  0.00    +0.019 C 
ATOM     37  C   UNL A   1     -25.336   0.684  33.544  0.00  0.00    +0.020 C 
ATOM     38  C   UNL A   1     -24.829  -0.715  33.905  0.00  0.00    +0.089 C 
ATOM     39  N   UNL A   1     -24.758  -1.481  32.646  0.00  0.00    -0.219 NA
ENDBRANCH  28  35
ENDBRANCH  27  28
ENDBRANCH   2  27
BRANCH   3  40
ATOM     40  C   UNL A   1     -25.366   3.691  32.395  0.00  0.00    +0.205 C 
BRANCH  40  43
ATOM     41  N   UNL A   1     -27.154   3.622  34.059  0.00  0.00    -0.086 NA
ATOM     42  O   UNL A   1     -27.691   3.279  31.966  0.00  0.00    -0.270 OA
ATOM     43  C   UNL A   1     -26.796   3.494  32.831  0.00  0.00    +0.283 C 
ENDBRANCH  40  43
ENDBRANCH   3  40
TORSDOF 12
