REMARK  Name = No_2736-gen_results/8p0m/2024-11-27-11-27-31/
REMARK  3 active torsions:
REMARK  status: ('A' for Active; 'I' for Inactive)
REMARK    1  A    between atoms: C_7  and  C_8
REMARK    2  A    between atoms: C_12  and  C_15
REMARK    3  A    between atoms: C_15  and  C_16
REMARK                            x       y       z     vdW  Elec       q    Type
REMARK                         _______ _______ _______ _____ _____    ______ ____
ROOT
ATOM      1  O   UNL A   1     -28.123  -1.335  28.487  0.00  0.00    -0.432 OA
ATOM      2  C   UNL A   1     -27.064  -0.824  28.869  0.00  0.00    +0.225 A 
ATOM      3  C   UNL A   1     -27.025   0.188  29.736  0.00  0.00    +0.065 A 
ATOM      4  C   UNL A   1     -25.839   0.851  29.996  0.00  0.00    +0.011 A 
ATOM      5  N   UNL A   1     -25.815  -1.433  28.613  0.00  0.00    -0.210 NA
ATOM      6  C   UNL A   1     -24.577  -0.890  28.921  0.00  0.00    +0.109 A 
ATOM      7  C   UNL A   1     -24.553   0.263  29.641  0.00  0.00    +0.099 A 
ATOM      8  C   UNL A   1     -29.238  -0.839  29.200  0.00  0.00    +0.351 C 
ATOM      9  C   UNL A   1     -28.360   0.520  30.016  0.00  0.00    +0.220 C 
ATOM     10  O   UNL A   1     -29.940  -1.528  29.972  0.00  0.00    -0.171 OA
ATOM     11  O   UNL A   1     -28.631   0.408  31.420  0.00  0.00    -0.214 OA
ENDROOT
BRANCH   7  12
ATOM     12  C   UNL A   1     -23.273   0.884  29.913  0.00  0.00    +0.389 C 
ATOM     13  O   UNL A   1     -22.617   1.320  29.202  0.00  0.00    -0.240 OA
ATOM     14  O   UNL A   1     -22.884   0.680  31.268  0.00  0.00    -0.240 OA
ENDBRANCH   7  12
BRANCH   9  15
ATOM     15  C   UNL A   1     -28.898   1.781  29.510  0.00  0.00    +0.067 C 
BRANCH  15  16
ATOM     16  C   UNL A   1     -30.010   2.166  29.545  0.00  0.00    -0.028 C 
ATOM     17  C   UNL A   1     -30.670   2.365  30.583  0.00  0.00    -0.030 C 
ATOM     18  C   UNL A   1     -32.019   2.887  30.691  0.00  0.00    +0.030 C 
ENDBRANCH  15  16
ENDBRANCH   9  15
TORSDOF 3
