MODEL 2738
MODEL 1
REMARK VINA RESULT:    -7.221      0.000      0.000
REMARK INTER + INTRA:         -11.027
REMARK INTER:                  -9.754
REMARK INTRA:                  -1.274
REMARK UNBOUND:                -1.274
REMARK  Name = No_2738-gen_results/8p0m/2024-11-27-11-27-31/
REMARK  6 active torsions:
REMARK  status: ('A' for Active; 'I' for Inactive)
REMARK    1  A    between atoms: C_2  and  C_15
REMARK    2  A    between atoms: C_3  and  N_23
REMARK    3  A    between atoms: C_4  and  C_7
REMARK    4  A    between atoms: C_7  and  C_8
REMARK    5  A    between atoms: C_8  and  C_9
REMARK    6  A    between atoms: N_23  and  C_24
REMARK                            x       y       z     vdW  Elec       q    Type
REMARK                         _______ _______ _______ _____ _____    ______ ____
ROOT
ATOM      1  C   UNL A   1     -10.036   2.175  36.968  0.00  0.00    +0.021 A 
ATOM      2  C   UNL A   1     -10.166   2.734  36.084  0.00  0.00    +0.055 A 
ATOM      3  C   UNL A   1      -9.368   0.871  36.831  0.00  0.00    +0.067 A 
ATOM      4  C   UNL A   1      -8.807   0.471  35.583  0.00  0.00    -0.007 A 
ATOM      5  C   UNL A   1      -9.639   2.577  34.701  0.00  0.00    +0.004 A 
ATOM      6  C   UNL A   1      -9.021   1.374  34.532  0.00  0.00    -0.003 A 
ENDROOT
BRANCH   2   7
ATOM      7  C   UNL A   1     -10.897   4.179  36.217  0.00  0.00    +0.249 C 
ATOM      8  N   UNL A   1     -12.115   4.114  36.164  0.00  0.00    -0.276 N 
ATOM      9  C   UNL A   1     -12.914   4.585  37.234  0.00  0.00    +0.094 C 
ATOM     10  C   UNL A   1     -14.304   4.211  37.327  0.00  0.00    +0.022 C 
ATOM     11  C   UNL A   1     -14.587   3.379  36.831  0.00  0.00    +0.004 C 
ATOM     12  C   UNL A   1     -14.096   2.688  35.678  0.00  0.00    +0.022 C 
ATOM     13  C   UNL A   1     -12.738   3.085  35.442  0.00  0.00    +0.094 C 
ATOM     14  O   UNL A   1     -10.246   5.230  36.356  0.00  0.00    -0.270 OA
ENDBRANCH   2   7
BRANCH   4  15
ATOM     15  C   UNL A   1      -8.141  -0.775  35.398  0.00  0.00    +0.032 C 
BRANCH  15  16
ATOM     16  C   UNL A   1      -7.113  -0.777  34.446  0.00  0.00    +0.034 C 
BRANCH  16  17
ATOM     17  C   UNL A   1      -5.748  -0.905  34.830  0.00  0.00    +0.017 A 
ATOM     18  C   UNL A   1      -5.217  -2.232  34.794  0.00  0.00    +0.098 A 
ATOM     19  N   UNL A   1      -3.931  -2.188  35.181  0.00  0.00    -0.223 NA
ATOM     20  C   UNL A   1      -4.912   0.133  35.211  0.00  0.00    +0.098 A 
ATOM     21  N   UNL A   1      -3.870   0.198  35.050  0.00  0.00    -0.223 NA
ATOM     22  C   UNL A   1      -3.249  -1.079  35.343  0.00  0.00    +0.199 A 
ENDBRANCH  16  17
ENDBRANCH  15  16
ENDBRANCH   4  15
BRANCH   3  23
ATOM     23  N   UNL A   1      -9.275  -0.038  37.882  0.00  0.00    -0.213 NA
BRANCH  23  24
ATOM     24  C   UNL A   1     -10.343  -0.787  38.469  0.00  0.00    +0.067 A 
ATOM     25  C   UNL A   1     -10.824  -0.804  39.393  0.00  0.00    -0.007 A 
ATOM     26  C   UNL A   1     -10.924  -1.783  37.434  0.00  0.00    +0.016 A 
ATOM     27  C   UNL A   1     -11.915  -2.637  37.857  0.00  0.00    +0.001 A 
ATOM     28  C   UNL A   1     -10.277   0.128  40.515  0.00  0.00    +0.032 C 
ATOM     29  C   UNL A   1     -12.284  -2.623  39.171  0.00  0.00    -0.000 A 
ATOM     30  C   UNL A   1     -11.768  -1.747  39.947  0.00  0.00    -0.003 A 
ENDBRANCH  23  24
ENDBRANCH   3  23
TORSDOF 6
ENDMDL
ENDMDL
