REMARK  Name = outputs/IAG933/test6/raw/output_2739_IAG933_linker_design_.xyz
REMARK  13 active torsions:
REMARK  status: ('A' for Active; 'I' for Inactive)
REMARK    1  A    between atoms: C_1  and  C_2
REMARK    2  A    between atoms: C_1  and  C_8
REMARK    3  A    between atoms: C_1  and  C_43
REMARK    4  A    between atoms: C_13  and  N_32
REMARK    5  A    between atoms: C_14  and  C_15
REMARK    6  A    between atoms: C_15  and  O_18
REMARK    7  A    between atoms: O_18  and  C_28
REMARK    8  A    between atoms: C_21  and  O_22
REMARK    9  A    between atoms: O_22  and  C_23
REMARK   10  A    between atoms: C_23  and  C_24
REMARK   11  A    between atoms: C_28  and  C_29
REMARK   12  A    between atoms: C_29  and  C_34
REMARK   13  A    between atoms: C_34  and  C_44
REMARK                            x       y       z     vdW  Elec       q    Type
REMARK                         _______ _______ _______ _____ _____    ______ ____
ROOT
ATOM      1  C   UNL A   1     -21.668   1.835  26.721  0.00  0.00    +0.312 C 
ATOM      2  F   UNL A   1     -20.376   2.095  26.757  0.00  0.00    -0.199 F 
ATOM      3  N   UNL A   1     -24.292   1.635  26.577  0.00  0.00    -0.161 N 
ATOM      4  C   UNL A   1     -21.716   0.244  28.633  0.00  0.00    +0.235 C 
ATOM      5  N   UNL A   1     -24.356   0.058  28.225  0.00  0.00    -0.001 NA
ATOM      6  O   UNL A   1     -22.326   2.405  25.620  0.00  0.00    -0.281 OA
ATOM      7  C   UNL A   1     -23.636   2.456  25.828  0.00  0.00    +0.361 C 
ATOM      8  C   UNL A   1     -22.321   0.994  27.636  0.00  0.00    +0.145 C 
ATOM      9  C   UNL A   1     -23.670   0.834  27.469  0.00  0.00    +0.331 C 
ATOM     10  C   UNL A   1     -20.283  -0.079  28.616  0.00  0.00    +0.060 C 
ATOM     11  N   UNL A   1     -22.513  -0.261  29.592  0.00  0.00    -0.035 NA
ATOM     12  C   UNL A   1     -23.796  -0.349  29.346  0.00  0.00    +0.346 C 
ENDROOT
BRANCH   3  13
ATOM     13  C   UNL A   1     -25.688   1.614  26.461  0.00  0.00    +0.232 C 
ATOM     14  C   UNL A   1     -26.250   2.920  26.395  0.00  0.00    +0.095 C 
ATOM     15  C   UNL A   1     -27.438   3.091  25.645  0.00  0.00    +0.106 C 
ATOM     16  N   UNL A   1     -28.075   2.089  25.003  0.00  0.00    -0.212 NA
ATOM     17  C   UNL A   1     -27.543   0.849  25.079  0.00  0.00    +0.238 C 
ATOM     18  C   UNL A   1     -26.354   0.576  25.777  0.00  0.00    +0.282 C 
ATOM     19  F   UNL A   1     -25.860  -0.681  25.795  0.00  0.00    -0.223 F 
BRANCH  14  20
ATOM     20  C   UNL A   1     -25.642   4.093  27.123  0.00  0.00    +0.222 C 
ATOM     21  N   UNL A   1     -25.614   5.252  26.449  0.00  0.00    -0.236 NA
ATOM     22  C   UNL A   1     -25.026   6.479  26.963  0.00  0.00    +0.155 C 
BRANCH  20  23
ATOM     23  O   UNL A   1     -25.143   3.966  28.243  0.00  0.00    -0.460 OA
BRANCH  23  24
ATOM     24  C   UNL A   1     -25.596   2.822  28.803  0.00  0.00    +0.215 C 
BRANCH  24  25
ATOM     25  C   UNL A   1     -26.354   3.052  30.152  0.00  0.00    +0.115 C 
BRANCH  25  26
ATOM     26  C   UNL A   1     -25.424   3.720  31.107  0.00  0.00    +0.188 C 
ATOM     27  O   UNL A   1     -24.377   3.204  31.502  0.00  0.00    -0.293 OA
BRANCH  26  29
ATOM     28  O   UNL A   1     -25.258   6.146  31.158  0.00  0.00    -0.212 OA
ATOM     29  C   UNL A   1     -26.047   5.020  31.509  0.00  0.00    +0.246 C 
ENDBRANCH  26  29
ENDBRANCH  25  26
ENDBRANCH  24  25
ENDBRANCH  23  24
ENDBRANCH  20  23
ENDBRANCH  14  20
BRANCH  17  30
ATOM     30  O   UNL A   1     -28.193  -0.208  24.477  0.00  0.00    -0.458 OA
BRANCH  30  31
ATOM     31  C   UNL A   1     -29.460   0.005  23.866  0.00  0.00    +0.242 C 
BRANCH  31  32
ATOM     32  C   UNL A   1     -30.065  -1.377  23.573  0.00  0.00    +0.229 C 
ATOM     33  O   UNL A   1     -30.729  -1.878  24.721  0.00  0.00    -0.216 OA
ENDBRANCH  31  32
ENDBRANCH  30  31
ENDBRANCH  17  30
ENDBRANCH   3  13
BRANCH  12  34
ATOM     34  C   UNL A   1     -24.855  -1.012  30.143  0.00  0.00    +0.148 C 
BRANCH  34  35
ATOM     35  C   UNL A   1     -24.973  -2.505  29.788  0.00  0.00    -0.009 C 
ATOM     36  C   UNL A   1     -23.906  -3.173  29.146  0.00  0.00    -0.004 C 
ATOM     37  C   UNL A   1     -23.989  -4.549  28.853  0.00  0.00    -0.000 C 
ATOM     38  C   UNL A   1     -25.137  -5.280  29.205  0.00  0.00    -0.000 C 
ATOM     39  C   UNL A   1     -26.232  -4.611  29.784  0.00  0.00    -0.000 C 
ATOM     40  C   UNL A   1     -26.155  -3.232  30.065  0.00  0.00    -0.004 C 
ENDBRANCH  34  35
BRANCH  34  41
ATOM     41  C   UNL A   1     -25.387  -0.679  31.571  0.00  0.00    +0.088 C 
ATOM     42  C   UNL A   1     -25.189   0.773  32.028  0.00  0.00    +0.020 C 
ATOM     43  C   UNL A   1     -25.336   0.684  33.544  0.00  0.00    +0.020 C 
ATOM     44  C   UNL A   1     -24.829  -0.715  33.905  0.00  0.00    +0.089 C 
ATOM     45  N   UNL A   1     -24.758  -1.481  32.646  0.00  0.00    -0.218 NA
ENDBRANCH  34  41
ENDBRANCH  12  34
TORSDOF 13
