MODEL 2739
MODEL 1
REMARK VINA RESULT:    -4.797      0.000      0.000
REMARK INTER + INTRA:          -4.797
REMARK INTER:                  -4.797
REMARK INTRA:                   0.000
REMARK UNBOUND:                 0.000
REMARK  Name = No_2739-gen_results/8p0m/2024-11-27-11-27-31/
REMARK  0 active torsions:
REMARK  status: ('A' for Active; 'I' for Inactive)
REMARK                            x       y       z     vdW  Elec       q    Type
REMARK                         _______ _______ _______ _____ _____    ______ ____
ROOT
ATOM      1  C   UNL A   1      -9.068 -10.882  17.867  0.00  0.00    +0.030 A 
ATOM      2  C   UNL A   1     -10.072 -10.217  17.979  0.00  0.00    +0.140 A 
ATOM      3  C   UNL A   1     -10.305  -9.363  19.007  0.00  0.00    +0.030 A 
ATOM      4  C   UNL A   1      -9.323  -9.238  20.008  0.00  0.00    +0.014 A 
ATOM      5  C   UNL A   1      -7.982 -10.733  18.802  0.00  0.00    +0.014 A 
ATOM      6  C   UNL A   1      -8.178  -9.909  19.869  0.00  0.00    +0.058 A 
ATOM      7  F   UNL A   1     -11.064 -10.274  17.054  0.00  0.00    -0.204 F 
ATOM      8 CL   UNL A   1      -6.911  -9.759  21.018  0.00  0.00    -0.082 Cl
ENDROOT
TORSDOF 0
ENDMDL
ENDMDL
