MODEL 2740
MODEL 1
REMARK VINA RESULT:    -7.198      0.000      0.000
REMARK INTER + INTRA:          -7.716
REMARK INTER:                  -7.619
REMARK INTRA:                  -0.097
REMARK UNBOUND:                -0.097
REMARK  Name = No_2740-gen_results/8p0m/2024-11-27-11-27-31/
REMARK  1 active torsions:
REMARK  status: ('A' for Active; 'I' for Inactive)
REMARK    1  A    between atoms: N_4  and  C_12
REMARK                            x       y       z     vdW  Elec       q    Type
REMARK                         _______ _______ _______ _____ _____    ______ ____
ROOT
ATOM      1  O   UNL A   1     -24.033   0.608  31.089  0.00  0.00    -0.274 OA
ATOM      2  C   UNL A   1     -24.577  -0.199  30.471  0.00  0.00    +0.240 C 
ATOM      3  C   UNL A   1     -25.756  -0.769  30.909  0.00  0.00    +0.113 C 
ATOM      4  N   UNL A   1     -23.850  -1.046  29.521  0.00  0.00    -0.204 N 
ATOM      5  C   UNL A   1     -26.279  -1.901  30.462  0.00  0.00    -0.005 A 
ATOM      6  C   UNL A   1     -27.533  -2.477  30.827  0.00  0.00    +0.038 A 
ATOM      7  C   UNL A   1     -27.873  -3.774  30.403  0.00  0.00    +0.195 A 
ATOM      8  C   UNL A   1     -26.841  -4.548  29.841  0.00  0.00    +0.042 A 
ATOM      9  C   UNL A   1     -25.550  -4.069  29.592  0.00  0.00    +0.007 A 
ATOM     10  C   UNL A   1     -25.275  -2.811  29.982  0.00  0.00    +0.051 A 
ATOM     11  C   UNL A   1     -24.227  -2.333  29.323  0.00  0.00    +0.258 C 
ATOM     12  O   UNL A   1     -23.394  -2.999  28.556  0.00  0.00    -0.269 OA
ATOM     13  O   UNL A   1     -29.069  -4.315  30.703  0.00  0.00    -0.287 OA
ENDROOT
BRANCH   4  14
ATOM     14  C   UNL A   1     -22.966  -0.206  28.853  0.00  0.00    +0.061 A 
ATOM     15  C   UNL A   1     -23.535   0.597  28.062  0.00  0.00    +0.015 A 
ATOM     16  C   UNL A   1     -22.671   1.494  27.357  0.00  0.00    +0.001 A 
ATOM     17  C   UNL A   1     -21.287   1.364  27.516  0.00  0.00    +0.000 A 
ATOM     18  C   UNL A   1     -20.765   0.408  28.360  0.00  0.00    +0.001 A 
ATOM     19  C   UNL A   1     -21.612  -0.384  29.040  0.00  0.00    +0.015 A 
ENDBRANCH   4  14
TORSDOF 1
ENDMDL
ENDMDL
