MODEL 2742
MODEL 1
REMARK VINA RESULT:    -5.349      0.000      0.000
REMARK INTER + INTRA:          -5.713
REMARK INTER:                  -5.662
REMARK INTRA:                  -0.051
REMARK UNBOUND:                -0.051
REMARK  Name = No_2742-gen_results/8p0m/2024-11-27-11-27-31/
REMARK  1 active torsions:
REMARK  status: ('A' for Active; 'I' for Inactive)
REMARK    1  A    between atoms: C_6  and  C_7
REMARK                            x       y       z     vdW  Elec       q    Type
REMARK                         _______ _______ _______ _____ _____    ______ ____
ROOT
ATOM      1  C   UNL A   1     -24.100  -4.087  28.681  0.00  0.00    +0.005 A 
ATOM      2  C   UNL A   1     -24.774  -5.048  28.971  0.00  0.00    +0.000 A 
ATOM      3  C   UNL A   1     -26.025  -4.896  29.559  0.00  0.00    +0.000 A 
ATOM      4  C   UNL A   1     -26.537  -3.590  29.884  0.00  0.00    +0.000 A 
ATOM      5  C   UNL A   1     -25.682  -2.536  29.536  0.00  0.00    +0.005 A 
ATOM      6  C   UNL A   1     -24.501  -2.734  28.996  0.00  0.00    +0.055 A 
ENDROOT
BRANCH   6   7
ATOM      7  C   UNL A   1     -23.670  -1.537  28.726  0.00  0.00    +0.265 C 
ATOM      8  O   UNL A   1     -24.069  -0.631  28.040  0.00  0.00    -0.268 OA
ATOM      9  N   UNL A   1     -22.427  -1.499  29.256  0.00  0.00    -0.200 NA
ATOM     10  C   UNL A   1     -21.568  -0.367  28.975  0.00  0.00    +0.139 C 
ENDBRANCH   6   7
TORSDOF 1
ENDMDL
ENDMDL
