MODEL 2743
MODEL 1
REMARK VINA RESULT:    -5.899      0.000      0.000
REMARK INTER + INTRA:          -7.557
REMARK INTER:                  -7.279
REMARK INTRA:                  -0.278
REMARK UNBOUND:                -0.278
REMARK  Name = No_2743-gen_results/8p0m/2024-11-27-11-27-31/
REMARK  4 active torsions:
REMARK  status: ('A' for Active; 'I' for Inactive)
REMARK    1  A    between atoms: C_2  and  C_3
REMARK    2  A    between atoms: N_4  and  C_11
REMARK    3  A    between atoms: C_12  and  C_13
REMARK    4  A    between atoms: C_14  and  C_15
REMARK                            x       y       z     vdW  Elec       q    Type
REMARK                         _______ _______ _______ _____ _____    ______ ____
ROOT
ATOM      1  O   UNL A   1     -24.236  -1.215  31.787  0.00  0.00    -0.270 OA
ATOM      2  C   UNL A   1     -24.636  -1.260  30.707  0.00  0.00    +0.253 C 
ATOM      3  N   UNL A   1     -24.752  -0.079  29.833  0.00  0.00    -0.252 N 
ATOM      4  C   UNL A   1     -24.400   1.202  30.407  0.00  0.00    +0.120 C 
ENDROOT
BRANCH   2   5
ATOM      5  C   UNL A   1     -24.909  -2.464  30.090  0.00  0.00    +0.054 A 
ATOM      6  C   UNL A   1     -26.132  -2.977  30.236  0.00  0.00    +0.004 A 
ATOM      7  C   UNL A   1     -23.907  -3.145  29.316  0.00  0.00    +0.004 A 
ATOM      8  C   UNL A   1     -26.415  -4.375  29.705  0.00  0.00    +0.000 A 
ATOM      9  C   UNL A   1     -24.190  -4.404  28.741  0.00  0.00    +0.000 A 
ATOM     10  C   UNL A   1     -25.416  -5.028  28.968  0.00  0.00    +0.000 A 
ENDBRANCH   2   5
BRANCH   3  11
ATOM     11  C   UNL A   1     -25.168  -0.152  28.518  0.00  0.00    +0.068 C 
ATOM     12  C   UNL A   1     -24.581   0.097  27.690  0.00  0.00    +0.016 C 
BRANCH  12  13
ATOM     13  C   UNL A   1     -25.091  -0.134  26.294  0.00  0.00    +0.001 C 
ATOM     14  C   UNL A   1     -24.756   0.722  25.157  0.00  0.00    +0.000 C 
BRANCH  14  15
ATOM     15  C   UNL A   1     -24.255   1.943  25.572  0.00  0.00    +0.000 C 
ATOM     16  C   UNL A   1     -22.944   2.333  25.422  0.00  0.00    +0.000 C 
ENDBRANCH  14  15
ENDBRANCH  12  13
ENDBRANCH   3  11
TORSDOF 4
ENDMDL
ENDMDL
