REMARK  Name = No_2745-gen_results/8p0m/2024-11-27-11-27-31/
REMARK  4 active torsions:
REMARK  status: ('A' for Active; 'I' for Inactive)
REMARK    1  A    between atoms: C_2  and  C_13
REMARK    2  A    between atoms: C_4  and  C_7
REMARK    3  A    between atoms: N_15  and  C_16
REMARK    4  A    between atoms: C_16  and  C_17
REMARK                            x       y       z     vdW  Elec       q    Type
REMARK                         _______ _______ _______ _____ _____    ______ ____
ROOT
ATOM      1  C   UNL A   1     -28.016  -0.814  28.878  0.00  0.00    +0.005 A 
ATOM      2  C   UNL A   1     -28.469  -0.785  29.829  0.00  0.00    +0.055 A 
ATOM      3  C   UNL A   1     -26.546  -0.876  28.850  0.00  0.00    +0.000 A 
ATOM      4  C   UNL A   1     -25.804  -1.032  30.057  0.00  0.00    +0.000 A 
ATOM      5  C   UNL A   1     -27.944  -0.987  31.207  0.00  0.00    +0.005 A 
ATOM      6  C   UNL A   1     -26.582  -1.039  31.223  0.00  0.00    +0.000 A 
ENDROOT
BRANCH   4   7
ATOM      7  C   UNL A   1     -24.381  -1.108  30.085  0.00  0.00    +0.000 A 
ATOM      8  C   UNL A   1     -23.759  -1.132  30.896  0.00  0.00    +0.000 A 
ATOM      9  C   UNL A   1     -22.239  -1.066  30.985  0.00  0.00    +0.000 A 
ATOM     10  C   UNL A   1     -21.685  -0.865  29.765  0.00  0.00    +0.000 A 
ATOM     11  C   UNL A   1     -22.421  -0.728  28.582  0.00  0.00    +0.000 A 
ATOM     12  C   UNL A   1     -23.852  -0.859  28.716  0.00  0.00    +0.000 A 
ENDBRANCH   4   7
BRANCH   2  13
ATOM     13  C   UNL A   1     -30.083  -0.676  29.875  0.00  0.00    +0.265 C 
ATOM     14  O   UNL A   1     -30.510  -0.173  28.939  0.00  0.00    -0.268 OA
ATOM     15  N   UNL A   1     -30.742  -0.780  31.056  0.00  0.00    -0.197 NA
BRANCH  15  16
ATOM     16  C   UNL A   1     -31.740  -0.903  31.296  0.00  0.00    +0.142 C 
BRANCH  16  17
ATOM     17  C   UNL A   1     -32.754  -0.870  30.851  0.00  0.00    -0.001 A 
ATOM     18  C   UNL A   1     -34.145  -1.073  31.313  0.00  0.00    -0.003 A 
ATOM     19  C   UNL A   1     -35.276  -0.969  30.543  0.00  0.00    -0.000 A 
ATOM     20  C   UNL A   1     -35.126  -0.733  29.191  0.00  0.00    -0.000 A 
ATOM     21  C   UNL A   1     -33.874  -0.565  28.608  0.00  0.00    -0.000 A 
ATOM     22  C   UNL A   1     -32.848  -0.613  29.296  0.00  0.00    -0.003 A 
ENDBRANCH  16  17
ENDBRANCH  15  16
ENDBRANCH   2  13
TORSDOF 4
