MODEL 2745
MODEL 1
REMARK VINA RESULT:    -7.380      0.000      0.000
REMARK INTER + INTRA:          -9.921
REMARK INTER:                  -9.106
REMARK INTRA:                  -0.815
REMARK UNBOUND:                -0.815
REMARK  Name = No_2745-gen_results/8p0m/2024-11-27-11-27-31/
REMARK  4 active torsions:
REMARK  status: ('A' for Active; 'I' for Inactive)
REMARK    1  A    between atoms: C_2  and  C_13
REMARK    2  A    between atoms: C_4  and  C_7
REMARK    3  A    between atoms: N_15  and  C_16
REMARK    4  A    between atoms: C_16  and  C_17
REMARK                            x       y       z     vdW  Elec       q    Type
REMARK                         _______ _______ _______ _____ _____    ______ ____
ROOT
ATOM      1  C   UNL A   1     -11.417   2.068  35.973  0.00  0.00    +0.005 A 
ATOM      2  C   UNL A   1     -11.477   1.995  34.923  0.00  0.00    +0.055 A 
ATOM      3  C   UNL A   1     -12.623   2.541  36.671  0.00  0.00    +0.000 A 
ATOM      4  C   UNL A   1     -13.839   2.748  35.957  0.00  0.00    +0.000 A 
ATOM      5  C   UNL A   1     -12.612   2.092  33.965  0.00  0.00    +0.005 A 
ATOM      6  C   UNL A   1     -13.747   2.538  34.574  0.00  0.00    +0.000 A 
ENDROOT
BRANCH   4   7
ATOM      7  C   UNL A   1     -15.038   3.195  36.586  0.00  0.00    +0.000 A 
ATOM      8  C   UNL A   1     -15.822   3.705  36.174  0.00  0.00    +0.000 A 
ATOM      9  C   UNL A   1     -17.051   4.332  36.823  0.00  0.00    +0.000 A 
ATOM     10  C   UNL A   1     -16.997   4.230  38.173  0.00  0.00    +0.000 A 
ATOM     11  C   UNL A   1     -15.942   3.633  38.874  0.00  0.00    +0.000 A 
ATOM     12  C   UNL A   1     -14.891   3.069  38.062  0.00  0.00    +0.000 A 
ENDBRANCH   4   7
BRANCH   2  13
ATOM     13  C   UNL A   1     -10.146   1.514  34.139  0.00  0.00    +0.265 C 
ATOM     14  O   UNL A   1     -10.355   1.270  33.040  0.00  0.00    -0.268 OA
ATOM     15  N   UNL A   1      -9.069   1.065  34.831  0.00  0.00    -0.197 NA
BRANCH  15  16
ATOM     16  C   UNL A   1      -8.090   0.871  34.561  0.00  0.00    +0.142 C 
BRANCH  16  17
ATOM     17  C   UNL A   1      -7.322   0.073  34.582  0.00  0.00    -0.001 A 
ATOM     18  C   UNL A   1      -7.284  -1.397  34.420  0.00  0.00    -0.003 A 
ATOM     19  C   UNL A   1      -6.167  -2.190  34.490  0.00  0.00    -0.000 A 
ATOM     20  C   UNL A   1      -4.965  -1.597  34.820  0.00  0.00    -0.000 A 
ATOM     21  C   UNL A   1      -4.857  -0.228  35.044  0.00  0.00    -0.000 A 
ATOM     22  C   UNL A   1      -5.847   0.506  34.943  0.00  0.00    -0.003 A 
ENDBRANCH  16  17
ENDBRANCH  15  16
ENDBRANCH   2  13
TORSDOF 4
ENDMDL
ENDMDL
