MODEL 2746
MODEL 1
REMARK VINA RESULT:    -4.488      0.000      0.000
REMARK INTER + INTRA:          -4.750
REMARK INTER:                  -4.750
REMARK INTRA:                   0.000
REMARK UNBOUND:                 0.000
REMARK  Name = No_2746-gen_results/8p0m/2024-11-27-11-27-31/
REMARK  1 active torsions:
REMARK  status: ('A' for Active; 'I' for Inactive)
REMARK    1  A    between atoms: C_2  and  C_5
REMARK                            x       y       z     vdW  Elec       q    Type
REMARK                         _______ _______ _______ _____ _____    ______ ____
ROOT
ATOM      1  F   UNL A   1      -7.743 -10.640  19.462  0.00  0.00    -0.165 F 
ATOM      2  C   UNL A   1      -7.964  -9.658  20.182  0.00  0.00    +0.461 C 
ATOM      3  F   UNL A   1      -7.729  -9.959  21.157  0.00  0.00    -0.165 F 
ATOM      4  F   UNL A   1      -7.254  -8.547  19.778  0.00  0.00    -0.165 F 
ENDROOT
BRANCH   2   5
ATOM      5  C   UNL A   1      -9.459  -9.276  20.010  0.00  0.00    +0.411 C 
ATOM      6  F   UNL A   1     -10.092  -9.056  20.820  0.00  0.00    -0.189 F 
ATOM      7  F   UNL A   1      -9.995  -9.339  18.822  0.00  0.00    -0.189 F 
ENDBRANCH   2   5
TORSDOF 1
ENDMDL
ENDMDL
