MODEL 2747
MODEL 1
REMARK VINA RESULT:    -5.242      0.000      0.000
REMARK INTER + INTRA:          -5.693
REMARK INTER:                  -5.548
REMARK INTRA:                  -0.145
REMARK UNBOUND:                -0.145
REMARK  Name = No_2747-gen_results/8p0m/2024-11-27-11-27-31/
REMARK  1 active torsions:
REMARK  status: ('A' for Active; 'I' for Inactive)
REMARK    1  A    between atoms: C_2  and  C_7
REMARK                            x       y       z     vdW  Elec       q    Type
REMARK                         _______ _______ _______ _____ _____    ______ ____
ROOT
ATOM      1  C   UNL A   1     -23.898  -3.866  28.834  0.00  0.00    +0.004 A 
ATOM      2  C   UNL A   1     -24.297  -2.764  29.132  0.00  0.00    +0.071 A 
ATOM      3  C   UNL A   1     -25.558  -2.584  29.689  0.00  0.00    +0.004 A 
ATOM      4  C   UNL A   1     -26.447  -3.700  29.887  0.00  0.00    -0.000 A 
ATOM      5  C   UNL A   1     -25.914  -4.934  29.493  0.00  0.00    -0.000 A 
ATOM      6  C   UNL A   1     -24.721  -5.049  28.955  0.00  0.00    -0.000 A 
ENDROOT
BRANCH   2   7
ATOM      7  C   UNL A   1     -23.528  -1.500  28.973  0.00  0.00    +0.419 C 
ATOM      8  F   UNL A   1     -22.366  -1.642  28.911  0.00  0.00    -0.166 F 
ATOM      9  F   UNL A   1     -23.840  -0.630  30.067  0.00  0.00    -0.166 F 
ATOM     10  F   UNL A   1     -23.928  -0.776  27.861  0.00  0.00    -0.166 F 
ENDBRANCH   2   7
TORSDOF 1
ENDMDL
ENDMDL
