REMARK  Name = outputs/IAG933/test6/raw/output_2747_IAG933_linker_design_.xyz
REMARK  20 active torsions:
REMARK  status: ('A' for Active; 'I' for Inactive)
REMARK    1  A    between atoms: C_1  and  C_2
REMARK    2  A    between atoms: C_1  and  C_8
REMARK    3  A    between atoms: C_1  and  C_32
REMARK    4  A    between atoms: C_13  and  C_30
REMARK    5  A    between atoms: C_14  and  C_15
REMARK    6  A    between atoms: C_21  and  O_22
REMARK    7  A    between atoms: O_22  and  C_23
REMARK    8  A    between atoms: C_23  and  C_24
REMARK    9  A    between atoms: C_28  and  C_34
REMARK   10  A    between atoms: C_30  and  O_37
REMARK   11  A    between atoms: C_30  and  C_44
REMARK   12  A    between atoms: C_32  and  C_44
REMARK   13  A    between atoms: C_33  and  CA_43
REMARK   14  A    between atoms: C_34  and  O_38
REMARK   15  A    between atoms: C_34  and  CA_43
REMARK   16  A    between atoms: N_36  and  C_40
REMARK   17  A    between atoms: C_40  and  N_41
REMARK   18  A    between atoms: N_41  and  CA_43
REMARK   19  A    between atoms: C_42  and  C_45
REMARK   20  A    between atoms: C_44  and  C_45
REMARK                            x       y       z     vdW  Elec       q    Type
REMARK                         _______ _______ _______ _____ _____    ______ ____
ROOT
ATOM      1  C   UNL A   1     -25.298  -0.056  29.066  0.00  0.00    +0.041 C 
ATOM      2  N   UNL A   1     -26.621   0.028  28.830  0.00  0.00    -0.259 NA
ENDROOT
BRANCH   1   3
ATOM      3  C   UNL A   1     -24.855  -1.012  30.143  0.00  0.00    +0.074 C 
BRANCH   3   4
ATOM      4  C   UNL A   1     -24.973  -2.505  29.788  0.00  0.00    -0.016 C 
ATOM      5  C   UNL A   1     -23.906  -3.173  29.146  0.00  0.00    -0.004 C 
ATOM      6  C   UNL A   1     -23.989  -4.549  28.853  0.00  0.00    -0.000 C 
ATOM      7  C   UNL A   1     -25.137  -5.280  29.205  0.00  0.00    -0.000 C 
ATOM      8  C   UNL A   1     -26.232  -4.611  29.784  0.00  0.00    -0.000 C 
ATOM      9  C   UNL A   1     -26.155  -3.232  30.065  0.00  0.00    -0.004 C 
ENDBRANCH   3   4
BRANCH   3  10
ATOM     10  C   UNL A   1     -25.387  -0.679  31.571  0.00  0.00    +0.082 C 
ATOM     11  C   UNL A   1     -25.189   0.773  32.028  0.00  0.00    +0.020 C 
ATOM     12  C   UNL A   1     -25.336   0.684  33.544  0.00  0.00    +0.020 C 
ATOM     13  C   UNL A   1     -24.829  -0.715  33.905  0.00  0.00    +0.089 C 
ATOM     14  N   UNL A   1     -24.758  -1.481  32.646  0.00  0.00    -0.219 NA
ENDBRANCH   3  10
ENDBRANCH   1   3
BRANCH   1  15
ATOM     15  C   UNL A   1     -24.300   0.484  28.172  0.00  0.00    +0.071 C 
BRANCH  15  16
ATOM     16  C   UNL A   1     -22.823   0.283  28.517  0.00  0.00    +0.009 C 
BRANCH  16  18
ATOM     17  C   UNL A   1     -21.501   1.734  26.378  0.00  0.00    +0.000 C 
ATOM     18  C   UNL A   1     -21.834   1.353  27.829  0.00  0.00    +0.001 C 
ENDBRANCH  16  18
ENDBRANCH  15  16
BRANCH  15  19
ATOM     19  C   UNL A   1     -24.474   1.177  27.018  0.00  0.00    +0.187 C 
BRANCH  19  20
ATOM     20  C   UNL A   1     -25.688   1.614  26.461  0.00  0.00    +0.046 C 
ATOM     21  C   UNL A   1     -26.250   2.920  26.395  0.00  0.00    +0.075 C 
ATOM     22  C   UNL A   1     -27.438   3.091  25.645  0.00  0.00    +0.106 C 
ATOM     23  N   UNL A   1     -28.075   2.089  25.003  0.00  0.00    -0.208 NA
ATOM     24  C   UNL A   1     -27.543   0.849  25.079  0.00  0.00    +0.253 C 
ATOM     25  C   UNL A   1     -26.354   0.576  25.777  0.00  0.00    +0.192 C 
ATOM     26  F   UNL A   1     -25.860  -0.681  25.795  0.00  0.00    -0.200 F 
BRANCH  21  27
ATOM     27  C   UNL A   1     -25.642   4.093  27.123  0.00  0.00    +0.266 C 
ATOM     28  N   UNL A   1     -25.614   5.252  26.449  0.00  0.00    -0.200 NA
ATOM     29  C   UNL A   1     -25.026   6.479  26.963  0.00  0.00    +0.139 C 
ATOM     30  O   UNL A   1     -25.143   3.966  28.243  0.00  0.00    -0.268 OA
ENDBRANCH  21  27
BRANCH  24  31
ATOM     31  O   UNL A   1     -28.193  -0.208  24.477  0.00  0.00    -0.456 OA
BRANCH  31  32
ATOM     32  C   UNL A   1     -29.460   0.005  23.866  0.00  0.00    +0.243 C 
BRANCH  32  33
ATOM     33  C   UNL A   1     -30.065  -1.377  23.573  0.00  0.00    +0.229 C 
ATOM     34  O   UNL A   1     -30.729  -1.878  24.721  0.00  0.00    -0.216 OA
ENDBRANCH  32  33
ENDBRANCH  31  32
ENDBRANCH  24  31
ENDBRANCH  19  20
BRANCH  19  36
ATOM     35  F   UNL A   1     -22.890   2.205  25.639  0.00  0.00    -0.047 F 
ATOM     36  O   UNL A   1     -23.572   1.169  25.910  0.00  0.00    -0.177 OA
ENDBRANCH  19  36
ENDBRANCH  15  19
ENDBRANCH   1  15
BRANCH   2  37
ATOM     37  C   UNL A   1     -27.691  -0.603  29.358  0.00  0.00    +0.214 C 
BRANCH  37  38
ATOM     38  N   UNL A   1     -28.860  -0.812  29.703  0.00  0.00    -0.190 NA
BRANCH  38  39
ATOM     39  CA  UNL A   1     -29.742   0.320  29.732  0.00  0.00    +0.137 C 
BRANCH  39  41
ATOM     40  O   UNL A   1     -29.916   2.565  28.948  0.00  0.00    -0.219 OA
ATOM     41  C   UNL A   1     -29.001   1.490  29.048  0.00  0.00    +0.202 C 
ENDBRANCH  39  41
BRANCH  39  42
ATOM     42  C   UNL A   1     -31.168  -0.197  29.364  0.00  0.00    +0.167 C 
BRANCH  42  43
ATOM     43  C   UNL A   1     -31.351  -0.556  27.877  0.00  0.00    +0.213 C 
ATOM     44  O   UNL A   1     -30.178  -0.616  27.098  0.00  0.00    -0.218 OA
ENDBRANCH  42  43
BRANCH  42  45
ATOM     45  O   UNL A   1     -31.475  -1.315  30.207  0.00  0.00    -0.349 OA
ATOM     46  C   UNL A   1     -32.211  -2.445  29.736  0.00  0.00    +0.174 C 
ENDBRANCH  42  45
ENDBRANCH  39  42
ENDBRANCH  38  39
ENDBRANCH  37  38
ENDBRANCH   2  37
TORSDOF 20
