REMARK  Name = outputs/IAG933/test6/raw/output_2748_IAG933_linker_design_.xyz
REMARK  13 active torsions:
REMARK  status: ('A' for Active; 'I' for Inactive)
REMARK    1  A    between atoms: C_1  and  C_2
REMARK    2  A    between atoms: C_1  and  C_8
REMARK    3  A    between atoms: C_1  and  C_39
REMARK    4  A    between atoms: C_13  and  C_38
REMARK    5  A    between atoms: C_14  and  C_15
REMARK    6  A    between atoms: C_21  and  O_22
REMARK    7  A    between atoms: O_22  and  C_23
REMARK    8  A    between atoms: C_23  and  C_24
REMARK    9  A    between atoms: C_30  and  C_40
REMARK   10  A    between atoms: S_33  and  C_39
REMARK   11  A    between atoms: C_35  and  C_40
REMARK   12  A    between atoms: C_38  and  C_39
REMARK   13  A    between atoms: C_38  and  C_40
REMARK                            x       y       z     vdW  Elec       q    Type
REMARK                         _______ _______ _______ _____ _____    ______ ____
ROOT
ATOM      1  C   UNL A   1     -24.810   1.137  27.720  0.00  0.00    +0.045 C 
ENDROOT
BRANCH   1   2
ATOM      2  C   UNL A   1     -25.688   1.614  26.461  0.00  0.00    +0.072 C 
ATOM      3  C   UNL A   1     -26.250   2.920  26.395  0.00  0.00    +0.055 C 
ATOM      4  C   UNL A   1     -27.438   3.091  25.645  0.00  0.00    +0.102 C 
ATOM      5  N   UNL A   1     -28.075   2.089  25.003  0.00  0.00    -0.212 NA
ATOM      6  C   UNL A   1     -27.543   0.849  25.079  0.00  0.00    +0.234 C 
ATOM      7  C   UNL A   1     -26.354   0.576  25.777  0.00  0.00    +0.240 C 
ATOM      8  F   UNL A   1     -25.860  -0.681  25.795  0.00  0.00    -0.227 F 
BRANCH   3   9
ATOM      9  C   UNL A   1     -25.642   4.093  27.123  0.00  0.00    +0.262 C 
ATOM     10  N   UNL A   1     -25.614   5.252  26.449  0.00  0.00    -0.200 NA
ATOM     11  C   UNL A   1     -25.026   6.479  26.963  0.00  0.00    +0.139 C 
ATOM     12  O   UNL A   1     -25.143   3.966  28.243  0.00  0.00    -0.269 OA
ENDBRANCH   3   9
BRANCH   6  13
ATOM     13  O   UNL A   1     -28.193  -0.208  24.477  0.00  0.00    -0.459 OA
BRANCH  13  14
ATOM     14  C   UNL A   1     -29.460   0.005  23.866  0.00  0.00    +0.242 C 
BRANCH  14  15
ATOM     15  C   UNL A   1     -30.065  -1.377  23.573  0.00  0.00    +0.229 C 
ATOM     16  O   UNL A   1     -30.729  -1.878  24.721  0.00  0.00    -0.216 OA
ENDBRANCH  14  15
ENDBRANCH  13  14
ENDBRANCH   6  13
ENDBRANCH   1   2
BRANCH   1  17
ATOM     17  C   UNL A   1     -25.081  -0.021  28.872  0.00  0.00    +0.146 C 
BRANCH  17  20
ATOM     18  O   UNL A   1     -26.809   1.743  29.614  0.00  0.00    -0.066 OA
ATOM     19  O   UNL A   1     -27.483  -0.665  29.025  0.00  0.00    -0.164 OA
ATOM     20  S   UNL A   1     -26.713   0.465  29.088  0.00  0.00    +0.038 S 
ENDBRANCH  17  20
BRANCH  17  21
ATOM     21  C   UNL A   1     -24.855  -1.012  30.143  0.00  0.00    +0.061 C 
BRANCH  21  22
ATOM     22  C   UNL A   1     -24.973  -2.505  29.788  0.00  0.00    -0.019 C 
ATOM     23  C   UNL A   1     -23.906  -3.173  29.146  0.00  0.00    -0.004 C 
ATOM     24  C   UNL A   1     -23.989  -4.549  28.853  0.00  0.00    -0.000 C 
ATOM     25  C   UNL A   1     -25.137  -5.280  29.205  0.00  0.00    -0.000 C 
ATOM     26  C   UNL A   1     -26.232  -4.611  29.784  0.00  0.00    -0.000 C 
ATOM     27  C   UNL A   1     -26.155  -3.232  30.065  0.00  0.00    -0.004 C 
ENDBRANCH  21  22
BRANCH  21  28
ATOM     28  C   UNL A   1     -25.387  -0.679  31.571  0.00  0.00    +0.079 C 
ATOM     29  C   UNL A   1     -25.189   0.773  32.028  0.00  0.00    +0.019 C 
ATOM     30  C   UNL A   1     -25.336   0.684  33.544  0.00  0.00    +0.020 C 
ATOM     31  C   UNL A   1     -24.829  -0.715  33.905  0.00  0.00    +0.089 C 
ATOM     32  N   UNL A   1     -24.758  -1.481  32.646  0.00  0.00    -0.219 NA
ENDBRANCH  21  28
ENDBRANCH  17  21
ENDBRANCH   1  17
BRANCH   1  33
ATOM     33  C   UNL A   1     -23.371   1.202  27.402  0.00  0.00    +0.157 C 
BRANCH  33  35
ATOM     34  O   UNL A   1     -22.265   0.033  29.267  0.00  0.00    -0.438 OA
ATOM     35  C   UNL A   1     -22.398   0.619  28.494  0.00  0.00    +0.277 C 
ATOM     36  C   UNL A   1     -21.460   0.301  28.614  0.00  0.00    +0.359 C 
ATOM     37  O   UNL A   1     -20.019   0.214  28.448  0.00  0.00    -0.246 OA
ENDBRANCH  33  35
BRANCH  33  40
ATOM     38  O   UNL A   1     -23.202   2.575  25.599  0.00  0.00    -0.245 OA
ATOM     39  O   UNL A   1     -21.363   1.877  26.542  0.00  0.00    -0.245 OA
ATOM     40  C   UNL A   1     -22.706   1.898  26.499  0.00  0.00    +0.368 C 
ENDBRANCH  33  40
ENDBRANCH   1  33
TORSDOF 13
