MODEL 2748
MODEL 1
REMARK VINA RESULT:    -6.438      0.000      0.000
REMARK INTER + INTRA:         -12.350
REMARK INTER:                 -10.202
REMARK INTRA:                  -2.147
REMARK UNBOUND:                -2.147
REMARK  Name = No_2748-gen_results/8p0m/2024-11-27-11-27-31/
REMARK  10 active torsions:
REMARK  status: ('A' for Active; 'I' for Inactive)
REMARK    1  A    between atoms: C_2  and  C_7
REMARK    2  A    between atoms: C_4  and  C_19
REMARK    3  A    between atoms: C_9  and  C_10
REMARK    4  A    between atoms: C_10  and  C_12
REMARK    5  A    between atoms: C_20  and  C_25
REMARK    6  A    between atoms: N_27  and  C_28
REMARK    7  A    between atoms: N_27  and  C_32
REMARK    8  A    between atoms: C_28  and  C_29
REMARK    9  A    between atoms: C_32  and  C_33
REMARK   10  A    between atoms: C_33  and  C_34
REMARK                            x       y       z     vdW  Elec       q    Type
REMARK                         _______ _______ _______ _____ _____    ______ ____
ROOT
ATOM      1  C   UNL A   1     -21.125 -17.627   6.055  0.00  0.00    +0.005 A 
ATOM      2  C   UNL A   1     -21.719 -17.956   5.249  0.00  0.00    +0.056 A 
ATOM      3  C   UNL A   1     -20.089 -18.614   6.544  0.00  0.00    +0.000 A 
ATOM      4  C   UNL A   1     -19.883 -19.812   5.828  0.00  0.00    +0.000 A 
ATOM      5  C   UNL A   1     -21.690 -19.111   4.324  0.00  0.00    +0.005 A 
ATOM      6  C   UNL A   1     -20.744 -20.038   4.738  0.00  0.00    +0.000 A 
ENDROOT
BRANCH   4   7
ATOM      7  C   UNL A   1     -18.854 -20.721   6.247  0.00  0.00    +0.004 A 
ATOM      8  C   UNL A   1     -19.277 -21.601   7.341  0.00  0.00    +0.054 A 
ATOM      9  C   UNL A   1     -18.293 -21.937   8.317  0.00  0.00    +0.004 A 
ATOM     10  C   UNL A   1     -16.943 -21.789   7.980  0.00  0.00    +0.000 A 
ATOM     11  C   UNL A   1     -16.623 -20.906   6.933  0.00  0.00    +0.000 A 
ATOM     12  C   UNL A   1     -17.557 -20.342   6.111  0.00  0.00    +0.000 A 
BRANCH   8  13
ATOM     13  C   UNL A   1     -20.684 -21.914   7.574  0.00  0.00    +0.249 C 
ATOM     14  O   UNL A   1     -21.437 -21.105   8.055  0.00  0.00    -0.270 OA
ATOM     15  N   UNL A   1     -21.201 -22.977   6.948  0.00  0.00    -0.266 N 
BRANCH  15  16
ATOM     16  C   UNL A   1     -22.648 -23.381   7.085  0.00  0.00    +0.209 C 
BRANCH  16  17
ATOM     17  C   UNL A   1     -22.708 -24.531   7.920  0.00  0.00    +0.385 C 
ATOM     18  O   UNL A   1     -22.596 -24.689   8.928  0.00  0.00    -0.244 OA
ATOM     19  O   UNL A   1     -23.380 -25.573   7.238  0.00  0.00    -0.244 OA
ENDBRANCH  16  17
ENDBRANCH  15  16
BRANCH  15  20
ATOM     20  C   UNL A   1     -20.425 -23.974   6.193  0.00  0.00    +0.099 C 
BRANCH  20  21
ATOM     21  C   UNL A   1     -20.587 -23.791   4.827  0.00  0.00    +0.048 C 
BRANCH  21  22
ATOM     22  C   UNL A   1     -19.261 -23.737   4.094  0.00  0.00    -0.024 C 
ATOM     23  C   UNL A   1     -19.299 -22.946   3.045  0.00  0.00    -0.005 C 
ENDBRANCH  21  22
ENDBRANCH  20  21
ENDBRANCH  15  20
ENDBRANCH   8  13
ENDBRANCH   4   7
BRANCH   2  24
ATOM     24  C   UNL A   1     -22.819 -16.923   4.700  0.00  0.00    +0.271 C 
ATOM     25  N   UNL A   1     -22.779 -16.707   3.469  0.00  0.00    -0.141 NA
ATOM     26  C   UNL A   1     -22.978 -15.908   2.799  0.00  0.00    +0.253 C 
ATOM     27  O   UNL A   1     -22.998 -15.915   1.447  0.00  0.00    -0.273 OA
ATOM     28  O   UNL A   1     -23.330 -16.174   5.510  0.00  0.00    -0.268 OA
BRANCH  26  29
ATOM     29  C   UNL A   1     -23.229 -14.635   3.286  0.00  0.00    +0.114 C 
BRANCH  29  30
ATOM     30  C   UNL A   1     -22.283 -13.685   3.277  0.00  0.00    -0.013 A 
ATOM     31  C   UNL A   1     -21.866 -13.062   2.051  0.00  0.00    -0.004 A 
ATOM     32  C   UNL A   1     -20.888 -12.002   2.075  0.00  0.00    -0.000 A 
ATOM     33  C   UNL A   1     -20.364 -11.647   3.349  0.00  0.00    -0.000 A 
ATOM     34  C   UNL A   1     -20.784 -12.233   4.516  0.00  0.00    -0.000 A 
ATOM     35  C   UNL A   1     -21.787 -13.203   4.492  0.00  0.00    -0.004 A 
ENDBRANCH  29  30
ENDBRANCH  26  29
ENDBRANCH   2  24
TORSDOF 10
ENDMDL
ENDMDL
