MODEL 274
MODEL 1
REMARK VINA RESULT:    -7.738      0.000      0.000
REMARK INTER + INTRA:          -8.707
REMARK INTER:                  -8.190
REMARK INTRA:                  -0.516
REMARK UNBOUND:                -0.516
REMARK  Name = No_274-gen_results/8p0m/2024-11-27-11-27-31/
REMARK  1 active torsions:
REMARK  status: ('A' for Active; 'I' for Inactive)
REMARK    1  A    between atoms: C_5  and  C_8
REMARK                            x       y       z     vdW  Elec       q    Type
REMARK                         _______ _______ _______ _____ _____    ______ ____
ROOT
ATOM      1  C   UNL A   1     -24.349   0.092  27.545  0.00  0.00    +0.035 C 
ATOM      2  C   UNL A   1     -23.943   1.228  27.461  0.00  0.00    -0.025 A 
ATOM      3  C   UNL A   1     -22.704   1.508  26.894  0.00  0.00    -0.022 A 
ATOM      4  C   UNL A   1     -21.701   1.635  27.414  0.00  0.00    +0.052 C 
ATOM      5  C   UNL A   1     -23.837  -0.615  28.543  0.00  0.00    +0.048 C 
ATOM      6  C   UNL A   1     -22.330  -0.661  28.846  0.00  0.00    -0.026 C 
ATOM      7  C   UNL A   1     -21.368   0.341  28.480  0.00  0.00    -0.026 C 
ATOM      8  C   UNL A   1     -24.860   2.426  27.482  0.00  0.00    -0.004 A 
ATOM      9  C   UNL A   1     -25.031   3.206  26.386  0.00  0.00    -0.000 A 
ATOM     10  C   UNL A   1     -23.762   3.384  25.532  0.00  0.00    -0.000 A 
ATOM     11  C   UNL A   1     -22.889   2.532  25.785  0.00  0.00    -0.004 A 
ENDROOT
BRANCH   5  12
ATOM     12  C   UNL A   1     -24.415  -1.870  29.055  0.00  0.00    -0.018 A 
ATOM     13  C   UNL A   1     -23.899  -3.011  28.905  0.00  0.00    -0.001 A 
ATOM     14  C   UNL A   1     -24.571  -4.227  29.077  0.00  0.00    +0.042 A 
ATOM     15  C   UNL A   1     -25.701  -1.675  29.588  0.00  0.00    -0.001 A 
ATOM     16  C   UNL A   1     -26.440  -2.867  29.880  0.00  0.00    +0.042 A 
ATOM     17  C   UNL A   1     -25.852  -4.108  29.658  0.00  0.00    +0.196 A 
ATOM     18  O   UNL A   1     -26.518  -5.247  29.942  0.00  0.00    -0.287 OA
ENDBRANCH   5  12
TORSDOF 1
ENDMDL
ENDMDL
