MODEL 2750
MODEL 1
REMARK VINA RESULT:    -5.071      0.000      0.000
REMARK INTER + INTRA:          -5.524
REMARK INTER:                  -5.368
REMARK INTRA:                  -0.157
REMARK UNBOUND:                -0.157
REMARK  Name = No_2750-gen_results/8p0m/2024-11-27-11-27-31/
REMARK  1 active torsions:
REMARK  status: ('A' for Active; 'I' for Inactive)
REMARK    1  A    between atoms: C_5  and  C_8
REMARK                            x       y       z     vdW  Elec       q    Type
REMARK                         _______ _______ _______ _____ _____    ______ ____
ROOT
ATOM      1  F   UNL A   1     -21.873   2.231  27.445  0.00  0.00    -0.204 F 
ATOM      2  C   UNL A   1     -22.330   1.149  27.833  0.00  0.00    +0.140 A 
ATOM      3  C   UNL A   1     -21.720   0.430  28.576  0.00  0.00    +0.030 A 
ATOM      4  C   UNL A   1     -22.141  -0.834  29.169  0.00  0.00    +0.006 A 
ATOM      5  C   UNL A   1     -23.497  -1.220  28.776  0.00  0.00    +0.072 A 
ATOM      6  C   UNL A   1     -24.196  -0.341  27.959  0.00  0.00    +0.006 A 
ATOM      7  C   UNL A   1     -23.679   0.808  27.488  0.00  0.00    +0.030 A 
ENDROOT
BRANCH   5   8
ATOM      8  C   UNL A   1     -24.031  -2.460  29.273  0.00  0.00    +0.419 C 
ATOM      9  F   UNL A   1     -23.898  -2.588  30.406  0.00  0.00    -0.166 F 
ATOM     10  F   UNL A   1     -25.370  -2.578  28.944  0.00  0.00    -0.166 F 
ATOM     11  F   UNL A   1     -23.506  -3.541  28.618  0.00  0.00    -0.166 F 
ENDBRANCH   5   8
TORSDOF 1
ENDMDL
ENDMDL
