MODEL 2752
MODEL 1
REMARK VINA RESULT:    -4.701      0.000      0.000
REMARK INTER + INTRA:          -5.018
REMARK INTER:                  -4.975
REMARK INTRA:                  -0.043
REMARK UNBOUND:                -0.043
REMARK  Name = No_2752-gen_results/8p0m/2024-11-27-11-27-31/
REMARK  1 active torsions:
REMARK  status: ('A' for Active; 'I' for Inactive)
REMARK    1  A    between atoms: C_3  and  C_8
REMARK                            x       y       z     vdW  Elec       q    Type
REMARK                         _______ _______ _______ _____ _____    ______ ____
ROOT
ATOM      1  C   UNL A   1     -21.930  -0.008  28.994  0.00  0.00    +0.042 A 
ATOM      2  C   UNL A   1     -22.346  -1.096  29.317  0.00  0.00    +0.005 A 
ATOM      3  C   UNL A   1     -23.592  -1.592  28.934  0.00  0.00    +0.019 A 
ATOM      4  C   UNL A   1     -24.476  -0.749  28.153  0.00  0.00    +0.005 A 
ATOM      5  C   UNL A   1     -23.927   0.511  27.821  0.00  0.00    +0.042 A 
ATOM      6  C   UNL A   1     -22.745   0.892  28.234  0.00  0.00    +0.196 A 
ATOM      7  O   UNL A   1     -22.339   2.152  27.896  0.00  0.00    -0.287 OA
ENDROOT
BRANCH   3   8
ATOM      8  C   UNL A   1     -24.173  -2.926  29.293  0.00  0.00    +0.093 C 
ATOM      9  N   UNL A   1     -24.118  -3.933  28.559  0.00  0.00    -0.267 NA
ATOM     10  C   UNL A   1     -24.618  -5.145  29.053  0.00  0.00    +0.152 C 
ENDBRANCH   3   8
TORSDOF 1
ENDMDL
ENDMDL
