MODEL 2753
MODEL 1
REMARK VINA RESULT:    -6.456      0.000      0.000
REMARK INTER + INTRA:          -7.101
REMARK INTER:                  -6.833
REMARK INTRA:                  -0.267
REMARK UNBOUND:                -0.267
REMARK  Name = No_2753-gen_results/8p0m/2024-11-27-11-27-31/
REMARK  1 active torsions:
REMARK  status: ('A' for Active; 'I' for Inactive)
REMARK    1  A    between atoms: C_2  and  C_7
REMARK                            x       y       z     vdW  Elec       q    Type
REMARK                         _______ _______ _______ _____ _____    ______ ____
ROOT
ATOM      1  C   UNL A   1     -24.006  -3.982  28.839  0.00  0.00    +0.002 A 
ATOM      2  C   UNL A   1     -24.320  -2.844  29.099  0.00  0.00    +0.018 A 
ATOM      3  C   UNL A   1     -25.553  -2.552  29.673  0.00  0.00    +0.002 A 
ATOM      4  C   UNL A   1     -26.513  -3.594  29.934  0.00  0.00    +0.000 A 
ATOM      5  C   UNL A   1     -26.077  -4.877  29.581  0.00  0.00    +0.000 A 
ATOM      6  C   UNL A   1     -24.908  -5.098  29.024  0.00  0.00    +0.000 A 
ENDROOT
BRANCH   2   7
ATOM      7  C   UNL A   1     -23.469  -1.645  28.873  0.00  0.00    +0.081 A 
ATOM      8  N   UNL A   1     -22.439  -1.465  29.158  0.00  0.00    -0.244 NA
ATOM      9  C   UNL A   1     -24.159  -0.567  28.117  0.00  0.00    +0.019 A 
ATOM     10  C   UNL A   1     -21.556  -0.423  28.951  0.00  0.00    +0.099 A 
ATOM     11  C   UNL A   1     -23.503   0.604  27.847  0.00  0.00    +0.003 A 
ATOM     12  C   UNL A   1     -22.105   0.688  28.274  0.00  0.00    +0.021 A 
ENDBRANCH   2   7
TORSDOF 1
ENDMDL
ENDMDL
