REMARK  Name = outputs/IAG933/test6/raw/output_2754_IAG933_linker_design_.xyz
REMARK  16 active torsions:
REMARK  status: ('A' for Active; 'I' for Inactive)
REMARK    1  A    between atoms: C_1  and  C_2
REMARK    2  A    between atoms: C_1  and  C_8
REMARK    3  A    between atoms: C_1  and  N_29
REMARK    4  A    between atoms: C_13  and  C_44
REMARK    5  A    between atoms: C_14  and  C_15
REMARK    6  A    between atoms: C_21  and  O_22
REMARK    7  A    between atoms: O_22  and  C_23
REMARK    8  A    between atoms: C_23  and  C_24
REMARK    9  A    between atoms: C_30  and  O_31
REMARK   10  A    between atoms: C_30  and  C_35
REMARK   11  A    between atoms: O_31  and  C_41
REMARK   12  A    between atoms: C_32  and  C_40
REMARK   13  A    between atoms: C_32  and  O_43
REMARK   14  A    between atoms: O_33  and  C_35
REMARK   15  A    between atoms: C_34  and  C_44
REMARK   16  A    between atoms: C_41  and  O_43
REMARK                            x       y       z     vdW  Elec       q    Type
REMARK                         _______ _______ _______ _____ _____    ______ ____
ROOT
ATOM      1  N   UNL A   1     -24.996   0.032  29.055  0.00  0.00    -0.264 NA
ATOM      2  C   UNL A   1     -26.339   0.449  28.615  0.00  0.00    +0.106 C 
ATOM      3  C   UNL A   1     -25.078   1.104  27.813  0.00  0.00    +0.089 C 
ENDROOT
BRANCH   3   5
ATOM      4  N   UNL A   1     -22.671  -0.265  28.890  0.00  0.00    -0.128 NA
ATOM      5  C   UNL A   1     -23.567   1.330  27.354  0.00  0.00    +0.009 C 
ATOM      6  C   UNL A   1     -22.519   0.795  28.054  0.00  0.00    +0.086 C 
ATOM      7  C   UNL A   1     -20.951   1.874  26.721  0.00  0.00    +0.001 C 
ATOM      8  C   UNL A   1     -23.253   1.995  26.195  0.00  0.00    -0.002 C 
ATOM      9  C   UNL A   1     -21.930   2.199  25.821  0.00  0.00    -0.000 C 
ATOM     10  C   UNL A   1     -21.243   1.124  27.851  0.00  0.00    +0.018 C 
ENDBRANCH   3   5
BRANCH   3  11
ATOM     11  C   UNL A   1     -25.688   1.614  26.461  0.00  0.00    +0.089 C 
ATOM     12  C   UNL A   1     -26.250   2.920  26.395  0.00  0.00    +0.056 C 
ATOM     13  C   UNL A   1     -27.438   3.091  25.645  0.00  0.00    +0.102 C 
ATOM     14  N   UNL A   1     -28.075   2.089  25.003  0.00  0.00    -0.212 NA
ATOM     15  C   UNL A   1     -27.543   0.849  25.079  0.00  0.00    +0.234 C 
ATOM     16  C   UNL A   1     -26.354   0.576  25.777  0.00  0.00    +0.242 C 
ATOM     17  F   UNL A   1     -25.860  -0.681  25.795  0.00  0.00    -0.227 F 
BRANCH  12  18
ATOM     18  C   UNL A   1     -25.642   4.093  27.123  0.00  0.00    +0.263 C 
ATOM     19  N   UNL A   1     -25.614   5.252  26.449  0.00  0.00    -0.200 NA
ATOM     20  C   UNL A   1     -25.026   6.479  26.963  0.00  0.00    +0.139 C 
ATOM     21  O   UNL A   1     -25.143   3.966  28.243  0.00  0.00    -0.269 OA
ENDBRANCH  12  18
BRANCH  15  22
ATOM     22  O   UNL A   1     -28.193  -0.208  24.477  0.00  0.00    -0.459 OA
BRANCH  22  23
ATOM     23  C   UNL A   1     -29.460   0.005  23.866  0.00  0.00    +0.242 C 
BRANCH  23  24
ATOM     24  C   UNL A   1     -30.065  -1.377  23.573  0.00  0.00    +0.229 C 
ATOM     25  O   UNL A   1     -30.729  -1.878  24.721  0.00  0.00    -0.216 OA
ENDBRANCH  23  24
ENDBRANCH  22  23
ENDBRANCH  15  22
ENDBRANCH   3  11
BRANCH   1  26
ATOM     26  C   UNL A   1     -24.855  -1.012  30.143  0.00  0.00    +0.097 C 
BRANCH  26  27
ATOM     27  C   UNL A   1     -24.973  -2.505  29.788  0.00  0.00    -0.006 C 
ATOM     28  C   UNL A   1     -23.906  -3.173  29.146  0.00  0.00    -0.003 C 
ATOM     29  C   UNL A   1     -23.989  -4.549  28.853  0.00  0.00    -0.000 C 
ATOM     30  C   UNL A   1     -25.137  -5.280  29.205  0.00  0.00    -0.000 C 
ATOM     31  C   UNL A   1     -26.232  -4.611  29.784  0.00  0.00    -0.000 C 
ATOM     32  C   UNL A   1     -26.155  -3.232  30.065  0.00  0.00    -0.003 C 
ENDBRANCH  26  27
BRANCH  26  33
ATOM     33  C   UNL A   1     -25.387  -0.679  31.571  0.00  0.00    +0.092 C 
ATOM     34  C   UNL A   1     -25.189   0.773  32.028  0.00  0.00    +0.021 C 
ATOM     35  C   UNL A   1     -25.336   0.684  33.544  0.00  0.00    +0.020 C 
ATOM     36  C   UNL A   1     -24.829  -0.715  33.905  0.00  0.00    +0.089 C 
ATOM     37  N   UNL A   1     -24.758  -1.481  32.646  0.00  0.00    -0.218 NA
ENDBRANCH  26  33
ENDBRANCH   1  26
BRANCH   2  38
ATOM     38  C   UNL A   1     -27.609  -0.087  28.590  0.00  0.00    +0.163 C 
BRANCH  38  39
ATOM     39  O   UNL A   1     -28.325   0.865  29.353  0.00  0.00    -0.325 OA
BRANCH  39  40
ATOM     40  C   UNL A   1     -27.690   2.132  29.730  0.00  0.00    +0.294 C 
BRANCH  40  41
ATOM     41  O   UNL A   1     -27.992   2.730  31.029  0.00  0.00    -0.324 OA
BRANCH  41  42
ATOM     42  C   UNL A   1     -29.258   2.262  31.402  0.00  0.00    +0.177 C 
BRANCH  42  43
ATOM     43  C   UNL A   1     -30.372   2.598  30.372  0.00  0.00    +0.174 C 
BRANCH  43  44
ATOM     44  O   UNL A   1     -30.031   4.010  29.902  0.00  0.00    -0.348 OA
ATOM     45  C   UNL A   1     -29.657   4.721  31.048  0.00  0.00    +0.174 C 
ENDBRANCH  43  44
ENDBRANCH  42  43
ENDBRANCH  41  42
ENDBRANCH  40  41
ENDBRANCH  39  40
ENDBRANCH  38  39
ENDBRANCH   2  38
TORSDOF 16
