MODEL 2754
MODEL 1
REMARK VINA RESULT:    -4.258      0.000      0.000
REMARK INTER + INTRA:          -4.258
REMARK INTER:                  -4.258
REMARK INTRA:                   0.000
REMARK UNBOUND:                 0.000
REMARK  Name = No_2754-gen_results/8p0m/2024-11-27-11-27-31/
REMARK  0 active torsions:
REMARK  status: ('A' for Active; 'I' for Inactive)
REMARK                            x       y       z     vdW  Elec       q    Type
REMARK                         _______ _______ _______ _____ _____    ______ ____
ROOT
ATOM      1  C   UNL A   1     -26.266  -3.680  29.761  0.00  0.00    +0.000 A 
ATOM      2  C   UNL A   1     -26.068  -4.864  29.615  0.00  0.00    +0.000 A 
ATOM      3  C   UNL A   1     -24.946  -5.381  28.997  0.00  0.00    +0.000 A 
ATOM      4  C   UNL A   1     -23.954  -4.467  28.545  0.00  0.00    +0.000 A 
ATOM      5  C   UNL A   1     -24.140  -3.170  28.883  0.00  0.00    +0.000 A 
ATOM      6  C   UNL A   1     -25.228  -2.770  29.513  0.00  0.00    +0.000 A 
ENDROOT
TORSDOF 0
ENDMDL
ENDMDL
