REMARK  Name = outputs/IAG933/test6/raw/output_2755_IAG933_linker_design_.xyz
REMARK  13 active torsions:
REMARK  status: ('A' for Active; 'I' for Inactive)
REMARK    1  A    between atoms: C_1  and  C_2
REMARK    2  A    between atoms: C_1  and  C_8
REMARK    3  A    between atoms: C_1  and  C_30
REMARK    4  A    between atoms: C_13  and  C_29
REMARK    5  A    between atoms: C_14  and  C_15
REMARK    6  A    between atoms: C_21  and  O_22
REMARK    7  A    between atoms: O_22  and  C_23
REMARK    8  A    between atoms: C_23  and  C_24
REMARK    9  A    between atoms: C_30  and  C_40
REMARK   10  A    between atoms: C_30  and  N_45
REMARK   11  A    between atoms: C_39  and  C_47
REMARK   12  A    between atoms: C_40  and  C_42
REMARK   13  A    between atoms: C_44  and  C_47
REMARK                            x       y       z     vdW  Elec       q    Type
REMARK                         _______ _______ _______ _____ _____    ______ ____
ROOT
ATOM      1  C   UNL A   1     -25.313  -0.075  29.003  0.00  0.00    +0.064 C 
ENDROOT
BRANCH   1   7
ATOM      2  C   UNL A   1     -24.182   1.334  26.887  0.00  0.00    +0.076 C 
ATOM      3  C   UNL A   1     -22.858   0.393  28.885  0.00  0.00    +0.084 C 
ATOM      4  C   UNL A   1     -21.490   0.714  28.309  0.00  0.00    +0.075 C 
ATOM      5  C   UNL A   1     -22.981   1.723  26.022  0.00  0.00    +0.074 C 
ATOM      6  S   UNL A   1     -21.582   1.839  26.903  0.00  0.00    -0.137 S 
ATOM      7  N   UNL A   1     -24.056   0.165  28.212  0.00  0.00    -0.273 NA
BRANCH   2   8
ATOM      8  C   UNL A   1     -25.688   1.614  26.461  0.00  0.00    +0.086 C 
ATOM      9  C   UNL A   1     -26.250   2.920  26.395  0.00  0.00    +0.056 C 
ATOM     10  C   UNL A   1     -27.438   3.091  25.645  0.00  0.00    +0.102 C 
ATOM     11  N   UNL A   1     -28.075   2.089  25.003  0.00  0.00    -0.212 NA
ATOM     12  C   UNL A   1     -27.543   0.849  25.079  0.00  0.00    +0.234 C 
ATOM     13  C   UNL A   1     -26.354   0.576  25.777  0.00  0.00    +0.241 C 
ATOM     14  F   UNL A   1     -25.860  -0.681  25.795  0.00  0.00    -0.227 F 
BRANCH   9  15
ATOM     15  C   UNL A   1     -25.642   4.093  27.123  0.00  0.00    +0.263 C 
ATOM     16  N   UNL A   1     -25.614   5.252  26.449  0.00  0.00    -0.200 NA
ATOM     17  C   UNL A   1     -25.026   6.479  26.963  0.00  0.00    +0.139 C 
ATOM     18  O   UNL A   1     -25.143   3.966  28.243  0.00  0.00    -0.269 OA
ENDBRANCH   9  15
BRANCH  12  19
ATOM     19  O   UNL A   1     -28.193  -0.208  24.477  0.00  0.00    -0.459 OA
BRANCH  19  20
ATOM     20  C   UNL A   1     -29.460   0.005  23.866  0.00  0.00    +0.242 C 
BRANCH  20  21
ATOM     21  C   UNL A   1     -30.065  -1.377  23.573  0.00  0.00    +0.229 C 
ATOM     22  O   UNL A   1     -30.729  -1.878  24.721  0.00  0.00    -0.216 OA
ENDBRANCH  20  21
ENDBRANCH  19  20
ENDBRANCH  12  19
ENDBRANCH   2   8
ENDBRANCH   1   7
BRANCH   1  23
ATOM     23  C   UNL A   1     -24.855  -1.012  30.143  0.00  0.00    +0.053 C 
BRANCH  23  24
ATOM     24  C   UNL A   1     -24.973  -2.505  29.788  0.00  0.00    -0.020 C 
ATOM     25  C   UNL A   1     -23.906  -3.173  29.146  0.00  0.00    -0.004 C 
ATOM     26  C   UNL A   1     -23.989  -4.549  28.853  0.00  0.00    -0.000 C 
ATOM     27  C   UNL A   1     -25.137  -5.280  29.205  0.00  0.00    -0.000 C 
ATOM     28  C   UNL A   1     -26.232  -4.611  29.784  0.00  0.00    -0.000 C 
ATOM     29  C   UNL A   1     -26.155  -3.232  30.065  0.00  0.00    -0.004 C 
ENDBRANCH  23  24
BRANCH  23  30
ATOM     30  C   UNL A   1     -25.387  -0.679  31.571  0.00  0.00    +0.078 C 
ATOM     31  C   UNL A   1     -25.189   0.773  32.028  0.00  0.00    +0.019 C 
ATOM     32  C   UNL A   1     -25.336   0.684  33.544  0.00  0.00    +0.020 C 
ATOM     33  C   UNL A   1     -24.829  -0.715  33.905  0.00  0.00    +0.089 C 
ATOM     34  N   UNL A   1     -24.758  -1.481  32.646  0.00  0.00    -0.219 NA
ENDBRANCH  23  30
ENDBRANCH   1  23
BRANCH   1  35
ATOM     35  C   UNL A   1     -26.741  -0.187  28.521  0.00  0.00    +0.028 C 
BRANCH  35  40
ATOM     36  C   UNL A   1     -30.267   0.174  27.831  0.00  0.00    -0.029 C 
ATOM     37  C   UNL A   1     -29.087  -0.604  28.009  0.00  0.00    +0.036 C 
ATOM     38  S   UNL A   1     -28.363   1.049  30.209  0.00  0.00    -0.137 S 
ATOM     39  C   UNL A   1     -29.592   1.995  29.550  0.00  0.00    +0.069 C 
ATOM     40  C   UNL A   1     -28.158  -0.055  29.010  0.00  0.00    +0.054 C 
ATOM     41  C   UNL A   1     -30.538   1.376  28.619  0.00  0.00    -0.020 C 
BRANCH  39  43
ATOM     42  C   UNL A   1     -30.460   3.505  31.434  0.00  0.00    +0.001 C 
ATOM     43  C   UNL A   1     -29.599   3.383  30.167  0.00  0.00    +0.014 C 
BRANCH  43  47
ATOM     44  C   UNL A   1     -30.002   5.896  29.712  0.00  0.00    +0.000 C 
ATOM     45  C   UNL A   1     -29.264   4.294  27.907  0.00  0.00    +0.000 C 
ATOM     46  C   UNL A   1     -31.583   4.210  28.850  0.00  0.00    +0.000 C 
ATOM     47  C   UNL A   1     -30.085   4.468  29.160  0.00  0.00    +0.001 C 
ENDBRANCH  43  47
ENDBRANCH  39  43
ENDBRANCH  35  40
ENDBRANCH   1  35
TORSDOF 13
