MODEL 2755
MODEL 1
REMARK VINA RESULT:    -5.930      0.000      0.000
REMARK INTER + INTRA:          -6.458
REMARK INTER:                  -6.277
REMARK INTRA:                  -0.182
REMARK UNBOUND:                -0.182
REMARK  Name = No_2755-gen_results/8p0m/2024-11-27-11-27-31/
REMARK  1 active torsions:
REMARK  status: ('A' for Active; 'I' for Inactive)
REMARK    1  A    between atoms: C_5  and  C_11
REMARK                            x       y       z     vdW  Elec       q    Type
REMARK                         _______ _______ _______ _____ _____    ______ ____
ROOT
ATOM      1  C   UNL A   1     -28.585 -10.554  33.692  0.00  0.00    +0.099 A 
ATOM      2  C   UNL A   1     -28.823 -10.678  32.513  0.00  0.00    +0.019 A 
ATOM      3  C   UNL A   1     -28.248 -11.702  31.768  0.00  0.00    +0.003 A 
ATOM      4  C   UNL A   1     -28.453 -11.953  30.312  0.00  0.00    +0.004 A 
ATOM      5  C   UNL A   1     -29.452 -11.157  29.676  0.00  0.00    +0.071 A 
ATOM      6  C   UNL A   1     -30.066 -10.165  30.466  0.00  0.00    +0.004 A 
ATOM      7  C   UNL A   1     -29.799  -9.952  31.763  0.00  0.00    +0.002 A 
ATOM      8  N   UNL A   1     -27.473 -11.207  34.280  0.00  0.00    -0.242 NA
ATOM      9  C   UNL A   1     -26.974 -12.030  33.831  0.00  0.00    +0.099 A 
ATOM     10  C   UNL A   1     -27.221 -12.495  32.427  0.00  0.00    +0.021 A 
ENDROOT
BRANCH   5  11
ATOM     11  C   UNL A   1     -29.726 -11.396  28.258  0.00  0.00    +0.419 C 
ATOM     12  F   UNL A   1     -30.048 -10.411  27.710  0.00  0.00    -0.166 F 
ATOM     13  F   UNL A   1     -28.647 -11.927  27.630  0.00  0.00    -0.166 F 
ATOM     14  F   UNL A   1     -30.720 -12.308  27.979  0.00  0.00    -0.166 F 
ENDBRANCH   5  11
TORSDOF 1
ENDMDL
ENDMDL
