MODEL 2756
MODEL 1
REMARK VINA RESULT:    -6.900      0.000      0.000
REMARK INTER + INTRA:          -8.285
REMARK INTER:                  -7.706
REMARK INTRA:                  -0.579
REMARK UNBOUND:                -0.579
REMARK  Name = No_2756-gen_results/8p0m/2024-11-27-11-27-31/
REMARK  2 active torsions:
REMARK  status: ('A' for Active; 'I' for Inactive)
REMARK    1  A    between atoms: C_1  and  C_2
REMARK    2  A    between atoms: C_5  and  C_13
REMARK                            x       y       z     vdW  Elec       q    Type
REMARK                         _______ _______ _______ _____ _____    ______ ____
ROOT
ATOM      1  C   UNL A   1     -24.330  -1.320  28.441  0.00  0.00    -0.000 A 
ATOM      2  C   UNL A   1     -25.090  -0.809  27.407  0.00  0.00    -0.000 A 
ATOM      3  C   UNL A   1     -24.814   0.415  26.679  0.00  0.00    -0.003 A 
ATOM      4  C   UNL A   1     -23.684   1.181  27.041  0.00  0.00    -0.007 A 
ATOM      5  C   UNL A   1     -22.875   0.652  28.110  0.00  0.00    -0.003 A 
ATOM      6  C   UNL A   1     -23.136  -0.530  28.761  0.00  0.00    -0.000 A 
ENDROOT
BRANCH   1   7
ATOM      7  C   UNL A   1     -24.558  -2.379  28.979  0.00  0.00    -0.000 A 
ATOM      8  C   UNL A   1     -25.999  -2.701  29.331  0.00  0.00    -0.000 A 
ATOM      9  C   UNL A   1     -26.286  -3.974  29.910  0.00  0.00    +0.000 A 
ATOM     10  C   UNL A   1     -25.576  -5.004  29.443  0.00  0.00    +0.000 A 
ATOM     11  C   UNL A   1     -24.335  -4.791  28.866  0.00  0.00    +0.000 A 
ATOM     12  C   UNL A   1     -23.935  -3.562  28.519  0.00  0.00    -0.000 A 
ENDBRANCH   1   7
BRANCH   4  13
ATOM     13  C   UNL A   1     -23.349   2.415  26.378  0.00  0.00    +0.102 C 
ATOM     14 CL   UNL A   1     -24.320   3.652  26.491  0.00  0.00    -0.110 Cl
ATOM     15  C   UNL A   1     -22.638   2.266  25.245  0.00  0.00    +0.022 C 
ENDBRANCH   4  13
TORSDOF 2
ENDMDL
ENDMDL
