MODEL 2757
MODEL 1
REMARK VINA RESULT:    -5.234      0.000      0.000
REMARK INTER + INTRA:          -6.201
REMARK INTER:                  -5.846
REMARK INTRA:                  -0.355
REMARK UNBOUND:                -0.355
REMARK  Name = No_2757-gen_results/8p0m/2024-11-27-11-27-31/
REMARK  2 active torsions:
REMARK  status: ('A' for Active; 'I' for Inactive)
REMARK    1  A    between atoms: C_3  and  C_4
REMARK    2  A    between atoms: C_4  and  C_8
REMARK                            x       y       z     vdW  Elec       q    Type
REMARK                         _______ _______ _______ _____ _____    ______ ____
ROOT
ATOM      1  C   UNL A   1     -26.322  -4.240  29.703  0.00  0.00    -0.000 A 
ATOM      2  C   UNL A   1     -26.003  -3.074  29.685  0.00  0.00    -0.004 A 
ATOM      3  C   UNL A   1     -24.817  -2.663  29.085  0.00  0.00    -0.018 A 
ATOM      4  C   UNL A   1     -25.360  -5.271  29.308  0.00  0.00    -0.000 A 
ATOM      5  C   UNL A   1     -24.212  -4.959  28.621  0.00  0.00    -0.000 A 
ATOM      6  C   UNL A   1     -23.890  -3.605  28.500  0.00  0.00    -0.004 A 
ENDROOT
BRANCH   3   7
ATOM      7  C   UNL A   1     -24.432  -1.302  28.973  0.00  0.00    +0.052 C 
BRANCH   7   8
ATOM      8  C   UNL A   1     -23.129  -0.831  28.944  0.00  0.00    -0.026 C 
ATOM      9  C   UNL A   1     -22.454  -0.493  30.113  0.00  0.00    -0.030 C 
ATOM     10  C   UNL A   1     -23.224  -0.405  31.363  0.00  0.00    +0.030 C 
ENDBRANCH   7   8
ENDBRANCH   3   7
TORSDOF 2
ENDMDL
ENDMDL
