MODEL 2758
MODEL 1
REMARK VINA RESULT:    -6.363      0.000      0.000
REMARK INTER + INTRA:          -9.107
REMARK INTER:                  -8.223
REMARK INTRA:                  -0.883
REMARK UNBOUND:                -0.883
REMARK  Name = No_2758-gen_results/8p0m/2024-11-27-11-27-31/
REMARK  5 active torsions:
REMARK  status: ('A' for Active; 'I' for Inactive)
REMARK    1  A    between atoms: C_2  and  C_15
REMARK    2  A    between atoms: C_6  and  O_8
REMARK    3  A    between atoms: O_8  and  C_9
REMARK    4  A    between atoms: C_9  and  C_10
REMARK    5  A    between atoms: C_15  and  C_17
REMARK                            x       y       z     vdW  Elec       q    Type
REMARK                         _______ _______ _______ _____ _____    ______ ____
ROOT
ATOM      1  C   UNL A   1     -23.701  -0.024  28.373  0.00  0.00    +0.035 A 
ATOM      2  C   UNL A   1     -23.205   0.856  27.708  0.00  0.00    +0.008 A 
ATOM      3  C   UNL A   1     -21.832   1.091  27.641  0.00  0.00    +0.136 A 
ATOM      4  C   UNL A   1     -20.937   0.287  28.451  0.00  0.00    +0.032 A 
ATOM      5  C   UNL A   1     -21.588  -0.713  29.208  0.00  0.00    +0.039 A 
ATOM      6  C   UNL A   1     -22.890  -0.855  29.211  0.00  0.00    +0.142 A 
ATOM      7  F   UNL A   1     -21.253   2.059  26.937  0.00  0.00    -0.204 F 
ENDROOT
BRANCH   2   8
ATOM      8  C   UNL A   1     -24.013   1.750  26.763  0.00  0.00    +0.025 C 
ATOM      9  C   UNL A   1     -24.479   2.821  27.112  0.00  0.00    +0.005 C 
BRANCH   8  10
ATOM     10  C   UNL A   1     -24.260   1.183  25.448  0.00  0.00    +0.004 C 
ATOM     11  C   UNL A   1     -25.131   0.363  25.068  0.00  0.00    +0.000 C 
ENDBRANCH   8  10
ENDBRANCH   2   8
BRANCH   6  12
ATOM     12  O   UNL A   1     -23.450  -1.839  30.014  0.00  0.00    -0.443 OA
BRANCH  12  13
ATOM     13  C   UNL A   1     -24.747  -2.154  29.918  0.00  0.00    +0.423 C 
ATOM     14  F   UNL A   1     -25.305  -2.095  31.150  0.00  0.00    -0.179 F 
BRANCH  13  15
ATOM     15  C   UNL A   1     -24.971  -3.364  29.191  0.00  0.00    +0.469 C 
ATOM     16  F   UNL A   1     -24.952  -3.127  28.076  0.00  0.00    -0.164 F 
ATOM     17  F   UNL A   1     -24.052  -4.229  29.503  0.00  0.00    -0.164 F 
ATOM     18  F   UNL A   1     -26.202  -3.903  29.569  0.00  0.00    -0.164 F 
ENDBRANCH  13  15
ENDBRANCH  12  13
ENDBRANCH   6  12
TORSDOF 5
ENDMDL
ENDMDL
