REMARK  Name = No_2758-gen_results/8p0m/2024-11-27-11-27-31/
REMARK  5 active torsions:
REMARK  status: ('A' for Active; 'I' for Inactive)
REMARK    1  A    between atoms: C_2  and  C_15
REMARK    2  A    between atoms: C_6  and  O_8
REMARK    3  A    between atoms: O_8  and  C_9
REMARK    4  A    between atoms: C_9  and  C_10
REMARK    5  A    between atoms: C_15  and  C_17
REMARK                            x       y       z     vdW  Elec       q    Type
REMARK                         _______ _______ _______ _____ _____    ______ ____
ROOT
ATOM      1  C   UNL A   1     -28.016  -0.814  28.878  0.00  0.00    +0.035 A 
ATOM      2  C   UNL A   1     -27.064  -0.119  28.608  0.00  0.00    +0.008 A 
ATOM      3  C   UNL A   1     -25.765  -0.390  29.036  0.00  0.00    +0.136 A 
ATOM      4  C   UNL A   1     -25.530  -1.530  29.901  0.00  0.00    +0.032 A 
ATOM      5  C   UNL A   1     -26.689  -2.289  30.181  0.00  0.00    +0.039 A 
ATOM      6  C   UNL A   1     -27.873  -1.951  29.737  0.00  0.00    +0.142 A 
ATOM      7  F   UNL A   1     -24.699   0.360  28.775  0.00  0.00    -0.204 F 
ENDROOT
BRANCH   2   8
ATOM      8  C   UNL A   1     -27.146   1.085  27.665  0.00  0.00    +0.025 C 
ATOM      9  C   UNL A   1     -27.231   2.231  28.071  0.00  0.00    +0.005 C 
BRANCH   8  10
ATOM     10  C   UNL A   1     -27.205   0.751  26.252  0.00  0.00    +0.004 C 
ATOM     11  C   UNL A   1     -26.815  -0.276  25.644  0.00  0.00    +0.000 C 
ENDBRANCH   8  10
ENDBRANCH   2   8
BRANCH   6  12
ATOM     12  O   UNL A   1     -28.965  -2.732  30.091  0.00  0.00    -0.443 OA
BRANCH  12  13
ATOM     13  C   UNL A   1     -28.802  -3.963  30.590  0.00  0.00    +0.423 C 
ATOM     14  F   UNL A   1     -28.386  -4.786  29.599  0.00  0.00    -0.179 F 
BRANCH  13  15
ATOM     15  C   UNL A   1     -29.935  -4.412  31.337  0.00  0.00    +0.469 C 
ATOM     16  F   UNL A   1     -29.734  -5.473  31.701  0.00  0.00    -0.164 F 
ATOM     17  F   UNL A   1     -30.139  -3.604  32.335  0.00  0.00    -0.164 F 
ATOM     18  F   UNL A   1     -31.067  -4.367  30.521  0.00  0.00    -0.164 F 
ENDBRANCH  13  15
ENDBRANCH  12  13
ENDBRANCH   6  12
TORSDOF 5
