REMARK  Name = No_2759-gen_results/8p0m/2024-11-27-11-27-31/
REMARK  10 active torsions:
REMARK  status: ('A' for Active; 'I' for Inactive)
REMARK    1  A    between atoms: C_2  and  C_13
REMARK    2  A    between atoms: C_4  and  C_6
REMARK    3  A    between atoms: C_8  and  C_21
REMARK    4  A    between atoms: C_21  and  O_22
REMARK    5  A    between atoms: O_22  and  C_24
REMARK    6  A    between atoms: C_24  and  C_25
REMARK    7  A    between atoms: C_25  and  N_27
REMARK    8  A    between atoms: C_28  and  C_31
REMARK    9  A    between atoms: C_31  and  C_32
REMARK   10  A    between atoms: C_32  and  C_33
REMARK                            x       y       z     vdW  Elec       q    Type
REMARK                         _______ _______ _______ _____ _____    ______ ____
ROOT
ATOM      1  C   UNL A   1     -24.401  -1.097  30.096  0.00  0.00    +0.007 A 
ATOM      2  C   UNL A   1     -23.734   0.141  29.938  0.00  0.00    +0.076 A 
ATOM      3  C   UNL A   1     -22.407   0.181  29.400  0.00  0.00    +0.006 A 
ATOM      4  C   UNL A   1     -21.778  -1.066  29.152  0.00  0.00    +0.000 A 
ATOM      5  C   UNL A   1     -22.583  -2.175  29.045  0.00  0.00    +0.000 A 
ATOM      6  C   UNL A   1     -23.834  -2.278  29.560  0.00  0.00    +0.000 A 
ENDROOT
BRANCH   1  10
ATOM      7  C   UNL A   1     -28.016  -0.814  28.878  0.00  0.00    +0.016 A 
ATOM      8  C   UNL A   1     -28.469  -0.785  29.829  0.00  0.00    +0.054 A 
ATOM      9  C   UNL A   1     -26.546  -0.876  28.850  0.00  0.00    +0.058 A 
ATOM     10  C   UNL A   1     -25.804  -1.032  30.057  0.00  0.00    +0.011 A 
ATOM     11  C   UNL A   1     -27.944  -0.987  31.207  0.00  0.00    +0.005 A 
ATOM     12  C   UNL A   1     -26.561  -1.075  31.227  0.00  0.00    +0.001 A 
ATOM     13 CL   UNL A   1     -25.695  -0.769  27.366  0.00  0.00    -0.082 Cl
BRANCH   8  14
ATOM     14  C   UNL A   1     -30.082  -0.670  29.886  0.00  0.00    +0.249 C 
ATOM     15  O   UNL A   1     -30.794  -1.435  30.354  0.00  0.00    -0.270 OA
ATOM     16  N   UNL A   1     -30.535   0.423  29.221  0.00  0.00    -0.276 N 
ATOM     17  C   UNL A   1     -31.942   0.651  29.078  0.00  0.00    +0.094 C 
ATOM     18  C   UNL A   1     -32.267   1.688  28.616  0.00  0.00    +0.022 C 
ATOM     19  C   UNL A   1     -31.319   2.657  28.041  0.00  0.00    +0.004 C 
ATOM     20  C   UNL A   1     -29.938   2.387  28.136  0.00  0.00    +0.022 C 
ATOM     21  C   UNL A   1     -29.559   1.352  28.752  0.00  0.00    +0.094 C 
ENDBRANCH   8  14
ENDBRANCH   1  10
BRANCH   2  22
ATOM     22  C   UNL A   1     -24.293   1.423  30.474  0.00  0.00    +0.348 C 
ATOM     23  O   UNL A   1     -24.416   1.552  31.777  0.00  0.00    -0.244 OA
BRANCH  22  24
ATOM     24  O   UNL A   1     -24.686   2.300  29.650  0.00  0.00    -0.383 OA
BRANCH  24  25
ATOM     25  C   UNL A   1     -25.656   3.239  30.017  0.00  0.00    +0.404 C 
ATOM     26  O   UNL A   1     -26.161   3.318  31.174  0.00  0.00    -0.239 OA
BRANCH  25  27
ATOM     27  C   UNL A   1     -26.163   3.995  28.931  0.00  0.00    +0.345 C 
ATOM     28  O   UNL A   1     -26.069   3.605  27.886  0.00  0.00    -0.261 OA
BRANCH  27  29
ATOM     29  N   UNL A   1     -26.980   5.066  29.234  0.00  0.00    -0.173 NA
ATOM     30  C   UNL A   1     -27.535   5.902  28.188  0.00  0.00    +0.063 C 
BRANCH  30  31
ATOM     31  C   UNL A   1     -27.171   7.273  28.519  0.00  0.00    +0.043 C 
ATOM     32  C   UNL A   1     -27.683   8.296  27.519  0.00  0.00    +0.006 C 
BRANCH  31  33
ATOM     33  C   UNL A   1     -26.509   7.679  29.511  0.00  0.00    +0.032 C 
BRANCH  33  34
ATOM     34  C   UNL A   1     -26.048   8.961  29.717  0.00  0.00    -0.026 C 
ATOM     35  C   UNL A   1     -26.382   9.934  28.777  0.00  0.00    -0.005 C 
ENDBRANCH  33  34
ENDBRANCH  31  33
ENDBRANCH  30  31
ENDBRANCH  27  29
ENDBRANCH  25  27
ENDBRANCH  24  25
ENDBRANCH  22  24
ENDBRANCH   2  22
TORSDOF 10
