MODEL 275
MODEL 1
REMARK VINA RESULT:    -6.016      0.000      0.000
REMARK INTER + INTRA:         -10.181
REMARK INTER:                  -8.478
REMARK INTRA:                  -1.703
REMARK UNBOUND:                -1.703
REMARK  Name = No_275-gen_results/8p0m/2024-11-27-11-27-31/
REMARK  7 active torsions:
REMARK  status: ('A' for Active; 'I' for Inactive)
REMARK    1  A    between atoms: C_2  and  O_19
REMARK    2  A    between atoms: C_3  and  C_4
REMARK    3  A    between atoms: C_6  and  C_13
REMARK    4  A    between atoms: C_12  and  O_16
REMARK    5  A    between atoms: O_19  and  C_20
REMARK    6  A    between atoms: C_21  and  C_22
REMARK    7  A    between atoms: C_23  and  C_24
REMARK                            x       y       z     vdW  Elec       q    Type
REMARK                         _______ _______ _______ _____ _____    ______ ____
ROOT
ATOM      1  C   UNL A   1     -18.330 -22.333   8.198  0.00  0.00    +0.181 A 
ATOM      2  C   UNL A   1     -19.196 -21.752   7.586  0.00  0.00    +0.173 A 
ATOM      3  C   UNL A   1     -18.884 -20.738   6.688  0.00  0.00    +0.037 A 
ATOM      4  C   UNL A   1     -16.941 -21.852   8.146  0.00  0.00    +0.110 A 
ATOM      5  C   UNL A   1     -16.522 -20.917   7.247  0.00  0.00    +0.009 A 
ATOM      6  C   UNL A   1     -17.510 -20.304   6.457  0.00  0.00    +0.003 A 
ATOM      7  F   UNL A   1     -18.575 -23.253   9.068  0.00  0.00    -0.201 F 
ENDROOT
BRANCH   3   8
ATOM      8  C   UNL A   1     -19.856 -19.943   5.885  0.00  0.00    +0.006 A 
ATOM      9  C   UNL A   1     -20.516 -20.394   4.689  0.00  0.00    +0.000 A 
ATOM     10  C   UNL A   1     -21.393 -19.550   4.071  0.00  0.00    +0.003 A 
ATOM     11  C   UNL A   1     -21.944 -18.413   4.569  0.00  0.00    +0.037 A 
ATOM     12  C   UNL A   1     -20.395 -18.698   6.411  0.00  0.00    +0.037 A 
ATOM     13  C   UNL A   1     -21.395 -17.985   5.751  0.00  0.00    +0.139 A 
BRANCH  13  14
ATOM     14  O   UNL A   1     -21.816 -16.846   6.352  0.00  0.00    -0.471 OA
ATOM     15  C   UNL A   1     -22.445 -15.907   5.522  0.00  0.00    +0.253 C 
ENDBRANCH  13  14
ENDBRANCH   3   8
BRANCH   4  16
ATOM     16  C   UNL A   1     -15.850 -22.485   8.968  0.00  0.00    +0.390 C 
ATOM     17  O   UNL A   1     -15.931 -22.317  10.174  0.00  0.00    -0.240 OA
ATOM     18  O   UNL A   1     -14.672 -22.653   8.461  0.00  0.00    -0.240 OA
ENDBRANCH   4  16
BRANCH   2  19
ATOM     19  O   UNL A   1     -20.473 -22.096   7.628  0.00  0.00    -0.445 OA
BRANCH  19  20
ATOM     20  C   UNL A   1     -21.385 -21.573   8.370  0.00  0.00    +0.179 C 
ATOM     21  C   UNL A   1     -22.556 -21.297   7.868  0.00  0.00    +0.044 C 
ATOM     22 BR   UNL A   1     -22.116 -22.271   8.115  0.00  0.00    -0.008 Br
BRANCH  21  23
ATOM     23  C   UNL A   1     -23.642 -20.912   8.769  0.00  0.00    +0.004 C 
ATOM     24  C   UNL A   1     -24.759 -20.198   8.214  0.00  0.00    +0.000 C 
BRANCH  24  25
ATOM     25  C   UNL A   1     -24.744 -19.829   6.888  0.00  0.00    +0.000 C 
ATOM     26  C   UNL A   1     -25.105 -18.573   6.566  0.00  0.00    +0.000 C 
ENDBRANCH  24  25
ENDBRANCH  21  23
ENDBRANCH  19  20
ENDBRANCH   2  19
TORSDOF 7
ENDMDL
ENDMDL
