REMARK  Name = outputs/IAG933/test6/raw/output_276_IAG933_linker_design_.xyz
REMARK  8 active torsions:
REMARK  status: ('A' for Active; 'I' for Inactive)
REMARK    1  A    between atoms: C_1  and  C_2
REMARK    2  A    between atoms: C_1  and  C_8
REMARK    3  A    between atoms: C_1  and  N_38
REMARK    4  A    between atoms: C_13  and  C_33
REMARK    5  A    between atoms: C_14  and  C_15
REMARK    6  A    between atoms: C_21  and  O_22
REMARK    7  A    between atoms: O_22  and  C_23
REMARK    8  A    between atoms: C_23  and  C_24
REMARK                            x       y       z     vdW  Elec       q    Type
REMARK                         _______ _______ _______ _____ _____    ______ ____
ROOT
ATOM      1  O   UNL A   1     -21.376   1.988  26.270  0.00  0.00    -0.441 OA
ATOM      2  C   UNL A   1     -20.637   1.369  27.173  0.00  0.00    +0.231 C 
ATOM      3  O   UNL A   1     -23.252   2.924  25.817  0.00  0.00    -0.245 OA
ATOM      4  C   UNL A   1     -20.331  -0.167  28.952  0.00  0.00    +0.030 C 
ATOM      5  C   UNL A   1     -23.307   1.262  27.430  0.00  0.00    +0.084 C 
ATOM      6  C   UNL A   1     -24.705   1.118  27.399  0.00  0.00    +0.063 C 
ATOM      7  C   UNL A   1     -22.669   2.092  26.495  0.00  0.00    +0.342 C 
ATOM      8  C   UNL A   1     -23.000  -0.246  29.446  0.00  0.00    +0.255 C 
ATOM      9  O   UNL A   1     -22.370  -0.783  30.235  0.00  0.00    -0.270 OA
ATOM     10  C   UNL A   1     -25.169   0.272  28.449  0.00  0.00    +0.256 C 
ATOM     11  N   UNL A   1     -24.351  -0.189  29.088  0.00  0.00    -0.219 N 
ATOM     12  O   UNL A   1     -26.385  -0.051  28.371  0.00  0.00    -0.270 OA
ATOM     13  C   UNL A   1     -22.509   0.594  28.258  0.00  0.00    +0.056 C 
ATOM     14  C   UNL A   1     -21.119   0.540  28.177  0.00  0.00    +0.004 C 
ENDROOT
BRANCH   6  15
ATOM     15  C   UNL A   1     -25.688   1.614  26.461  0.00  0.00    +0.043 C 
ATOM     16  C   UNL A   1     -26.250   2.920  26.395  0.00  0.00    +0.077 C 
ATOM     17  C   UNL A   1     -27.438   3.091  25.645  0.00  0.00    +0.107 C 
ATOM     18  N   UNL A   1     -28.075   2.089  25.003  0.00  0.00    -0.208 NA
ATOM     19  C   UNL A   1     -27.543   0.849  25.079  0.00  0.00    +0.253 C 
ATOM     20  C   UNL A   1     -26.354   0.576  25.777  0.00  0.00    +0.193 C 
ATOM     21  F   UNL A   1     -25.860  -0.681  25.795  0.00  0.00    -0.199 F 
BRANCH  16  22
ATOM     22  C   UNL A   1     -25.642   4.093  27.123  0.00  0.00    +0.266 C 
ATOM     23  N   UNL A   1     -25.614   5.252  26.449  0.00  0.00    -0.200 NA
ATOM     24  C   UNL A   1     -25.026   6.479  26.963  0.00  0.00    +0.139 C 
ATOM     25  O   UNL A   1     -25.143   3.966  28.243  0.00  0.00    -0.268 OA
ENDBRANCH  16  22
BRANCH  19  26
ATOM     26  O   UNL A   1     -28.193  -0.208  24.477  0.00  0.00    -0.456 OA
BRANCH  26  27
ATOM     27  C   UNL A   1     -29.460   0.005  23.866  0.00  0.00    +0.243 C 
BRANCH  27  28
ATOM     28  C   UNL A   1     -30.065  -1.377  23.573  0.00  0.00    +0.229 C 
ATOM     29  O   UNL A   1     -30.729  -1.878  24.721  0.00  0.00    -0.216 OA
ENDBRANCH  27  28
ENDBRANCH  26  27
ENDBRANCH  19  26
ENDBRANCH   6  15
BRANCH  11  30
ATOM     30  C   UNL A   1     -24.855  -1.012  30.143  0.00  0.00    +0.121 C 
BRANCH  30  31
ATOM     31  C   UNL A   1     -24.973  -2.505  29.788  0.00  0.00    -0.003 C 
ATOM     32  C   UNL A   1     -23.906  -3.173  29.146  0.00  0.00    -0.003 C 
ATOM     33  C   UNL A   1     -23.989  -4.549  28.853  0.00  0.00    -0.000 C 
ATOM     34  C   UNL A   1     -25.137  -5.280  29.205  0.00  0.00    -0.000 C 
ATOM     35  C   UNL A   1     -26.232  -4.611  29.784  0.00  0.00    -0.000 C 
ATOM     36  C   UNL A   1     -26.155  -3.232  30.065  0.00  0.00    -0.003 C 
ENDBRANCH  30  31
BRANCH  30  37
ATOM     37  C   UNL A   1     -25.387  -0.679  31.571  0.00  0.00    +0.096 C 
ATOM     38  C   UNL A   1     -25.189   0.773  32.028  0.00  0.00    +0.021 C 
ATOM     39  C   UNL A   1     -25.336   0.684  33.544  0.00  0.00    +0.020 C 
ATOM     40  C   UNL A   1     -24.829  -0.715  33.905  0.00  0.00    +0.089 C 
ATOM     41  N   UNL A   1     -24.758  -1.481  32.646  0.00  0.00    -0.217 NA
ENDBRANCH  30  37
ENDBRANCH  11  30
TORSDOF 8
