REMARK  Name = No_2760-gen_results/8p0m/2024-11-27-11-27-31/
REMARK  5 active torsions:
REMARK  status: ('A' for Active; 'I' for Inactive)
REMARK    1  A    between atoms: C_4  and  C_8
REMARK    2  A    between atoms: C_9  and  C_10
REMARK    3  A    between atoms: C_21  and  C_22
REMARK    4  A    between atoms: C_27  and  C_28
REMARK    5  A    between atoms: C_28  and  C_29
REMARK                            x       y       z     vdW  Elec       q    Type
REMARK                         _______ _______ _______ _____ _____    ______ ____
ROOT
ATOM      1  C   UNL A   1     -24.501   3.243  28.397  0.00  0.00    +0.249 C 
ATOM      2  N   UNL A   1     -24.974   4.555  28.004  0.00  0.00    -0.274 N 
ATOM      3  O   UNL A   1     -24.333   3.099  29.595  0.00  0.00    -0.270 OA
ATOM      4  C   UNL A   1     -25.266   4.866  26.699  0.00  0.00    +0.123 C 
ATOM      5  C   UNL A   1     -25.522   5.470  28.992  0.00  0.00    +0.096 C 
ATOM      6  C   UNL A   1     -26.919   5.447  28.961  0.00  0.00    +0.046 C 
ATOM      7  C   UNL A   1     -27.435   6.058  27.718  0.00  0.00    +0.035 C 
ATOM      8  C   UNL A   1     -26.891   5.142  26.548  0.00  0.00    +0.138 C 
ATOM      9  C   UNL A   1     -27.464   6.344  30.140  0.00  0.00    +0.004 C 
ATOM     10  C   UNL A   1     -28.372   5.767  30.831  0.00  0.00    +0.001 C 
ATOM     11  C   UNL A   1     -28.567   4.488  30.722  0.00  0.00    +0.007 C 
ATOM     12  C   UNL A   1     -28.092   3.674  29.637  0.00  0.00    +0.049 C 
ATOM     13  C   UNL A   1     -27.407   4.391  28.900  0.00  0.00    +0.123 C 
ATOM     14  O   UNL A   1     -27.206   3.642  27.800  0.00  0.00    -0.329 OA
ATOM     15  C   UNL A   1     -28.237   3.327  27.043  0.00  0.00    +0.294 C 
ATOM     16  O   UNL A   1     -27.576   4.537  25.822  0.00  0.00    -0.328 OA
ENDROOT
BRANCH   1  18
ATOM     17  C   UNL A   1     -24.255   1.256  27.260  0.00  0.00    +0.005 C 
ATOM     18  C   UNL A   1     -24.008   2.403  27.282  0.00  0.00    +0.058 C 
BRANCH  17  22
ATOM     19  F   UNL A   1     -28.073  -1.254  28.532  0.00  0.00    -0.204 F 
ATOM     20  C   UNL A   1     -27.061  -0.629  28.872  0.00  0.00    +0.140 A 
ATOM     21  C   UNL A   1     -26.358  -0.071  28.012  0.00  0.00    +0.030 A 
ATOM     22  C   UNL A   1     -25.072   0.553  28.256  0.00  0.00    +0.002 A 
ATOM     23  C   UNL A   1     -24.577   0.480  29.570  0.00  0.00    +0.000 A 
ATOM     24  C   UNL A   1     -25.332  -0.203  30.506  0.00  0.00    +0.002 A 
ATOM     25  C   UNL A   1     -26.496  -0.736  30.161  0.00  0.00    +0.030 A 
ENDBRANCH  17  22
ENDBRANCH   1  18
BRANCH  12  26
ATOM     26  C   UNL A   1     -28.401   2.277  29.529  0.00  0.00    -0.028 C 
ATOM     27  C   UNL A   1     -29.435   1.688  29.729  0.00  0.00    -0.026 C 
BRANCH  27  28
ATOM     28  C   UNL A   1     -30.511   1.956  29.903  0.00  0.00    +0.051 C 
BRANCH  28  29
ATOM     29  C   UNL A   1     -31.688   1.118  30.119  0.00  0.00    -0.026 C 
ATOM     30  C   UNL A   1     -31.391  -0.239  30.122  0.00  0.00    -0.030 C 
ATOM     31  C   UNL A   1     -30.146  -0.721  30.008  0.00  0.00    +0.030 C 
ENDBRANCH  28  29
ENDBRANCH  27  28
ENDBRANCH  12  26
TORSDOF 5
