MODEL 2760
MODEL 1
REMARK VINA RESULT:    -7.318      0.000      0.000
REMARK INTER + INTRA:         -10.415
REMARK INTER:                  -9.457
REMARK INTRA:                  -0.958
REMARK UNBOUND:                -0.958
REMARK  Name = No_2760-gen_results/8p0m/2024-11-27-11-27-31/
REMARK  5 active torsions:
REMARK  status: ('A' for Active; 'I' for Inactive)
REMARK    1  A    between atoms: C_4  and  C_8
REMARK    2  A    between atoms: C_9  and  C_10
REMARK    3  A    between atoms: C_21  and  C_22
REMARK    4  A    between atoms: C_27  and  C_28
REMARK    5  A    between atoms: C_28  and  C_29
REMARK                            x       y       z     vdW  Elec       q    Type
REMARK                         _______ _______ _______ _____ _____    ______ ____
ROOT
ATOM      1  C   UNL A   1     -25.618   0.164  28.615  0.00  0.00    +0.249 C 
ATOM      2  N   UNL A   1     -27.047   0.346  28.774  0.00  0.00    -0.274 N 
ATOM      3  O   UNL A   1     -25.276  -0.250  27.522  0.00  0.00    -0.270 OA
ATOM      4  C   UNL A   1     -27.595   0.857  29.925  0.00  0.00    +0.123 C 
ATOM      5  C   UNL A   1     -27.924   0.362  27.615  0.00  0.00    +0.096 C 
ATOM      6  C   UNL A   1     -28.247   1.676  27.262  0.00  0.00    +0.046 C 
ATOM      7  C   UNL A   1     -29.129   2.298  28.272  0.00  0.00    +0.035 C 
ATOM      8  C   UNL A   1     -28.276   2.331  29.605  0.00  0.00    +0.138 C 
ATOM      9  C   UNL A   1     -29.080   1.647  25.922  0.00  0.00    +0.004 C 
ATOM     10  C   UNL A   1     -28.653   2.477  25.048  0.00  0.00    +0.001 C 
ATOM     11  C   UNL A   1     -27.487   3.032  25.184  0.00  0.00    +0.007 C 
ATOM     12  C   UNL A   1     -26.738   3.080  26.409  0.00  0.00    +0.049 C 
ATOM     13  C   UNL A   1     -27.360   2.431  27.257  0.00  0.00    +0.123 C 
ATOM     14  O   UNL A   1     -26.742   2.720  28.417  0.00  0.00    -0.329 OA
ATOM     15  C   UNL A   1     -26.794   3.952  28.880  0.00  0.00    +0.294 C 
ATOM     16  O   UNL A   1     -27.961   3.312  30.153  0.00  0.00    -0.328 OA
ENDROOT
BRANCH   1  18
ATOM     17  C   UNL A   1     -24.580  -0.786  30.437  0.00  0.00    +0.005 C 
ATOM     18  C   UNL A   1     -24.844   0.210  29.876  0.00  0.00    +0.058 C 
BRANCH  17  22
ATOM     19  F   UNL A   1     -23.563  -4.830  28.175  0.00  0.00    -0.204 F 
ATOM     20  C   UNL A   1     -24.406  -4.117  28.734  0.00  0.00    +0.140 A 
ATOM     21  C   UNL A   1     -24.086  -2.994  29.160  0.00  0.00    +0.030 A 
ATOM     22  C   UNL A   1     -24.928  -2.133  29.967  0.00  0.00    +0.002 A 
ATOM     23  C   UNL A   1     -26.192  -2.638  30.318  0.00  0.00    +0.000 A 
ATOM     24  C   UNL A   1     -26.514  -3.916  29.899  0.00  0.00    +0.002 A 
ATOM     25  C   UNL A   1     -25.656  -4.611  29.164  0.00  0.00    +0.030 A 
ENDBRANCH  17  22
ENDBRANCH   1  18
BRANCH  12  26
ATOM     26  C   UNL A   1     -25.486   3.773  26.521  0.00  0.00    -0.028 C 
ATOM     27  C   UNL A   1     -24.358   3.377  26.361  0.00  0.00    -0.026 C 
BRANCH  27  28
ATOM     28  C   UNL A   1     -23.861   2.459  25.948  0.00  0.00    +0.051 C 
BRANCH  28  29
ATOM     29  C   UNL A   1     -22.489   2.225  25.505  0.00  0.00    -0.026 C 
ATOM     30  C   UNL A   1     -21.676   1.721  26.513  0.00  0.00    -0.030 C 
ATOM     31  C   UNL A   1     -22.123   1.418  27.739  0.00  0.00    +0.030 C 
ENDBRANCH  28  29
ENDBRANCH  27  28
ENDBRANCH  12  26
TORSDOF 5
ENDMDL
ENDMDL
