MODEL 2762
MODEL 1
REMARK VINA RESULT:    -6.242      0.000      0.000
REMARK INTER + INTRA:          -8.497
REMARK INTER:                  -8.067
REMARK INTRA:                  -0.431
REMARK UNBOUND:                -0.431
REMARK  Name = No_2762-gen_results/8p0m/2024-11-27-11-27-31/
REMARK  5 active torsions:
REMARK  status: ('A' for Active; 'I' for Inactive)
REMARK    1  A    between atoms: C_4  and  O_8
REMARK    2  A    between atoms: C_6  and  C_12
REMARK    3  A    between atoms: O_8  and  C_9
REMARK    4  A    between atoms: C_9  and  C_10
REMARK    5  A    between atoms: C_12  and  C_13
REMARK                            x       y       z     vdW  Elec       q    Type
REMARK                         _______ _______ _______ _____ _____    ______ ____
ROOT
ATOM      1  O   UNL A   1      -9.983   1.931  33.298  0.00  0.00    -0.286 OA
ATOM      2  C   UNL A   1     -10.646   1.886  34.341  0.00  0.00    +0.199 A 
ATOM      3  C   UNL A   1     -11.524   2.244  34.732  0.00  0.00    +0.079 A 
ATOM      4  C   UNL A   1     -12.314   1.997  35.937  0.00  0.00    +0.142 A 
ATOM      5  C   UNL A   1     -11.679   1.086  36.803  0.00  0.00    +0.033 A 
ATOM      6  C   UNL A   1     -10.490   0.571  36.404  0.00  0.00    -0.012 A 
ATOM      7  C   UNL A   1      -9.876   0.863  35.299  0.00  0.00    +0.038 A 
ENDROOT
BRANCH   4   8
ATOM      8  O   UNL A   1     -13.473   2.530  36.351  0.00  0.00    -0.472 OA
BRANCH   8   9
ATOM      9  C   UNL A   1     -14.420   3.095  35.583  0.00  0.00    +0.241 C 
BRANCH   9  10
ATOM     10  C   UNL A   1     -15.489   3.695  36.377  0.00  0.00    +0.229 C 
ATOM     11  O   UNL A   1     -16.648   3.943  35.809  0.00  0.00    -0.216 OA
ENDBRANCH   9  10
ENDBRANCH   8   9
ENDBRANCH   4   8
BRANCH   6  12
ATOM     12  C   UNL A   1      -9.815  -0.416  37.415  0.00  0.00    +0.053 C 
BRANCH  12  13
ATOM     13  C   UNL A   1     -10.432  -0.980  38.197  0.00  0.00    -0.018 A 
ATOM     14  C   UNL A   1     -10.425  -0.810  39.632  0.00  0.00    -0.004 A 
ATOM     15  C   UNL A   1     -11.272  -1.554  40.490  0.00  0.00    -0.000 A 
ATOM     16  C   UNL A   1     -12.111  -2.478  39.931  0.00  0.00    -0.000 A 
ATOM     17  C   UNL A   1     -12.242  -2.750  38.620  0.00  0.00    -0.000 A 
ATOM     18  C   UNL A   1     -11.490  -2.029  37.740  0.00  0.00    -0.004 A 
ENDBRANCH  12  13
ENDBRANCH   6  12
TORSDOF 5
ENDMDL
ENDMDL
