MODEL 2763
MODEL 1
REMARK VINA RESULT:    -4.674      0.000      0.000
REMARK INTER + INTRA:          -4.674
REMARK INTER:                  -4.674
REMARK INTRA:                   0.000
REMARK UNBOUND:                 0.000
REMARK  Name = No_2763-gen_results/8p0m/2024-11-27-11-27-31/
REMARK  0 active torsions:
REMARK  status: ('A' for Active; 'I' for Inactive)
REMARK                            x       y       z     vdW  Elec       q    Type
REMARK                         _______ _______ _______ _____ _____    ______ ____
ROOT
ATOM      1  C   UNL A   1     -23.932  -3.398  28.952  0.00  0.00    +0.045 A 
ATOM      2  C   UNL A   1     -23.976  -2.433  29.373  0.00  0.00    +0.099 A 
ATOM      3  C   UNL A   1     -25.092  -4.273  29.187  0.00  0.00    +0.152 A 
ATOM      4  C   UNL A   1     -26.260  -3.771  29.831  0.00  0.00    +0.088 A 
ATOM      5  C   UNL A   1     -25.071  -1.661  30.022  0.00  0.00    +0.207 A 
ATOM      6  C   UNL A   1     -26.161  -2.442  30.266  0.00  0.00    +0.057 A 
ATOM      7 CL   UNL A   1     -27.595  -4.703  30.116  0.00  0.00    -0.080 Cl
ATOM      8 CL   UNL A   1     -22.518  -1.322  29.071  0.00  0.00    -0.079 Cl
ATOM      9  F   UNL A   1     -25.033  -5.583  28.829  0.00  0.00    -0.203 F 
ATOM     10  O   UNL A   1     -25.017  -0.369  30.446  0.00  0.00    -0.286 OA
ENDROOT
TORSDOF 0
ENDMDL
ENDMDL
