MODEL 2764
MODEL 1
REMARK VINA RESULT:    -6.063      0.000      0.000
REMARK INTER + INTRA:          -6.544
REMARK INTER:                  -6.417
REMARK INTRA:                  -0.127
REMARK UNBOUND:                -0.127
REMARK  Name = No_2764-gen_results/8p0m/2024-11-27-11-27-31/
REMARK  1 active torsions:
REMARK  status: ('A' for Active; 'I' for Inactive)
REMARK    1  A    between atoms: C_9  and  C_11
REMARK                            x       y       z     vdW  Elec       q    Type
REMARK                         _______ _______ _______ _____ _____    ______ ____
ROOT
ATOM      1  N   UNL A   1     -26.477  -3.478  29.915  0.00  0.00    -0.225 NA
ATOM      2  C   UNL A   1     -25.590  -2.679  29.607  0.00  0.00    +0.162 A 
ATOM      3  C   UNL A   1     -24.450  -3.065  29.110  0.00  0.00    +0.036 A 
ATOM      4  C   UNL A   1     -24.175  -4.418  28.914  0.00  0.00    +0.005 A 
ATOM      5  C   UNL A   1     -25.177  -5.266  29.213  0.00  0.00    +0.021 A 
ATOM      6  C   UNL A   1     -26.359  -4.777  29.678  0.00  0.00    +0.101 A 
ATOM      7  N   UNL A   1     -25.764  -1.286  29.760  0.00  0.00    -0.225 NA
ATOM      8  C   UNL A   1     -24.715  -0.383  29.620  0.00  0.00    +0.104 A 
ATOM      9  C   UNL A   1     -23.532  -0.798  29.139  0.00  0.00    +0.091 A 
ATOM     10  C   UNL A   1     -23.331  -2.080  28.887  0.00  0.00    +0.009 A 
ENDROOT
BRANCH   9  11
ATOM     11  C   UNL A   1     -22.544   0.291  28.933  0.00  0.00    +0.420 C 
ATOM     12  F   UNL A   1     -22.647   1.247  29.757  0.00  0.00    -0.166 F 
ATOM     13  F   UNL A   1     -21.252  -0.223  29.158  0.00  0.00    -0.166 F 
ATOM     14  F   UNL A   1     -22.420   0.725  27.679  0.00  0.00    -0.166 F 
ENDBRANCH   9  11
TORSDOF 1
ENDMDL
ENDMDL
