MODEL 2766
MODEL 1
REMARK VINA RESULT:    -5.772      0.000      0.000
REMARK INTER + INTRA:         -11.419
REMARK INTER:                  -8.134
REMARK INTRA:                  -3.284
REMARK UNBOUND:                -3.284
REMARK  Name = No_2766-gen_results/8p0m/2024-11-27-11-27-31/
REMARK  7 active torsions:
REMARK  status: ('A' for Active; 'I' for Inactive)
REMARK    1  A    between atoms: C_1  and  C_3
REMARK    2  A    between atoms: C_11  and  O_13
REMARK    3  A    between atoms: O_13  and  C_15
REMARK    4  A    between atoms: C_17  and  C_18
REMARK    5  A    between atoms: C_19  and  C_20
REMARK    6  A    between atoms: C_21  and  C_22
REMARK    7  A    between atoms: C_23  and  C_24
REMARK                            x       y       z     vdW  Elec       q    Type
REMARK                         _______ _______ _______ _____ _____    ______ ____
ROOT
ATOM      1  C   UNL A   1     -10.225   0.098  36.937  0.00  0.00    +0.004 A 
ATOM      2  C   UNL A   1      -9.294   0.003  36.451  0.00  0.00    +0.012 A 
ATOM      3  C   UNL A   1      -9.005   0.741  35.142  0.00  0.00    +0.061 A 
ATOM      4  C   UNL A   1     -10.145   1.337  34.639  0.00  0.00    +0.049 A 
ATOM      5  C   UNL A   1     -11.332   1.171  35.231  0.00  0.00    +0.146 A 
ATOM      6  C   UNL A   1     -11.452   0.452  36.347  0.00  0.00    +0.037 A 
ATOM      7 CL   UNL A   1      -7.452   0.935  34.464  0.00  0.00    -0.082 Cl
ENDROOT
BRANCH   1   8
ATOM      8  C   UNL A   1     -10.390  -0.648  38.195  0.00  0.00    +0.000 A 
ATOM      9  C   UNL A   1      -9.566  -0.553  39.389  0.00  0.00    +0.002 A 
ATOM     10  C   UNL A   1     -10.010  -1.331  40.522  0.00  0.00    +0.030 A 
ATOM     11  C   UNL A   1     -11.113  -2.195  40.439  0.00  0.00    +0.140 A 
ATOM     12  C   UNL A   1     -11.456  -1.633  38.525  0.00  0.00    +0.002 A 
ATOM     13  C   UNL A   1     -11.874  -2.298  39.423  0.00  0.00    +0.030 A 
ATOM     14  F   UNL A   1     -11.354  -2.826  41.670  0.00  0.00    -0.204 F 
ENDBRANCH   1   8
BRANCH   5  15
ATOM     15  O   UNL A   1     -12.470   1.671  34.671  0.00  0.00    -0.450 OA
BRANCH  15  16
ATOM     16  C   UNL A   1     -12.922   2.885  34.980  0.00  0.00    +0.179 C 
ATOM     17  C   UNL A   1     -14.104   2.971  35.650  0.00  0.00    +0.041 C 
BRANCH  17  18
ATOM     18  C   UNL A   1     -14.010   3.430  36.914  0.00  0.00    +0.003 C 
ATOM     19  C   UNL A   1     -12.745   3.733  37.491  0.00  0.00    +0.000 C 
BRANCH  19  20
ATOM     20  C   UNL A   1     -12.272   3.181  38.668  0.00  0.00    -0.000 C 
ATOM     21  C   UNL A   1     -12.966   2.066  39.261  0.00  0.00    -0.000 C 
BRANCH  21  22
ATOM     22  C   UNL A   1     -12.573   1.387  40.422  0.00  0.00    -0.005 C 
ATOM     23  C   UNL A   1     -13.401   0.847  41.403  0.00  0.00    -0.026 C 
BRANCH  23  24
ATOM     24  C   UNL A   1     -12.774   0.222  42.529  0.00  0.00    +0.026 C 
ATOM     25  C   UNL A   1     -11.558   0.906  42.953  0.00  0.00    +0.005 C 
ENDBRANCH  23  24
ENDBRANCH  21  22
ENDBRANCH  19  20
ENDBRANCH  17  18
ENDBRANCH  15  16
ENDBRANCH   5  15
TORSDOF 7
ENDMDL
ENDMDL
