REMARK  Name = outputs/IAG933/test6/raw/output_2766_IAG933_linker_design_.xyz
REMARK  16 active torsions:
REMARK  status: ('A' for Active; 'I' for Inactive)
REMARK    1  A    between atoms: C_1  and  C_2
REMARK    2  A    between atoms: C_1  and  C_8
REMARK    3  A    between atoms: C_9  and  C_40
REMARK    4  A    between atoms: C_13  and  N_32
REMARK    5  A    between atoms: C_14  and  C_15
REMARK    6  A    between atoms: C_21  and  O_22
REMARK    7  A    between atoms: O_22  and  C_23
REMARK    8  A    between atoms: C_23  and  C_24
REMARK    9  A    between atoms: O_28  and  C_29
REMARK   10  A    between atoms: O_28  and  C_36
REMARK   11  A    between atoms: C_29  and  C_40
REMARK   12  A    between atoms: C_30  and  N_32
REMARK   13  A    between atoms: C_31  and  C_40
REMARK   14  A    between atoms: C_33  and  C_38
REMARK   15  A    between atoms: C_36  and  C_44
REMARK   16  A    between atoms: O_37  and  C_44
REMARK                            x       y       z     vdW  Elec       q    Type
REMARK                         _______ _______ _______ _____ _____    ______ ____
ROOT
ATOM      1  C   UNL A   1     -25.246   1.433  28.937  0.00  0.00    +0.064 C 
ATOM      2  C   UNL A   1     -25.072   2.062  30.129  0.00  0.00    +0.001 C 
ENDROOT
BRANCH   1   3
ATOM      3  N   UNL A   1     -24.672   1.422  27.532  0.00  0.00    -0.246 N 
ATOM      4  C   UNL A   1     -23.270   1.657  27.058  0.00  0.00    +0.288 C 
ATOM      5  O   UNL A   1     -23.061   2.470  26.166  0.00  0.00    -0.266 OA
BRANCH   3   6
ATOM      6  C   UNL A   1     -25.688   1.614  26.461  0.00  0.00    +0.150 C 
ATOM      7  C   UNL A   1     -26.250   2.920  26.395  0.00  0.00    +0.073 C 
ATOM      8  C   UNL A   1     -27.438   3.091  25.645  0.00  0.00    +0.104 C 
ATOM      9  N   UNL A   1     -28.075   2.089  25.003  0.00  0.00    -0.212 NA
ATOM     10  C   UNL A   1     -27.543   0.849  25.079  0.00  0.00    +0.236 C 
ATOM     11  C   UNL A   1     -26.354   0.576  25.777  0.00  0.00    +0.258 C 
ATOM     12  F   UNL A   1     -25.860  -0.681  25.795  0.00  0.00    -0.225 F 
BRANCH   7  13
ATOM     13  C   UNL A   1     -25.642   4.093  27.123  0.00  0.00    +0.264 C 
ATOM     14  N   UNL A   1     -25.614   5.252  26.449  0.00  0.00    -0.200 NA
ATOM     15  C   UNL A   1     -25.026   6.479  26.963  0.00  0.00    +0.139 C 
ATOM     16  O   UNL A   1     -25.143   3.966  28.243  0.00  0.00    -0.269 OA
ENDBRANCH   7  13
BRANCH  10  17
ATOM     17  O   UNL A   1     -28.193  -0.208  24.477  0.00  0.00    -0.459 OA
BRANCH  17  18
ATOM     18  C   UNL A   1     -29.460   0.005  23.866  0.00  0.00    +0.242 C 
BRANCH  18  19
ATOM     19  C   UNL A   1     -30.065  -1.377  23.573  0.00  0.00    +0.229 C 
ATOM     20  O   UNL A   1     -30.729  -1.878  24.721  0.00  0.00    -0.216 OA
ENDBRANCH  18  19
ENDBRANCH  17  18
ENDBRANCH  10  17
ENDBRANCH   3   6
BRANCH   4  21
ATOM     21  C   UNL A   1     -22.205   0.937  27.949  0.00  0.00    +0.227 C 
ATOM     22  O   UNL A   1     -22.401   0.342  28.968  0.00  0.00    -0.286 OA
ATOM     23  C   UNL A   1     -20.870   1.246  27.433  0.00  0.00    +0.082 C 
ENDBRANCH   4  21
ENDBRANCH   1   3
BRANCH   2  24
ATOM     24  C   UNL A   1     -25.912   2.037  31.479  0.00  0.00    +0.124 C 
BRANCH  24  26
ATOM     25  C   UNL A   1     -25.387  -0.679  31.571  0.00  0.00    +0.078 C 
ATOM     26  C   UNL A   1     -25.189   0.773  32.028  0.00  0.00    +0.033 C 
ATOM     27  C   UNL A   1     -25.336   0.684  33.544  0.00  0.00    +0.021 C 
ATOM     28  C   UNL A   1     -24.829  -0.715  33.905  0.00  0.00    +0.089 C 
ATOM     29  N   UNL A   1     -24.758  -1.481  32.646  0.00  0.00    -0.219 NA
BRANCH  25  30
ATOM     30  C   UNL A   1     -24.855  -1.012  30.143  0.00  0.00    +0.044 C 
BRANCH  30  31
ATOM     31  C   UNL A   1     -24.973  -2.505  29.788  0.00  0.00    -0.021 C 
ATOM     32  C   UNL A   1     -23.906  -3.173  29.146  0.00  0.00    -0.004 C 
ATOM     33  C   UNL A   1     -23.989  -4.549  28.853  0.00  0.00    -0.000 C 
ATOM     34  C   UNL A   1     -25.137  -5.280  29.205  0.00  0.00    -0.000 C 
ATOM     35  C   UNL A   1     -26.232  -4.611  29.784  0.00  0.00    -0.000 C 
ATOM     36  C   UNL A   1     -26.155  -3.232  30.065  0.00  0.00    -0.004 C 
ENDBRANCH  30  31
ENDBRANCH  25  30
ENDBRANCH  24  26
BRANCH  24  37
ATOM     37  C   UNL A   1     -25.748   3.502  31.994  0.00  0.00    +0.321 C 
ATOM     38  O   UNL A   1     -24.835   4.264  31.510  0.00  0.00    -0.250 OA
BRANCH  37  39
ATOM     39  O   UNL A   1     -26.489   4.040  33.020  0.00  0.00    -0.446 OA
BRANCH  39  40
ATOM     40  C   UNL A   1     -27.115   5.309  32.586  0.00  0.00    +0.238 C 
BRANCH  40  43
ATOM     41  C   UNL A   1     -28.569   5.655  30.443  0.00  0.00    +0.037 C 
ATOM     42  C   UNL A   1     -29.596   6.176  32.650  0.00  0.00    +0.037 C 
ATOM     43  C   UNL A   1     -28.576   5.204  31.927  0.00  0.00    +0.170 C 
BRANCH  43  45
ATOM     44  O   UNL A   1     -28.988   2.756  32.089  0.00  0.00    -0.035 OA
ATOM     45  O   UNL A   1     -28.971   3.850  32.077  0.00  0.00    -0.191 OA
ENDBRANCH  43  45
ENDBRANCH  40  43
ENDBRANCH  39  40
ENDBRANCH  37  39
ENDBRANCH  24  37
ENDBRANCH   2  24
TORSDOF 16
