MODEL 2767
MODEL 1
REMARK VINA RESULT:    -3.228      0.000      0.000
REMARK INTER + INTRA:          -3.228
REMARK INTER:                  -3.228
REMARK INTRA:                   0.000
REMARK UNBOUND:                 0.000
REMARK  Name = No_2767-gen_results/8p0m/2024-11-27-11-27-31/
REMARK  0 active torsions:
REMARK  status: ('A' for Active; 'I' for Inactive)
REMARK                            x       y       z     vdW  Elec       q    Type
REMARK                         _______ _______ _______ _____ _____    ______ ____
ROOT
ATOM      1  O   UNL A   1     -11.199 -10.503  16.969  0.00  0.00    -0.241 OA
ATOM      2  C   UNL A   1     -10.171 -10.236  17.601  0.00  0.00    +0.395 C 
ATOM      3 CL   UNL A   1      -9.977  -9.758  18.472  0.00  0.00    -0.007 Cl
ATOM      4  F   UNL A   1      -9.089 -10.930  16.885  0.00  0.00    -0.147 F 
ENDROOT
TORSDOF 0
ENDMDL
ENDMDL
