MODEL 2768
MODEL 1
REMARK VINA RESULT:    -4.333      0.000      0.000
REMARK INTER + INTRA:          -4.333
REMARK INTER:                  -4.333
REMARK INTRA:                   0.000
REMARK UNBOUND:                 0.000
REMARK  Name = No_2768-gen_results/8p0m/2024-11-27-11-27-31/
REMARK  0 active torsions:
REMARK  status: ('A' for Active; 'I' for Inactive)
REMARK                            x       y       z     vdW  Elec       q    Type
REMARK                         _______ _______ _______ _____ _____    ______ ____
ROOT
ATOM      1  C   UNL A   1     -24.001  -4.014  28.862  0.00  0.00    +0.011 A 
ATOM      2  C   UNL A   1     -24.248  -3.055  29.224  0.00  0.00    +0.058 A 
ATOM      3  C   UNL A   1     -24.998  -5.076  29.076  0.00  0.00    +0.001 A 
ATOM      4  C   UNL A   1     -26.280  -4.768  29.617  0.00  0.00    +0.000 A 
ATOM      5  C   UNL A   1     -25.507  -2.469  29.759  0.00  0.00    +0.011 A 
ATOM      6  C   UNL A   1     -26.452  -3.425  29.981  0.00  0.00    +0.001 A 
ATOM      7 CL   UNL A   1     -23.038  -1.731  28.956  0.00  0.00    -0.082 Cl
ENDROOT
TORSDOF 0
ENDMDL
ENDMDL
