MODEL 2769
MODEL 1
REMARK VINA RESULT:    -4.436      0.000      0.000
REMARK INTER + INTRA:          -4.436
REMARK INTER:                  -4.436
REMARK INTRA:                   0.000
REMARK UNBOUND:                 0.000
REMARK  Name = No_2769-gen_results/8p0m/2024-11-27-11-27-31/
REMARK  0 active torsions:
REMARK  status: ('A' for Active; 'I' for Inactive)
REMARK                            x       y       z     vdW  Elec       q    Type
REMARK                         _______ _______ _______ _____ _____    ______ ____
ROOT
ATOM      1  F   UNL A   1      -8.852 -10.890  16.889  0.00  0.00    -0.204 F 
ATOM      2  C   UNL A   1      -9.003 -10.383  18.007  0.00  0.00    +0.140 A 
ATOM      3  C   UNL A   1     -10.164  -9.780  18.320  0.00  0.00    +0.030 A 
ATOM      4  C   UNL A   1      -7.893 -10.452  18.990  0.00  0.00    +0.030 A 
ATOM      5  C   UNL A   1      -8.025  -9.772  20.242  0.00  0.00    +0.002 A 
ATOM      6  C   UNL A   1     -10.286  -9.103  19.628  0.00  0.00    +0.002 A 
ATOM      7  C   UNL A   1      -9.241  -9.106  20.558  0.00  0.00    +0.000 A 
ENDROOT
TORSDOF 0
ENDMDL
ENDMDL
