MODEL 2770
MODEL 1
REMARK VINA RESULT:    -6.520      0.000      0.000
REMARK INTER + INTRA:         -10.781
REMARK INTER:                  -8.807
REMARK INTRA:                  -1.974
REMARK UNBOUND:                -1.974
REMARK  Name = No_2770-gen_results/8p0m/2024-11-27-11-27-31/
REMARK  6 active torsions:
REMARK  status: ('A' for Active; 'I' for Inactive)
REMARK    1  A    between atoms: C_2  and  C_7
REMARK    2  A    between atoms: C_7  and  C_8
REMARK    3  A    between atoms: C_9  and  C_15
REMARK    4  A    between atoms: N_20  and  C_21
REMARK    5  A    between atoms: C_21  and  C_22
REMARK    6  A    between atoms: C_22  and  C_23
REMARK                            x       y       z     vdW  Elec       q    Type
REMARK                         _______ _______ _______ _____ _____    ______ ____
ROOT
ATOM      1  C   UNL A   1     -25.934  -0.705  31.230  0.00  0.00    +0.137 C 
ATOM      2  C   UNL A   1     -26.595   0.302  30.763  0.00  0.00    +0.336 C 
ATOM      3  N   UNL A   1     -26.895   1.311  31.678  0.00  0.00    -0.066 NA
ATOM      4  C   UNL A   1     -25.525  -0.493  32.567  0.00  0.00    +0.074 C 
ATOM      5  C   UNL A   1     -26.086   0.805  32.765  0.00  0.00    +0.264 C 
ATOM      6  N   UNL A   1     -27.272   0.431  29.505  0.00  0.00    -0.034 NA
ENDROOT
BRANCH   1   8
ATOM      7  C   UNL A   1     -24.179  -1.810  29.824  0.00  0.00    -0.018 A 
ATOM      8  C   UNL A   1     -25.438  -1.813  30.385  0.00  0.00    +0.005 A 
ATOM      9  C   UNL A   1     -26.284  -2.926  30.183  0.00  0.00    +0.095 A 
ATOM     10  C   UNL A   1     -23.804  -2.910  29.008  0.00  0.00    +0.016 A 
ATOM     11  C   UNL A   1     -24.635  -4.020  28.914  0.00  0.00    +0.099 A 
ATOM     12  N   UNL A   1     -25.888  -3.954  29.466  0.00  0.00    -0.243 NA
BRANCH   7  13
ATOM     13  C   UNL A   1     -23.176  -0.702  30.030  0.00  0.00    +0.052 C 
BRANCH  13  15
ATOM     14  C   UNL A   1     -21.891   0.670  28.535  0.00  0.00    -0.003 A 
ATOM     15  C   UNL A   1     -22.964   0.184  28.810  0.00  0.00    -0.018 A 
ATOM     16  C   UNL A   1     -24.086   0.351  28.064  0.00  0.00    -0.003 A 
ATOM     17  C   UNL A   1     -24.003   1.138  26.900  0.00  0.00    +0.011 A 
ATOM     18  C   UNL A   1     -21.712   1.406  27.310  0.00  0.00    +0.011 A 
ATOM     19  C   UNL A   1     -22.814   1.627  26.540  0.00  0.00    +0.058 A 
ATOM     20 CL   UNL A   1     -22.605   2.597  25.102  0.00  0.00    -0.082 Cl
ENDBRANCH  13  15
ENDBRANCH   7  13
ENDBRANCH   1   8
BRANCH   6  21
ATOM     21  C   UNL A   1     -28.094   1.460  29.111  0.00  0.00    +0.272 C 
BRANCH  21  22
ATOM     22  C   UNL A   1     -29.369   0.969  28.412  0.00  0.00    +0.171 C 
ATOM     23  N   UNL A   1     -29.488  -0.459  28.770  0.00  0.00    -0.126 NA
BRANCH  22  24
ATOM     24  C   UNL A   1     -29.166   1.106  26.922  0.00  0.00    +0.156 C 
ATOM     25  C   UNL A   1     -28.929   2.493  26.562  0.00  0.00    +0.130 C 
ATOM     26  C   UNL A   1     -27.997   2.741  25.648  0.00  0.00    -0.010 C 
ATOM     27  C   UNL A   1     -27.324   1.665  25.184  0.00  0.00    +0.002 C 
ATOM     28  C   UNL A   1     -27.423   0.366  25.624  0.00  0.00    +0.168 C 
ATOM     29  O   UNL A   1     -28.770   0.093  26.356  0.00  0.00    -0.348 OA
ATOM     30 CL   UNL A   1     -29.977   3.705  27.144  0.00  0.00    -0.108 Cl
ENDBRANCH  22  24
ENDBRANCH  21  22
ENDBRANCH   6  21
TORSDOF 6
ENDMDL
ENDMDL
