MODEL 2771
MODEL 1
REMARK VINA RESULT:    -6.063      0.000      0.000
REMARK INTER + INTRA:          -8.010
REMARK INTER:                  -7.481
REMARK INTRA:                  -0.530
REMARK UNBOUND:                -0.530
REMARK  Name = No_2771-gen_results/8p0m/2024-11-27-11-27-31/
REMARK  4 active torsions:
REMARK  status: ('A' for Active; 'I' for Inactive)
REMARK    1  A    between atoms: C_3  and  C_4
REMARK    2  A    between atoms: C_6  and  O_13
REMARK    3  A    between atoms: O_13  and  C_14
REMARK    4  A    between atoms: C_14  and  C_15
REMARK                            x       y       z     vdW  Elec       q    Type
REMARK                         _______ _______ _______ _____ _____    ______ ____
ROOT
ATOM      1  C   UNL A   1     -29.491  -9.772  32.724  0.00  0.00    +0.037 A 
ATOM      2  C   UNL A   1     -29.854  -9.866  31.574  0.00  0.00    +0.003 A 
ATOM      3  C   UNL A   1     -29.348 -10.858  30.741  0.00  0.00    +0.000 A 
ATOM      4  C   UNL A   1     -28.368 -10.587  33.213  0.00  0.00    +0.139 A 
ATOM      5  C   UNL A   1     -27.866 -11.634  32.479  0.00  0.00    +0.037 A 
ATOM      6  C   UNL A   1     -28.300 -11.808  31.155  0.00  0.00    +0.003 A 
ENDROOT
BRANCH   3   7
ATOM      7  C   UNL A   1     -29.705 -11.071  29.309  0.00  0.00    +0.000 A 
ATOM      8  C   UNL A   1     -30.574 -10.228  28.532  0.00  0.00    +0.000 A 
ATOM      9  C   UNL A   1     -30.753 -10.499  27.192  0.00  0.00    +0.000 A 
ATOM     10  C   UNL A   1     -30.054 -11.390  26.434  0.00  0.00    +0.000 A 
ATOM     11  C   UNL A   1     -28.964 -12.023  28.502  0.00  0.00    +0.000 A 
ATOM     12  C   UNL A   1     -29.172 -12.162  27.123  0.00  0.00    +0.000 A 
ENDBRANCH   3   7
BRANCH   4  13
ATOM     13  O   UNL A   1     -27.780 -10.605  34.460  0.00  0.00    -0.464 OA
BRANCH  13  14
ATOM     14  C   UNL A   1     -26.877  -9.816  34.932  0.00  0.00    +0.319 C 
BRANCH  14  15
ATOM     15  C   UNL A   1     -27.393  -8.781  35.701  0.00  0.00    +0.408 C 
ATOM     16  O   UNL A   1     -26.505  -7.839  36.023  0.00  0.00    -0.241 OA
ATOM     17  O   UNL A   1     -28.389  -8.936  36.524  0.00  0.00    -0.241 OA
ENDBRANCH  14  15
ENDBRANCH  13  14
ENDBRANCH   4  13
TORSDOF 4
ENDMDL
ENDMDL
