MODEL 2772
MODEL 1
REMARK VINA RESULT:    -5.306      0.000      0.000
REMARK INTER + INTRA:          -5.306
REMARK INTER:                  -5.306
REMARK INTRA:                   0.000
REMARK UNBOUND:                 0.000
REMARK  Name = No_2772-gen_results/8p0m/2024-11-27-11-27-31/
REMARK  0 active torsions:
REMARK  status: ('A' for Active; 'I' for Inactive)
REMARK                            x       y       z     vdW  Elec       q    Type
REMARK                         _______ _______ _______ _____ _____    ______ ____
ROOT
ATOM      1  C   UNL A   1     -24.911  -0.317  29.812  0.00  0.00    +0.000 A 
ATOM      2  C   UNL A   1     -24.018  -0.599  29.330  0.00  0.00    +0.000 A 
ATOM      3  C   UNL A   1     -25.927  -1.422  29.996  0.00  0.00    +0.000 A 
ATOM      4  C   UNL A   1     -25.577  -2.746  29.658  0.00  0.00    +0.000 A 
ATOM      5  C   UNL A   1     -23.403  -1.882  28.920  0.00  0.00    +0.000 A 
ATOM      6  C   UNL A   1     -24.306  -2.924  29.081  0.00  0.00    +0.000 A 
ATOM      7  C   UNL A   1     -26.498  -3.823  29.793  0.00  0.00    +0.000 A 
ATOM      8  C   UNL A   1     -26.278  -4.897  29.641  0.00  0.00    +0.000 A 
ATOM      9  C   UNL A   1     -24.932  -5.241  29.068  0.00  0.00    +0.000 A 
ATOM     10  C   UNL A   1     -24.026  -4.284  28.748  0.00  0.00    +0.000 A 
ENDROOT
TORSDOF 0
ENDMDL
ENDMDL
