REMARK  Name = No_2774-gen_results/8p0m/2024-11-27-11-27-31/
REMARK  12 active torsions:
REMARK  status: ('A' for Active; 'I' for Inactive)
REMARK    1  A    between atoms: C_2  and  N_7
REMARK    2  A    between atoms: C_4  and  O_14
REMARK    3  A    between atoms: N_7  and  C_8
REMARK    4  A    between atoms: N_7  and  C_13
REMARK    5  A    between atoms: C_8  and  C_9
REMARK    6  A    between atoms: C_9  and  C_10
REMARK    7  A    between atoms: C_11  and  C_12
REMARK    8  A    between atoms: C_13  and  C_19
REMARK    9  A    between atoms: O_14  and  C_18
REMARK   10  A    between atoms: C_19  and  C_20
REMARK   11  A    between atoms: C_21  and  C_22
REMARK   12  A    between atoms: C_23  and  C_24
REMARK                            x       y       z     vdW  Elec       q    Type
REMARK                         _______ _______ _______ _____ _____    ______ ____
ROOT
ATOM      1  N   UNL A   1     -25.910  -0.625  27.977  0.00  0.00    -0.292 N 
ENDROOT
BRANCH   1   3
ATOM      2  C   UNL A   1     -28.016  -0.814  28.878  0.00  0.00    +0.071 A 
ATOM      3  C   UNL A   1     -27.064  -0.119  28.608  0.00  0.00    +0.136 A 
ATOM      4  N   UNL A   1     -26.951   1.129  28.957  0.00  0.00    -0.219 NA
ATOM      5  C   UNL A   1     -29.109  -0.210  29.632  0.00  0.00    +0.144 A 
ATOM      6  C   UNL A   1     -29.088   1.063  29.942  0.00  0.00    +0.068 A 
ATOM      7  C   UNL A   1     -27.955   1.768  29.591  0.00  0.00    +0.143 A 
ATOM      8 CL   UNL A   1     -27.755   3.449  29.944  0.00  0.00    -0.061 Cl
BRANCH   5   9
ATOM      9  O   UNL A   1     -30.227  -0.872  29.876  0.00  0.00    -0.470 OA
BRANCH   9  10
ATOM     10  C   UNL A   1     -30.153  -2.023  30.578  0.00  0.00    +0.243 C 
ATOM     11  C   UNL A   1     -31.174  -2.961  30.209  0.00  0.00    +0.282 C 
ATOM     12  O   UNL A   1     -32.084  -2.686  29.732  0.00  0.00    -0.269 OA
ATOM     13  N   UNL A   1     -31.031  -4.220  30.715  0.00  0.00    -0.202 NA
ATOM     14  C   UNL A   1     -29.835  -4.744  31.455  0.00  0.00    +0.115 C 
ATOM     15  C   UNL A   1     -28.820  -3.856  31.417  0.00  0.00    +0.028 C 
ATOM     16  C   UNL A   1     -28.905  -2.521  31.101  0.00  0.00    +0.055 C 
ENDBRANCH   9  10
ENDBRANCH   5   9
ENDBRANCH   1   3
BRANCH   1  17
ATOM     17  C   UNL A   1     -24.872  -1.270  28.710  0.00  0.00    +0.097 C 
BRANCH  17  18
ATOM     18  C   UNL A   1     -24.256  -0.554  29.785  0.00  0.00    +0.048 C 
BRANCH  18  19
ATOM     19  C   UNL A   1     -23.609   0.389  29.632  0.00  0.00    -0.019 C 
ATOM     20  C   UNL A   1     -22.610   0.560  28.605  0.00  0.00    +0.059 C 
BRANCH  20  21
ATOM     21  C   UNL A   1     -21.995   1.698  28.111  0.00  0.00    +0.297 C 
ATOM     22  N   UNL A   1     -21.247   1.565  27.081  0.00  0.00    -0.102 NA
ATOM     23  O   UNL A   1     -22.566   2.858  28.340  0.00  0.00    -0.264 OA
ENDBRANCH  20  21
ENDBRANCH  18  19
ENDBRANCH  17  18
ENDBRANCH   1  17
BRANCH   1  24
ATOM     24  C   UNL A   1     -25.465   0.091  26.849  0.00  0.00    +0.097 C 
BRANCH  24  25
ATOM     25  C   UNL A   1     -26.284   0.607  25.864  0.00  0.00    +0.048 C 
BRANCH  25  26
ATOM     26  C   UNL A   1     -27.461   0.238  25.689  0.00  0.00    -0.024 C 
ATOM     27  C   UNL A   1     -28.278   0.747  24.640  0.00  0.00    -0.004 C 
BRANCH  27  28
ATOM     28  C   UNL A   1     -29.621   0.407  24.540  0.00  0.00    -0.000 C 
ATOM     29  C   UNL A   1     -30.164  -0.398  25.482  0.00  0.00    -0.000 C 
BRANCH  29  30
ATOM     30  C   UNL A   1     -31.541  -0.734  25.341  0.00  0.00    -0.000 A 
ATOM     31  C   UNL A   1     -32.151  -1.602  26.337  0.00  0.00    -0.000 A 
ATOM     32  C   UNL A   1     -33.143  -2.401  26.014  0.00  0.00    +0.000 A 
ATOM     33  C   UNL A   1     -33.807  -2.210  24.789  0.00  0.00    +0.000 A 
ATOM     34  C   UNL A   1     -33.302  -1.391  23.825  0.00  0.00    +0.000 A 
ATOM     35  C   UNL A   1     -32.078  -0.789  24.102  0.00  0.00    -0.000 A 
ENDBRANCH  29  30
ENDBRANCH  27  28
ENDBRANCH  25  26
ENDBRANCH  24  25
ENDBRANCH   1  24
TORSDOF 12
