MODEL 2774
MODEL 1
REMARK VINA RESULT:    -6.574      0.000      0.000
REMARK INTER + INTRA:         -13.694
REMARK INTER:                 -11.186
REMARK INTRA:                  -2.508
REMARK UNBOUND:                -2.508
REMARK  Name = No_2774-gen_results/8p0m/2024-11-27-11-27-31/
REMARK  12 active torsions:
REMARK  status: ('A' for Active; 'I' for Inactive)
REMARK    1  A    between atoms: C_2  and  N_7
REMARK    2  A    between atoms: C_4  and  O_14
REMARK    3  A    between atoms: N_7  and  C_8
REMARK    4  A    between atoms: N_7  and  C_13
REMARK    5  A    between atoms: C_8  and  C_9
REMARK    6  A    between atoms: C_9  and  C_10
REMARK    7  A    between atoms: C_11  and  C_12
REMARK    8  A    between atoms: C_13  and  C_19
REMARK    9  A    between atoms: O_14  and  C_18
REMARK   10  A    between atoms: C_19  and  C_20
REMARK   11  A    between atoms: C_21  and  C_22
REMARK   12  A    between atoms: C_23  and  C_24
REMARK                            x       y       z     vdW  Elec       q    Type
REMARK                         _______ _______ _______ _____ _____    ______ ____
ROOT
ATOM      1  N   UNL A   1     -30.730 -10.311  10.494  0.00  0.00    -0.292 N 
ENDROOT
BRANCH   1   3
ATOM      2  C   UNL A   1     -28.883  -9.649   9.296  0.00  0.00    +0.071 A 
ATOM      3  C   UNL A   1     -29.626 -10.537   9.648  0.00  0.00    +0.136 A 
ATOM      4  N   UNL A   1     -29.435 -11.795   9.381  0.00  0.00    -0.219 NA
ATOM      5  C   UNL A   1     -27.708 -10.015   8.513  0.00  0.00    +0.144 A 
ATOM      6  C   UNL A   1     -27.506 -11.256   8.144  0.00  0.00    +0.068 A 
ATOM      7  C   UNL A   1     -28.410 -12.193   8.601  0.00  0.00    +0.143 A 
ATOM      8 CL   UNL A   1     -28.278 -13.876   8.226  0.00  0.00    -0.061 Cl
BRANCH   5   9
ATOM      9  O   UNL A   1     -26.906  -9.096   8.003  0.00  0.00    -0.470 OA
BRANCH   9  10
ATOM     10  C   UNL A   1     -27.438  -8.157   7.191  0.00  0.00    +0.243 C 
ATOM     11  C   UNL A   1     -27.193  -6.822   7.657  0.00  0.00    +0.282 C 
ATOM     12  O   UNL A   1     -26.960  -6.582   8.667  0.00  0.00    -0.269 OA
ATOM     13  N   UNL A   1     -27.507  -5.823   6.782  0.00  0.00    -0.202 NA
ATOM     14  C   UNL A   1     -27.905  -6.000   5.345  0.00  0.00    +0.115 C 
ATOM     15  C   UNL A   1     -27.751  -7.284   4.959  0.00  0.00    +0.028 C 
ATOM     16  C   UNL A   1     -27.617  -8.380   5.778  0.00  0.00    +0.055 C 
ENDBRANCH   9  10
ENDBRANCH   5   9
ENDBRANCH   1   3
BRANCH   1  17
ATOM     17  C   UNL A   1     -31.364 -11.371  11.204  0.00  0.00    +0.097 C 
BRANCH  17  18
ATOM     18  C   UNL A   1     -30.902 -11.675  12.524  0.00  0.00    +0.048 C 
BRANCH  18  19
ATOM     19  C   UNL A   1     -30.435 -12.688  12.817  0.00  0.00    -0.019 C 
ATOM     20  C   UNL A   1     -30.558 -13.913  12.065  0.00  0.00    +0.059 C 
BRANCH  20  21
ATOM     21  C   UNL A   1     -29.829 -15.090  12.112  0.00  0.00    +0.297 C 
ATOM     22  N   UNL A   1     -29.501 -15.626  10.997  0.00  0.00    -0.102 NA
ATOM     23  O   UNL A   1     -29.086 -15.315  13.171  0.00  0.00    -0.264 OA
ENDBRANCH  20  21
ENDBRANCH  18  19
ENDBRANCH  17  18
ENDBRANCH   1  17
BRANCH   1  24
ATOM     24  C   UNL A   1     -31.598  -9.273  10.105  0.00  0.00    +0.097 C 
BRANCH  24  25
ATOM     25  C   UNL A   1     -32.019  -8.243  10.923  0.00  0.00    +0.048 C 
BRANCH  25  26
ATOM     26  C   UNL A   1     -31.903  -7.039  10.625  0.00  0.00    -0.024 C 
ATOM     27  C   UNL A   1     -30.926  -6.567   9.703  0.00  0.00    -0.004 C 
BRANCH  27  28
ATOM     28  C   UNL A   1     -30.741  -5.209   9.478  0.00  0.00    -0.000 C 
ATOM     29  C   UNL A   1     -30.494  -4.782   8.218  0.00  0.00    -0.000 C 
BRANCH  29  30
ATOM     30  C   UNL A   1     -30.299  -3.384   8.028  0.00  0.00    -0.000 A 
ATOM     31  C   UNL A   1     -29.299  -2.946   7.066  0.00  0.00    -0.000 A 
ATOM     32  C   UNL A   1     -28.658  -1.811   7.233  0.00  0.00    +0.000 A 
ATOM     33  C   UNL A   1     -29.139  -0.884   8.175  0.00  0.00    +0.000 A 
ATOM     34  C   UNL A   1     -30.093  -1.223   9.086  0.00  0.00    +0.000 A 
ATOM     35  C   UNL A   1     -30.532  -2.543   9.060  0.00  0.00    -0.000 A 
ENDBRANCH  29  30
ENDBRANCH  27  28
ENDBRANCH  25  26
ENDBRANCH  24  25
ENDBRANCH   1  24
TORSDOF 12
ENDMDL
ENDMDL
