REMARK  Name = No_2775-gen_results/8p0m/2024-11-27-11-27-31/
REMARK  4 active torsions:
REMARK  status: ('A' for Active; 'I' for Inactive)
REMARK    1  A    between atoms: C_1  and  C_2
REMARK    2  A    between atoms: C_1  and  C_8
REMARK    3  A    between atoms: C_3  and  C_16
REMARK    4  A    between atoms: C_8  and  C_9
REMARK                            x       y       z     vdW  Elec       q    Type
REMARK                         _______ _______ _______ _____ _____    ______ ____
ROOT
ATOM      1  C   UNL A   1     -28.016  -0.814  28.878  0.00  0.00    +0.031 C 
ENDROOT
BRANCH   1   2
ATOM      2  C   UNL A   1     -27.064  -0.119  28.608  0.00  0.00    -0.017 A 
ATOM      3  C   UNL A   1     -27.001   0.691  27.491  0.00  0.00    +0.053 A 
ATOM      4  C   UNL A   1     -25.855   1.482  27.083  0.00  0.00    +0.004 A 
ATOM      5  C   UNL A   1     -24.690   1.453  27.881  0.00  0.00    +0.000 A 
ATOM      6  C   UNL A   1     -24.738   0.601  29.042  0.00  0.00    -0.000 A 
ATOM      7  C   UNL A   1     -25.823  -0.169  29.389  0.00  0.00    -0.004 A 
BRANCH   3   8
ATOM      8  C   UNL A   1     -27.942   0.642  26.497  0.00  0.00    +0.284 C 
ATOM      9  O   UNL A   1     -29.131   0.785  26.714  0.00  0.00    -0.267 OA
ATOM     10  N   UNL A   1     -27.560   0.302  25.268  0.00  0.00    -0.084 NA
ENDBRANCH   3   8
ENDBRANCH   1   2
BRANCH   1  11
ATOM     11  C   UNL A   1     -28.735  -0.464  30.142  0.00  0.00    +0.033 C 
BRANCH  11  12
ATOM     12  C   UNL A   1     -28.783   0.612  30.517  0.00  0.00    +0.006 A 
ATOM     13  C   UNL A   1     -29.341   1.267  31.369  0.00  0.00    -0.002 A 
ATOM     14  C   UNL A   1     -29.266   2.715  31.729  0.00  0.00    -0.000 A 
ATOM     15  C   UNL A   1     -28.371   3.427  30.886  0.00  0.00    +0.002 A 
ATOM     16  C   UNL A   1     -27.627   2.807  29.954  0.00  0.00    +0.029 A 
ATOM     17  C   UNL A   1     -27.749   1.503  29.744  0.00  0.00    +0.136 A 
ATOM     18  F   UNL A   1     -27.179   1.337  28.919  0.00  0.00    -0.204 F 
ENDBRANCH  11  12
ENDBRANCH   1  11
TORSDOF 4
