MODEL 2776
MODEL 1
REMARK VINA RESULT:    -4.994      0.000      0.000
REMARK INTER + INTRA:          -4.994
REMARK INTER:                  -4.994
REMARK INTRA:                   0.000
REMARK UNBOUND:                 0.000
REMARK  Name = No_2776-gen_results/8p0m/2024-11-27-11-27-31/
REMARK  0 active torsions:
REMARK  status: ('A' for Active; 'I' for Inactive)
REMARK                            x       y       z     vdW  Elec       q    Type
REMARK                         _______ _______ _______ _____ _____    ______ ____
ROOT
ATOM      1  C   UNL A   1     -10.583  -9.299  19.158  0.00  0.00    +0.042 A 
ATOM      2  C   UNL A   1      -9.857  -9.080  20.099  0.00  0.00    +0.003 A 
ATOM      3  C   UNL A   1      -8.542  -9.532  20.112  0.00  0.00    +0.000 A 
ATOM      4  C   UNL A   1      -8.018 -10.317  19.024  0.00  0.00    +0.003 A 
ATOM      5  C   UNL A   1      -8.933 -10.544  17.988  0.00  0.00    +0.042 A 
ATOM      6  C   UNL A   1     -10.171 -10.108  18.031  0.00  0.00    +0.196 A 
ATOM      7  O   UNL A   1     -11.008 -10.405  17.000  0.00  0.00    -0.287 OA
ENDROOT
TORSDOF 0
ENDMDL
ENDMDL
