MODEL 2777
MODEL 1
REMARK VINA RESULT:    -6.496      0.000      0.000
REMARK INTER + INTRA:          -7.194
REMARK INTER:                  -6.876
REMARK INTRA:                  -0.318
REMARK UNBOUND:                -0.318
REMARK  Name = No_2777-gen_results/8p0m/2024-11-27-11-27-31/
REMARK  1 active torsions:
REMARK  status: ('A' for Active; 'I' for Inactive)
REMARK    1  A    between atoms: C_4  and  C_5
REMARK                            x       y       z     vdW  Elec       q    Type
REMARK                         _______ _______ _______ _____ _____    ______ ____
ROOT
ATOM      1  C   UNL A   1     -26.447  -3.818  29.871  0.00  0.00    +0.000 A 
ATOM      2  C   UNL A   1     -26.328  -4.845  29.663  0.00  0.00    +0.000 A 
ATOM      3  C   UNL A   1     -25.873  -2.536  29.691  0.00  0.00    +0.000 A 
ATOM      4  C   UNL A   1     -24.550  -2.676  29.159  0.00  0.00    +0.000 A 
ATOM      5  C   UNL A   1     -24.920  -5.122  29.049  0.00  0.00    +0.000 A 
ATOM      6  C   UNL A   1     -24.101  -3.995  28.798  0.00  0.00    +0.000 A 
ENDROOT
BRANCH   4   7
ATOM      7  C   UNL A   1     -23.732  -1.552  28.817  0.00  0.00    +0.000 A 
ATOM      8  C   UNL A   1     -22.618  -1.324  29.222  0.00  0.00    +0.000 A 
ATOM      9  C   UNL A   1     -21.892  -0.041  28.914  0.00  0.00    +0.000 A 
ATOM     10  C   UNL A   1     -22.500   0.847  28.019  0.00  0.00    +0.000 A 
ATOM     11  C   UNL A   1     -24.298  -0.476  27.946  0.00  0.00    +0.000 A 
ATOM     12  C   UNL A   1     -23.655   0.636  27.560  0.00  0.00    +0.000 A 
ENDBRANCH   4   7
TORSDOF 1
ENDMDL
ENDMDL
