REMARK  Name = No_2777-gen_results/8p0m/2024-11-27-11-27-31/
REMARK  1 active torsions:
REMARK  status: ('A' for Active; 'I' for Inactive)
REMARK    1  A    between atoms: C_4  and  C_5
REMARK                            x       y       z     vdW  Elec       q    Type
REMARK                         _______ _______ _______ _____ _____    ______ ____
ROOT
ATOM      1  C   UNL A   1     -28.016  -0.814  28.878  0.00  0.00    +0.000 A 
ATOM      2  C   UNL A   1     -28.469  -0.785  29.829  0.00  0.00    +0.000 A 
ATOM      3  C   UNL A   1     -27.217  -0.083  27.964  0.00  0.00    +0.000 A 
ATOM      4  C   UNL A   1     -27.090   1.270  28.418  0.00  0.00    +0.000 A 
ATOM      5  C   UNL A   1     -28.370   0.646  30.443  0.00  0.00    +0.000 A 
ATOM      6  C   UNL A   1     -27.645   1.609  29.701  0.00  0.00    +0.000 A 
ENDROOT
BRANCH   4   7
ATOM      7  C   UNL A   1     -26.294   2.242  27.732  0.00  0.00    +0.000 A 
ATOM      8  C   UNL A   1     -25.923   2.187  26.585  0.00  0.00    +0.000 A 
ATOM      9  C   UNL A   1     -24.970   3.192  25.993  0.00  0.00    +0.000 A 
ATOM     10  C   UNL A   1     -24.618   4.292  26.784  0.00  0.00    +0.000 A 
ATOM     11  C   UNL A   1     -25.768   3.420  28.488  0.00  0.00    +0.000 A 
ATOM     12  C   UNL A   1     -25.000   4.396  27.981  0.00  0.00    +0.000 A 
ENDBRANCH   4   7
TORSDOF 1
