MODEL 2778
MODEL 1
REMARK VINA RESULT:    -5.208      0.000      0.000
REMARK INTER + INTRA:          -5.208
REMARK INTER:                  -5.208
REMARK INTRA:                   0.000
REMARK UNBOUND:                 0.000
REMARK  Name = No_2778-gen_results/8p0m/2024-11-27-11-27-31/
REMARK  0 active torsions:
REMARK  status: ('A' for Active; 'I' for Inactive)
REMARK                            x       y       z     vdW  Elec       q    Type
REMARK                         _______ _______ _______ _____ _____    ______ ____
ROOT
ATOM      1  O   UNL A   1     -26.676 -12.640  33.804  0.00  0.00    -0.249 OA
ATOM      2  C   UNL A   1     -27.521 -12.125  33.213  0.00  0.00    +0.344 C 
ATOM      3  N   UNL A   1     -27.730 -12.381  31.982  0.00  0.00    -0.161 NA
ATOM      4  C   UNL A   1     -28.584 -11.598  31.075  0.00  0.00    +0.073 A 
ATOM      5  C   UNL A   1     -29.274 -10.700  31.639  0.00  0.00    +0.015 A 
ATOM      6  N   UNL A   1     -28.138 -11.019  33.871  0.00  0.00    -0.182 NA
ATOM      7  C   UNL A   1     -30.199  -9.773  30.886  0.00  0.00    -0.001 A 
ATOM      8  C   UNL A   1     -29.063 -10.223  33.093  0.00  0.00    +0.144 C 
ATOM      9  C   UNL A   1     -28.779 -11.968  29.752  0.00  0.00    +0.016 A 
ATOM     10  C   UNL A   1     -29.599 -11.188  28.907  0.00  0.00    +0.001 A 
ATOM     11  C   UNL A   1     -30.306 -10.114  29.515  0.00  0.00    -0.000 A 
ENDROOT
TORSDOF 0
ENDMDL
ENDMDL
