REMARK  Name = No_2778-gen_results/8p0m/2024-11-27-11-27-31/
REMARK  0 active torsions:
REMARK  status: ('A' for Active; 'I' for Inactive)
REMARK                            x       y       z     vdW  Elec       q    Type
REMARK                         _______ _______ _______ _____ _____    ______ ____
ROOT
ATOM      1  O   UNL A   1     -28.123  -1.335  28.487  0.00  0.00    -0.249 OA
ATOM      2  C   UNL A   1     -27.481  -0.404  28.709  0.00  0.00    +0.344 C 
ATOM      3  N   UNL A   1     -26.460  -0.110  28.005  0.00  0.00    -0.161 NA
ATOM      4  C   UNL A   1     -25.430   0.879  28.357  0.00  0.00    +0.073 A 
ATOM      5  C   UNL A   1     -25.698   1.587  29.371  0.00  0.00    +0.015 A 
ATOM      6  N   UNL A   1     -27.753   0.241  29.953  0.00  0.00    -0.182 NA
ATOM      7  C   UNL A   1     -24.765   2.645  29.911  0.00  0.00    -0.001 A 
ATOM      8  C   UNL A   1     -26.844   1.290  30.363  0.00  0.00    +0.144 C 
ATOM      9  C   UNL A   1     -24.364   1.157  27.514  0.00  0.00    +0.016 A 
ATOM     10  C   UNL A   1     -23.387   2.107  27.888  0.00  0.00    +0.001 A 
ATOM     11  C   UNL A   1     -23.634   2.842  29.080  0.00  0.00    -0.000 A 
ENDROOT
TORSDOF 0
