MODEL 277
MODEL 1
REMARK VINA RESULT:    -6.437      0.000      0.000
REMARK INTER + INTRA:          -7.217
REMARK INTER:                  -6.813
REMARK INTRA:                  -0.404
REMARK UNBOUND:                -0.404
REMARK  Name = No_277-gen_results/8p0m/2024-11-27-11-27-31/
REMARK  1 active torsions:
REMARK  status: ('A' for Active; 'I' for Inactive)
REMARK    1  A    between atoms: C_2  and  C_3
REMARK                            x       y       z     vdW  Elec       q    Type
REMARK                         _______ _______ _______ _____ _____    ______ ____
ROOT
ATOM      1  C   UNL A   1     -25.710  -2.440  29.497  0.00  0.00    +0.000 A 
ATOM      2  C   UNL A   1     -24.546  -2.479  29.172  0.00  0.00    +0.000 A 
ATOM      3  C   UNL A   1     -26.377  -3.727  29.822  0.00  0.00    +0.000 A 
ATOM      4  C   UNL A   1     -25.755  -4.914  29.474  0.00  0.00    +0.000 A 
ATOM      5  C   UNL A   1     -24.542  -4.840  28.918  0.00  0.00    +0.000 A 
ATOM      6  C   UNL A   1     -23.851  -3.724  28.747  0.00  0.00    +0.000 A 
ENDROOT
BRANCH   2   7
ATOM      7  C   UNL A   1     -23.793  -1.356  28.890  0.00  0.00    +0.000 A 
ATOM      8  C   UNL A   1     -24.315  -0.421  27.953  0.00  0.00    +0.000 A 
ATOM      9  C   UNL A   1     -23.625   0.660  27.557  0.00  0.00    +0.000 A 
ATOM     10  C   UNL A   1     -22.297   0.879  27.987  0.00  0.00    +0.000 A 
ATOM     11  C   UNL A   1     -21.704  -0.023  28.836  0.00  0.00    +0.000 A 
ATOM     12  C   UNL A   1     -22.402  -1.132  29.251  0.00  0.00    +0.000 A 
ENDBRANCH   2   7
TORSDOF 1
ENDMDL
ENDMDL
