MODEL 2780
MODEL 1
REMARK VINA RESULT:    -5.235      0.000      0.000
REMARK INTER + INTRA:          -5.578
REMARK INTER:                  -5.542
REMARK INTRA:                  -0.036
REMARK UNBOUND:                -0.036
REMARK  Name = No_2780-gen_results/8p0m/2024-11-27-11-27-31/
REMARK  1 active torsions:
REMARK  status: ('A' for Active; 'I' for Inactive)
REMARK    1  A    between atoms: C_2  and  C_7
REMARK                            x       y       z     vdW  Elec       q    Type
REMARK                         _______ _______ _______ _____ _____    ______ ____
ROOT
ATOM      1  C   UNL A   1      -8.441 -10.522  18.437  0.00  0.00    +0.007 A 
ATOM      2  C   UNL A   1      -9.411 -10.134  18.295  0.00  0.00    +0.080 A 
ATOM      3  C   UNL A   1      -7.767 -10.130  19.733  0.00  0.00    +0.000 A 
ATOM      4  C   UNL A   1      -8.500  -9.417  20.705  0.00  0.00    +0.000 A 
ATOM      5  C   UNL A   1     -10.390  -9.414  19.141  0.00  0.00    +0.007 A 
ATOM      6  C   UNL A   1      -9.808  -9.043  20.344  0.00  0.00    +0.000 A 
ENDROOT
BRANCH   2   7
ATOM      7  C   UNL A   1     -10.310 -10.507  16.997  0.00  0.00    +0.388 C 
ATOM      8  O   UNL A   1     -11.475 -10.505  17.008  0.00  0.00    -0.241 OA
ATOM      9  O   UNL A   1      -9.650 -11.062  15.994  0.00  0.00    -0.241 OA
ENDBRANCH   2   7
TORSDOF 1
ENDMDL
ENDMDL
