MODEL 2781
MODEL 1
REMARK VINA RESULT:    -7.066      0.000      0.000
REMARK INTER + INTRA:          -8.383
REMARK INTER:                  -7.479
REMARK INTRA:                  -0.904
REMARK UNBOUND:                -0.904
REMARK  Name = No_2781-gen_results/8p0m/2024-11-27-11-27-31/
REMARK  1 active torsions:
REMARK  status: ('A' for Active; 'I' for Inactive)
REMARK    1  A    between atoms: N_15  and  C_17
REMARK                            x       y       z     vdW  Elec       q    Type
REMARK                         _______ _______ _______ _____ _____    ______ ____
ROOT
ATOM      1  C   UNL A   1     -26.905   3.797  27.278  0.00  0.00    +0.001 A 
ATOM      2  C   UNL A   1     -27.784   3.473  27.760  0.00  0.00    -0.000 A 
ATOM      3  C   UNL A   1     -26.137   2.783  26.613  0.00  0.00    +0.013 A 
ATOM      4  C   UNL A   1     -26.403   1.478  26.722  0.00  0.00    +0.048 A 
ATOM      5  C   UNL A   1     -28.255   2.120  28.019  0.00  0.00    -0.003 A 
ATOM      6  C   UNL A   1     -27.543   1.169  27.430  0.00  0.00    -0.008 A 
ATOM      7  C   UNL A   1     -24.910   3.238  25.812  0.00  0.00    +0.001 C 
ATOM      8  C   UNL A   1     -23.840   2.830  25.913  0.00  0.00    -0.000 C 
ATOM      9  C   UNL A   1     -23.572   1.805  26.893  0.00  0.00    -0.004 A 
ATOM     10  C   UNL A   1     -22.646   1.747  27.614  0.00  0.00    -0.000 A 
ATOM     11  C   UNL A   1     -22.358   0.708  28.577  0.00  0.00    -0.000 A 
ATOM     12  C   UNL A   1     -23.300  -0.301  28.611  0.00  0.00    -0.000 A 
ATOM     13  C   UNL A   1     -24.344  -0.378  27.796  0.00  0.00    -0.004 A 
ATOM     14  C   UNL A   1     -24.545   0.671  26.852  0.00  0.00    -0.020 A 
ATOM     15  N   UNL A   1     -26.602   0.916  25.335  0.00  0.00    -0.287 N 
ATOM     16  C   UNL A   1     -24.660   0.059  25.450  0.00  0.00    +0.048 C 
ATOM     17  C   UNL A   1     -25.770   0.372  24.419  0.00  0.00    +0.100 C 
ATOM     18  C   UNL A   1     -27.168   0.285  28.768  0.00  0.00    +0.032 C 
ENDROOT
BRANCH  15  19
ATOM     19  C   UNL A   1     -27.863   1.085  24.785  0.00  0.00    +0.052 A 
ATOM     20  C   UNL A   1     -28.605  -0.003  24.407  0.00  0.00    +0.015 A 
ATOM     21  C   UNL A   1     -29.770   0.171  23.669  0.00  0.00    +0.001 A 
ATOM     22  C   UNL A   1     -30.211   1.472  23.306  0.00  0.00    +0.000 A 
ATOM     23  C   UNL A   1     -29.462   2.579  23.640  0.00  0.00    +0.001 A 
ATOM     24  C   UNL A   1     -28.207   2.268  24.058  0.00  0.00    +0.015 A 
ENDBRANCH  15  19
TORSDOF 1
ENDMDL
ENDMDL
