REMARK  Name = No_2781-gen_results/8p0m/2024-11-27-11-27-31/
REMARK  1 active torsions:
REMARK  status: ('A' for Active; 'I' for Inactive)
REMARK    1  A    between atoms: N_15  and  C_17
REMARK                            x       y       z     vdW  Elec       q    Type
REMARK                         _______ _______ _______ _____ _____    ______ ____
ROOT
ATOM      1  C   UNL A   1     -28.016  -0.814  28.878  0.00  0.00    +0.001 A 
ATOM      2  C   UNL A   1     -28.469  -0.785  29.829  0.00  0.00    -0.000 A 
ATOM      3  C   UNL A   1     -28.196   0.348  28.055  0.00  0.00    +0.013 A 
ATOM      4  C   UNL A   1     -29.019   1.350  28.378  0.00  0.00    +0.048 A 
ATOM      5  C   UNL A   1     -29.411   0.180  30.378  0.00  0.00    -0.003 A 
ATOM      6  C   UNL A   1     -29.606   1.250  29.619  0.00  0.00    -0.008 A 
ATOM      7  C   UNL A   1     -27.460   0.380  26.709  0.00  0.00    +0.001 C 
ATOM      8  C   UNL A   1     -27.930   0.584  25.680  0.00  0.00    -0.000 C 
ATOM      9  C   UNL A   1     -29.352   0.814  25.593  0.00  0.00    -0.004 A 
ATOM     10  C   UNL A   1     -30.087   0.379  24.786  0.00  0.00    -0.000 A 
ATOM     11  C   UNL A   1     -31.506   0.629  24.678  0.00  0.00    -0.000 A 
ATOM     12  C   UNL A   1     -32.001   1.478  25.648  0.00  0.00    -0.000 A 
ATOM     13  C   UNL A   1     -31.255   2.085  26.563  0.00  0.00    -0.004 A 
ATOM     14  C   UNL A   1     -29.857   1.810  26.587  0.00  0.00    -0.020 A 
ATOM     15  N   UNL A   1     -28.223   2.633  28.389  0.00  0.00    -0.287 N 
ATOM     16  C   UNL A   1     -29.091   3.137  26.515  0.00  0.00    +0.048 C 
ATOM     17  C   UNL A   1     -27.934   3.561  27.450  0.00  0.00    +0.100 C 
ATOM     18  C   UNL A   1     -31.243   1.149  29.475  0.00  0.00    +0.032 C 
ENDROOT
BRANCH  15  19
ATOM     19  C   UNL A   1     -27.512   2.898  29.549  0.00  0.00    +0.052 A 
ATOM     20  C   UNL A   1     -26.334   3.596  29.495  0.00  0.00    +0.015 A 
ATOM     21  C   UNL A   1     -25.522   3.679  30.620  0.00  0.00    +0.001 A 
ATOM     22  C   UNL A   1     -25.903   3.053  31.837  0.00  0.00    +0.000 A 
ATOM     23  C   UNL A   1     -27.062   2.313  31.906  0.00  0.00    +0.001 A 
ATOM     24  C   UNL A   1     -27.590   2.033  30.685  0.00  0.00    +0.015 A 
ENDBRANCH  15  19
TORSDOF 1
