MODEL 2782
MODEL 1
REMARK VINA RESULT:    -6.026      0.000      0.000
REMARK INTER + INTRA:          -7.014
REMARK INTER:                  -6.730
REMARK INTRA:                  -0.284
REMARK UNBOUND:                -0.284
REMARK  Name = No_2782-gen_results/8p0m/2024-11-27-11-27-31/
REMARK  2 active torsions:
REMARK  status: ('A' for Active; 'I' for Inactive)
REMARK    1  A    between atoms: C_2  and  C_11
REMARK    2  A    between atoms: C_3  and  C_7
REMARK                            x       y       z     vdW  Elec       q    Type
REMARK                         _______ _______ _______ _____ _____    ______ ____
ROOT
ATOM      1  C   UNL A   1     -28.351 -11.916  31.114  0.00  0.00    +0.010 A 
ATOM      2  C   UNL A   1     -28.222 -11.604  32.112  0.00  0.00    +0.080 A 
ATOM      3  C   UNL A   1     -29.249 -11.185  30.306  0.00  0.00    +0.072 A 
ATOM      4  C   UNL A   1     -29.955 -10.102  30.794  0.00  0.00    +0.004 A 
ATOM      5  C   UNL A   1     -28.839 -10.497  32.869  0.00  0.00    +0.007 A 
ATOM      6  C   UNL A   1     -29.708  -9.771  32.132  0.00  0.00    +0.000 A 
ENDROOT
BRANCH   3   7
ATOM      7  C   UNL A   1     -29.497 -11.502  28.860  0.00  0.00    +0.419 C 
ATOM      8  F   UNL A   1     -28.533 -11.784  28.328  0.00  0.00    -0.166 F 
ATOM      9  F   UNL A   1     -30.086 -10.450  28.169  0.00  0.00    -0.166 F 
ATOM     10  F   UNL A   1     -30.493 -12.483  28.757  0.00  0.00    -0.166 F 
ENDBRANCH   3   7
BRANCH   2  11
ATOM     11  C   UNL A   1     -27.135 -12.323  33.058  0.00  0.00    +0.388 C 
ATOM     12  O   UNL A   1     -26.344 -12.867  32.536  0.00  0.00    -0.241 OA
ATOM     13  O   UNL A   1     -27.211 -12.172  34.374  0.00  0.00    -0.241 OA
ENDBRANCH   2  11
TORSDOF 2
ENDMDL
ENDMDL
