REMARK  Name = outputs/IAG933/test6/raw/output_2782_IAG933_linker_design_.xyz
REMARK  12 active torsions:
REMARK  status: ('A' for Active; 'I' for Inactive)
REMARK    1  A    between atoms: C_1  and  C_2
REMARK    2  A    between atoms: C_1  and  C_8
REMARK    3  A    between atoms: C_1  and  C_29
REMARK    4  A    between atoms: C_13  and  C_39
REMARK    5  A    between atoms: C_14  and  C_15
REMARK    6  A    between atoms: C_21  and  O_22
REMARK    7  A    between atoms: O_22  and  C_23
REMARK    8  A    between atoms: C_23  and  C_24
REMARK    9  A    between atoms: C_28  and  C_40
REMARK   10  A    between atoms: C_29  and  C_31
REMARK   11  A    between atoms: C_29  and  C_39
REMARK   12  A    between atoms: C_32  and  C_39
REMARK                            x       y       z     vdW  Elec       q    Type
REMARK                         _______ _______ _______ _____ _____    ______ ____
ROOT
ATOM      1  C   UNL A   1     -25.011   0.976  27.690  0.00  0.00    +0.025 C 
ENDROOT
BRANCH   1   2
ATOM      2  C   UNL A   1     -25.688   1.614  26.461  0.00  0.00    +0.071 C 
ATOM      3  C   UNL A   1     -26.250   2.920  26.395  0.00  0.00    +0.055 C 
ATOM      4  C   UNL A   1     -27.438   3.091  25.645  0.00  0.00    +0.102 C 
ATOM      5  N   UNL A   1     -28.075   2.089  25.003  0.00  0.00    -0.212 NA
ATOM      6  C   UNL A   1     -27.543   0.849  25.079  0.00  0.00    +0.234 C 
ATOM      7  C   UNL A   1     -26.354   0.576  25.777  0.00  0.00    +0.240 C 
ATOM      8  F   UNL A   1     -25.860  -0.681  25.795  0.00  0.00    -0.227 F 
BRANCH   3   9
ATOM      9  C   UNL A   1     -25.642   4.093  27.123  0.00  0.00    +0.262 C 
ATOM     10  N   UNL A   1     -25.614   5.252  26.449  0.00  0.00    -0.200 NA
ATOM     11  C   UNL A   1     -25.026   6.479  26.963  0.00  0.00    +0.139 C 
ATOM     12  O   UNL A   1     -25.143   3.966  28.243  0.00  0.00    -0.269 OA
ENDBRANCH   3   9
BRANCH   6  13
ATOM     13  O   UNL A   1     -28.193  -0.208  24.477  0.00  0.00    -0.459 OA
BRANCH  13  14
ATOM     14  C   UNL A   1     -29.460   0.005  23.866  0.00  0.00    +0.242 C 
BRANCH  14  15
ATOM     15  C   UNL A   1     -30.065  -1.377  23.573  0.00  0.00    +0.229 C 
ATOM     16  O   UNL A   1     -30.729  -1.878  24.721  0.00  0.00    -0.216 OA
ENDBRANCH  14  15
ENDBRANCH  13  14
ENDBRANCH   6  13
ENDBRANCH   1   2
BRANCH   1  18
ATOM     17  O   UNL A   1     -21.769   2.256  26.528  0.00  0.00    -0.445 OA
ATOM     18  C   UNL A   1     -23.621   1.049  27.187  0.00  0.00    +0.136 C 
ATOM     19  C   UNL A   1     -21.340   1.149  27.689  0.00  0.00    +0.244 C 
ATOM     20  O   UNL A   1     -23.304   2.169  24.945  0.00  0.00    -0.250 OA
ATOM     21  C   UNL A   1     -22.654   0.267  27.963  0.00  0.00    +0.214 C 
ATOM     22  F   UNL A   1     -22.746  -0.697  28.713  0.00  0.00    -0.233 F 
ATOM     23  C   UNL A   1     -22.933   1.852  26.099  0.00  0.00    +0.319 C 
BRANCH  21  24
ATOM     24  C   UNL A   1     -22.897   0.546  29.330  0.00  0.00    +0.219 C 
ATOM     25  O   UNL A   1     -23.141   1.839  29.755  0.00  0.00    -0.217 OA
ENDBRANCH  21  24
ENDBRANCH   1  18
BRANCH   1  26
ATOM     26  C   UNL A   1     -25.613  -0.151  28.896  0.00  0.00    +0.029 C 
BRANCH  26  27
ATOM     27  C   UNL A   1     -27.004   0.269  29.079  0.00  0.00    -0.022 C 
ATOM     28  C   UNL A   1     -28.797   1.867  29.544  0.00  0.00    -0.000 C 
ATOM     29  C   UNL A   1     -29.770   0.838  29.547  0.00  0.00    -0.000 C 
ATOM     30  C   UNL A   1     -28.012  -0.687  28.960  0.00  0.00    -0.004 C 
ATOM     31  C   UNL A   1     -29.366  -0.465  29.227  0.00  0.00    -0.000 C 
ATOM     32  C   UNL A   1     -27.430   1.607  29.345  0.00  0.00    -0.004 C 
ENDBRANCH  26  27
BRANCH  26  33
ATOM     33  C   UNL A   1     -24.855  -1.012  30.143  0.00  0.00    +0.042 C 
BRANCH  33  34
ATOM     34  C   UNL A   1     -24.973  -2.505  29.788  0.00  0.00    -0.021 C 
ATOM     35  C   UNL A   1     -23.906  -3.173  29.146  0.00  0.00    -0.004 C 
ATOM     36  C   UNL A   1     -23.989  -4.549  28.853  0.00  0.00    -0.000 C 
ATOM     37  C   UNL A   1     -25.137  -5.280  29.205  0.00  0.00    -0.000 C 
ATOM     38  C   UNL A   1     -26.232  -4.611  29.784  0.00  0.00    -0.000 C 
ATOM     39  C   UNL A   1     -26.155  -3.232  30.065  0.00  0.00    -0.004 C 
ENDBRANCH  33  34
BRANCH  33  40
ATOM     40  C   UNL A   1     -25.387  -0.679  31.571  0.00  0.00    +0.077 C 
ATOM     41  C   UNL A   1     -25.189   0.773  32.028  0.00  0.00    +0.019 C 
ATOM     42  C   UNL A   1     -25.336   0.684  33.544  0.00  0.00    +0.020 C 
ATOM     43  C   UNL A   1     -24.829  -0.715  33.905  0.00  0.00    +0.089 C 
ATOM     44  N   UNL A   1     -24.758  -1.481  32.646  0.00  0.00    -0.219 NA
ENDBRANCH  33  40
ENDBRANCH  26  33
ENDBRANCH   1  26
TORSDOF 12
