REMARK  Name = outputs/IAG933/test6/raw/output_2783_IAG933_linker_design_.xyz
REMARK  10 active torsions:
REMARK  status: ('A' for Active; 'I' for Inactive)
REMARK    1  A    between atoms: C_1  and  C_2
REMARK    2  A    between atoms: C_1  and  C_8
REMARK    3  A    between atoms: C_1  and  C_35
REMARK    4  A    between atoms: C_13  and  N_38
REMARK    5  A    between atoms: C_14  and  C_15
REMARK    6  A    between atoms: C_21  and  O_22
REMARK    7  A    between atoms: O_22  and  C_23
REMARK    8  A    between atoms: C_23  and  C_24
REMARK    9  A    between atoms: C_28  and  C_31
REMARK   10  A    between atoms: C_31  and  C_39
REMARK                            x       y       z     vdW  Elec       q    Type
REMARK                         _______ _______ _______ _____ _____    ______ ____
ROOT
ATOM      1  C   UNL A   1     -22.524   1.192  27.674  0.00  0.00    +0.090 C 
ATOM      2  C   UNL A   1     -23.029   2.078  25.628  0.00  0.00    +0.252 C 
ATOM      3  O   UNL A   1     -20.393   2.241  27.710  0.00  0.00    -0.245 OA
ATOM      4  N   UNL A   1     -24.872   0.341  28.132  0.00  0.00    -0.147 NA
ATOM      5  C   UNL A   1     -21.381   1.872  27.124  0.00  0.00    +0.342 C 
ATOM      6  C   UNL A   1     -24.281  -0.076  29.147  0.00  0.00    +0.069 C 
ATOM      7  O   UNL A   1     -21.639   2.306  25.826  0.00  0.00    -0.439 OA
ATOM      8  N   UNL A   1     -24.672   1.116  27.188  0.00  0.00    -0.197 N 
ATOM      9  C   UNL A   1     -23.013   0.474  28.863  0.00  0.00    +0.028 C 
ATOM     10  C   UNL A   1     -23.485   1.401  26.776  0.00  0.00    +0.099 C 
ENDROOT
BRANCH   8  11
ATOM     11  C   UNL A   1     -25.688   1.614  26.461  0.00  0.00    +0.110 C 
ATOM     12  C   UNL A   1     -26.250   2.920  26.395  0.00  0.00    +0.092 C 
ATOM     13  C   UNL A   1     -27.438   3.091  25.645  0.00  0.00    +0.108 C 
ATOM     14  N   UNL A   1     -28.075   2.089  25.003  0.00  0.00    -0.208 NA
ATOM     15  C   UNL A   1     -27.543   0.849  25.079  0.00  0.00    +0.255 C 
ATOM     16  C   UNL A   1     -26.354   0.576  25.777  0.00  0.00    +0.208 C 
ATOM     17  F   UNL A   1     -25.860  -0.681  25.795  0.00  0.00    -0.198 F 
BRANCH  12  18
ATOM     18  C   UNL A   1     -25.642   4.093  27.123  0.00  0.00    +0.268 C 
ATOM     19  N   UNL A   1     -25.614   5.252  26.449  0.00  0.00    -0.200 NA
ATOM     20  C   UNL A   1     -25.026   6.479  26.963  0.00  0.00    +0.139 C 
ATOM     21  O   UNL A   1     -25.143   3.966  28.243  0.00  0.00    -0.268 OA
ENDBRANCH  12  18
BRANCH  15  22
ATOM     22  O   UNL A   1     -28.193  -0.208  24.477  0.00  0.00    -0.456 OA
BRANCH  22  23
ATOM     23  C   UNL A   1     -29.460   0.005  23.866  0.00  0.00    +0.243 C 
BRANCH  23  24
ATOM     24  C   UNL A   1     -30.065  -1.377  23.573  0.00  0.00    +0.229 C 
ATOM     25  O   UNL A   1     -30.729  -1.878  24.721  0.00  0.00    -0.216 OA
ENDBRANCH  23  24
ENDBRANCH  22  23
ENDBRANCH  15  22
ENDBRANCH   8  11
BRANCH   9  26
ATOM     26  C   UNL A   1     -22.068   0.407  29.863  0.00  0.00    +0.175 C 
ATOM     27  O   UNL A   1     -22.489   0.142  31.131  0.00  0.00    -0.218 OA
BRANCH  26  28
ATOM     28  C   UNL A   1     -20.842  -0.293  29.212  0.00  0.00    +0.037 C 
ATOM     29  C   UNL A   1     -19.967  -0.239  28.054  0.00  0.00    +0.003 C 
ENDBRANCH  26  28
ENDBRANCH   9  26
BRANCH   6  30
ATOM     30  C   UNL A   1     -24.855  -1.012  30.143  0.00  0.00    +0.077 C 
BRANCH  30  31
ATOM     31  C   UNL A   1     -24.973  -2.505  29.788  0.00  0.00    -0.016 C 
ATOM     32  C   UNL A   1     -23.906  -3.173  29.146  0.00  0.00    -0.004 C 
ATOM     33  C   UNL A   1     -23.989  -4.549  28.853  0.00  0.00    -0.000 C 
ATOM     34  C   UNL A   1     -25.137  -5.280  29.205  0.00  0.00    -0.000 C 
ATOM     35  C   UNL A   1     -26.232  -4.611  29.784  0.00  0.00    -0.000 C 
ATOM     36  C   UNL A   1     -26.155  -3.232  30.065  0.00  0.00    -0.004 C 
ENDBRANCH  30  31
BRANCH  30  37
ATOM     37  C   UNL A   1     -25.387  -0.679  31.571  0.00  0.00    +0.082 C 
ATOM     38  C   UNL A   1     -25.189   0.773  32.028  0.00  0.00    +0.020 C 
ATOM     39  C   UNL A   1     -25.336   0.684  33.544  0.00  0.00    +0.020 C 
ATOM     40  C   UNL A   1     -24.829  -0.715  33.905  0.00  0.00    +0.089 C 
ATOM     41  N   UNL A   1     -24.758  -1.481  32.646  0.00  0.00    -0.219 NA
ENDBRANCH  30  37
ENDBRANCH   6  30
TORSDOF 10
