MODEL 2783
MODEL 1
REMARK VINA RESULT:    -8.558      0.000      0.000
REMARK INTER + INTRA:         -13.990
REMARK INTER:                 -12.060
REMARK INTRA:                  -1.930
REMARK UNBOUND:                -1.930
REMARK  Name = No_2783-gen_results/8p0m/2024-11-27-11-27-31/
REMARK  7 active torsions:
REMARK  status: ('A' for Active; 'I' for Inactive)
REMARK    1  A    between atoms: C_1  and  C_2
REMARK    2  A    between atoms: C_5  and  C_13
REMARK    3  A    between atoms: C_9  and  C_18
REMARK    4  A    between atoms: C_22  and  O_25
REMARK    5  A    between atoms: O_25  and  C_26
REMARK    6  A    between atoms: C_27  and  C_28
REMARK    7  A    between atoms: C_28  and  C_29
REMARK                            x       y       z     vdW  Elec       q    Type
REMARK                         _______ _______ _______ _____ _____    ______ ____
ROOT
ATOM      1  C   UNL A   1     -25.173   3.133  27.135  0.00  0.00    +0.003 A 
ATOM      2  C   UNL A   1     -25.207   4.258  27.632  0.00  0.00    +0.001 A 
ATOM      3  C   UNL A   1     -26.312   5.117  27.513  0.00  0.00    +0.015 A 
ATOM      4  C   UNL A   1     -27.358   4.716  26.646  0.00  0.00    +0.092 A 
ATOM      5  C   UNL A   1     -27.324   3.485  26.086  0.00  0.00    +0.156 A 
ATOM      6  C   UNL A   1     -26.306   2.607  26.376  0.00  0.00    +0.038 A 
ATOM      7 CL   UNL A   1     -28.658   5.815  26.393  0.00  0.00    -0.079 Cl
ENDROOT
BRANCH   1  10
ATOM      8  C   UNL A   1     -23.261   0.567  29.163  0.00  0.00    +0.028 A 
ATOM      9  C   UNL A   1     -24.173   1.609  28.676  0.00  0.00    +0.002 A 
ATOM     10  C   UNL A   1     -24.109   2.112  27.601  0.00  0.00    +0.000 A 
ATOM     11  C   UNL A   1     -22.823   2.250  26.966  0.00  0.00    +0.002 A 
ATOM     12  C   UNL A   1     -21.706   1.641  27.498  0.00  0.00    +0.030 A 
ATOM     13  C   UNL A   1     -22.039   0.646  28.321  0.00  0.00    +0.140 A 
ATOM     14  F   UNL A   1     -21.102  -0.280  28.504  0.00  0.00    -0.204 F 
BRANCH   8  15
ATOM     15  C   UNL A   1     -23.753  -0.533  29.258  0.00  0.00    +0.013 A 
ATOM     16  C   UNL A   1     -23.656  -1.357  30.366  0.00  0.00    +0.058 A 
ATOM     17  C   UNL A   1     -24.162  -2.703  30.477  0.00  0.00    +0.018 A 
ATOM     18  C   UNL A   1     -24.834  -3.268  29.365  0.00  0.00    +0.081 A 
ATOM     19  C   UNL A   1     -24.970  -2.474  28.197  0.00  0.00    +0.007 A 
ATOM     20  C   UNL A   1     -24.432  -1.224  28.180  0.00  0.00    +0.001 A 
ATOM     21 CL   UNL A   1     -22.844  -0.771  31.769  0.00  0.00    -0.082 Cl
BRANCH  18  22
ATOM     22  C   UNL A   1     -25.441  -4.583  29.414  0.00  0.00    +0.388 C 
ATOM     23  O   UNL A   1     -24.912  -5.573  28.986  0.00  0.00    -0.241 OA
ATOM     24  O   UNL A   1     -26.718  -4.743  29.852  0.00  0.00    -0.241 OA
ENDBRANCH  18  22
ENDBRANCH   8  15
ENDBRANCH   1  10
BRANCH   5  25
ATOM     25  O   UNL A   1     -28.382   3.037  25.336  0.00  0.00    -0.450 OA
BRANCH  25  26
ATOM     26  C   UNL A   1     -28.471   3.222  24.092  0.00  0.00    +0.175 C 
ATOM     27  C   UNL A   1     -28.476   2.324  23.203  0.00  0.00    +0.018 C 
BRANCH  27  28
ATOM     28  C   UNL A   1     -28.742   0.930  23.623  0.00  0.00    +0.048 C 
ATOM     29  C   UNL A   1     -27.402   0.291  24.052  0.00  0.00    +0.009 C 
BRANCH  28  30
ATOM     30  C   UNL A   1     -29.595   0.374  23.734  0.00  0.00    -0.018 A 
ATOM     31  C   UNL A   1     -30.882   0.741  23.056  0.00  0.00    -0.004 A 
ATOM     32  C   UNL A   1     -32.041  -0.055  23.018  0.00  0.00    -0.000 A 
ATOM     33  C   UNL A   1     -31.926  -1.349  23.612  0.00  0.00    -0.000 A 
ATOM     34  C   UNL A   1     -30.800  -1.812  24.190  0.00  0.00    -0.000 A 
ATOM     35  C   UNL A   1     -29.688  -1.006  24.206  0.00  0.00    -0.004 A 
ENDBRANCH  28  30
ENDBRANCH  27  28
ENDBRANCH  25  26
ENDBRANCH   5  25
TORSDOF 7
ENDMDL
ENDMDL
