REMARK  Name = No_2784-gen_results/8p0m/2024-11-27-11-27-31/
REMARK  5 active torsions:
REMARK  status: ('A' for Active; 'I' for Inactive)
REMARK    1  A    between atoms: C_1  and  C_8
REMARK    2  A    between atoms: C_5  and  C_11
REMARK    3  A    between atoms: C_7  and  C_14
REMARK    4  A    between atoms: C_15  and  C_16
REMARK    5  A    between atoms: C_17  and  C_18
REMARK                            x       y       z     vdW  Elec       q    Type
REMARK                         _______ _______ _______ _____ _____    ______ ____
ROOT
ATOM      1  C   UNL A   1     -28.016  -0.814  28.878  0.00  0.00    +0.078 C 
ATOM      2  C   UNL A   1     -27.064  -0.119  28.608  0.00  0.00    -0.034 C 
ATOM      3  C   UNL A   1     -26.972   0.714  27.506  0.00  0.00    +0.023 C 
ATOM      4  C   UNL A   1     -25.820   1.491  27.116  0.00  0.00    +0.008 C 
ATOM      5  C   UNL A   1     -24.656   1.424  27.918  0.00  0.00    +0.050 C 
ATOM      6  C   UNL A   1     -24.685   0.590  29.066  0.00  0.00    +0.012 C 
ATOM      7  C   UNL A   1     -25.810  -0.127  29.334  0.00  0.00    +0.041 C 
ENDROOT
BRANCH   1   8
ATOM      8  C   UNL A   1     -29.219  -0.042  29.313  0.00  0.00    +0.387 C 
ATOM      9  O   UNL A   1     -29.648   0.735  28.684  0.00  0.00    -0.241 OA
ATOM     10  O   UNL A   1     -29.580  -0.255  30.575  0.00  0.00    -0.241 OA
ENDBRANCH   1   8
BRANCH   5  11
ATOM     11  C   UNL A   1     -23.484   2.214  27.596  0.00  0.00    +0.239 C 
ATOM     12 CL   UNL A   1     -22.300   2.265  28.729  0.00  0.00    -0.076 Cl
ATOM     13  F   UNL A   1     -23.214   2.588  26.455  0.00  0.00    -0.219 F 
ENDBRANCH   5  11
BRANCH   7  14
ATOM     14  C   UNL A   1     -25.692  -1.012  30.557  0.00  0.00    -0.022 C 
ATOM     15  C   UNL A   1     -25.081  -0.771  31.500  0.00  0.00    -0.004 C 
BRANCH  15  16
ATOM     16  C   UNL A   1     -25.286  -1.432  32.763  0.00  0.00    +0.001 C 
ATOM     17  C   UNL A   1     -26.565  -1.316  33.328  0.00  0.00    +0.022 C 
BRANCH  17  18
ATOM     18  C   UNL A   1     -26.736  -1.392  34.648  0.00  0.00    +0.122 C 
ATOM     19  N   UNL A   1     -27.981  -1.547  35.217  0.00  0.00    -0.146 NA
ENDBRANCH  17  18
ENDBRANCH  15  16
ENDBRANCH   7  14
TORSDOF 5
