MODEL 2785
MODEL 1
REMARK VINA RESULT:    -5.347      0.000      0.000
REMARK INTER + INTRA:          -5.074
REMARK INTER:                  -5.660
REMARK INTRA:                   0.586
REMARK UNBOUND:                 0.586
REMARK  Name = No_2785-gen_results/8p0m/2024-11-27-11-27-31/
REMARK  1 active torsions:
REMARK  status: ('A' for Active; 'I' for Inactive)
REMARK    1  A    between atoms: C_2  and  C_4
REMARK                            x       y       z     vdW  Elec       q    Type
REMARK                         _______ _______ _______ _____ _____    ______ ____
ROOT
ATOM      1  O   UNL A   1     -25.533  -1.310  31.291  0.00  0.00    -0.270 OA
ATOM      2  C   UNL A   1     -25.047  -1.878  30.306  0.00  0.00    +0.249 C 
ATOM      3  N   UNL A   1     -25.121  -2.657  29.647  0.00  0.00    -0.276 N 
ATOM      4  C   UNL A   1     -26.316  -3.559  29.765  0.00  0.00    +0.094 C 
ATOM      5  C   UNL A   1     -26.105  -4.858  29.637  0.00  0.00    +0.022 C 
ATOM      6  C   UNL A   1     -25.017  -5.331  28.937  0.00  0.00    +0.004 C 
ATOM      7  C   UNL A   1     -23.958  -4.432  28.614  0.00  0.00    +0.022 C 
ATOM      8  C   UNL A   1     -24.044  -3.278  29.015  0.00  0.00    +0.094 C 
ENDROOT
BRANCH   2   9
ATOM      9  C   UNL A   1     -23.725  -0.998  29.847  0.00  0.00    +0.053 C 
ATOM     10  C   UNL A   1     -22.830  -0.571  30.670  0.00  0.00    -0.021 C 
ATOM     11  C   UNL A   1     -22.867  -0.898  31.829  0.00  0.00    +0.031 C 
ENDBRANCH   2   9
TORSDOF 1
ENDMDL
ENDMDL
