REMARK  Name = No_2785-gen_results/8p0m/2024-11-27-11-27-31/
REMARK  1 active torsions:
REMARK  status: ('A' for Active; 'I' for Inactive)
REMARK    1  A    between atoms: C_2  and  C_4
REMARK                            x       y       z     vdW  Elec       q    Type
REMARK                         _______ _______ _______ _____ _____    ______ ____
ROOT
ATOM      1  O   UNL A   1     -28.123  -1.335  28.487  0.00  0.00    -0.270 OA
ATOM      2  C   UNL A   1     -27.064  -0.824  28.869  0.00  0.00    +0.249 C 
ATOM      3  N   UNL A   1     -26.445  -0.010  28.827  0.00  0.00    -0.276 N 
ATOM      4  C   UNL A   1     -26.915   1.184  28.047  0.00  0.00    +0.094 C 
ATOM      5  C   UNL A   1     -26.023   1.795  27.286  0.00  0.00    +0.022 C 
ATOM      6  C   UNL A   1     -24.677   1.706  27.565  0.00  0.00    +0.004 C 
ATOM      7  C   UNL A   1     -24.225   0.714  28.485  0.00  0.00    +0.022 C 
ATOM      8  C   UNL A   1     -25.057  -0.051  28.957  0.00  0.00    +0.094 C 
ENDROOT
BRANCH   2   9
ATOM      9  C   UNL A   1     -26.351  -1.905  29.895  0.00  0.00    +0.053 C 
ATOM     10  C   UNL A   1     -25.086  -1.930  30.141  0.00  0.00    -0.021 C 
ATOM     11  C   UNL A   1     -24.366  -1.071  29.700  0.00  0.00    +0.031 C 
ENDBRANCH   2   9
TORSDOF 1
