MODEL 2786
MODEL 1
REMARK VINA RESULT:    -5.793      0.000      0.000
REMARK INTER + INTRA:          -6.775
REMARK INTER:                  -6.471
REMARK INTRA:                  -0.305
REMARK UNBOUND:                -0.305
REMARK  Name = No_2786-gen_results/8p0m/2024-11-27-11-27-31/
REMARK  2 active torsions:
REMARK  status: ('A' for Active; 'I' for Inactive)
REMARK    1  A    between atoms: C_1  and  C_2
REMARK    2  A    between atoms: C_5  and  C_9
REMARK                            x       y       z     vdW  Elec       q    Type
REMARK                         _______ _______ _______ _____ _____    ______ ____
ROOT
ATOM      1  C   UNL A   1     -23.177   0.851  27.700  0.00  0.00    +0.071 A 
ATOM      2  C   UNL A   1     -22.440   0.042  28.542  0.00  0.00    +0.004 A 
ATOM      3  C   UNL A   1     -22.861  -1.247  29.059  0.00  0.00    -0.002 A 
ATOM      4  C   UNL A   1     -24.133  -1.742  28.697  0.00  0.00    +0.008 A 
ATOM      5  C   UNL A   1     -24.906  -0.914  27.807  0.00  0.00    -0.002 A 
ATOM      6  C   UNL A   1     -24.472   0.288  27.300  0.00  0.00    +0.004 A 
ENDROOT
BRANCH   1   7
ATOM      7  C   UNL A   1     -22.763   1.890  27.239  0.00  0.00    +0.419 C 
ATOM      8  F   UNL A   1     -22.671   1.890  25.927  0.00  0.00    -0.166 F 
ATOM      9  F   UNL A   1     -21.446   2.159  27.666  0.00  0.00    -0.166 F 
ATOM     10  F   UNL A   1     -23.548   2.970  27.444  0.00  0.00    -0.166 F 
ENDBRANCH   1   7
BRANCH   4  11
ATOM     11  C   UNL A   1     -24.646  -2.987  29.156  0.00  0.00    +0.181 C 
ATOM     12 CL   UNL A   1     -25.945  -2.965  30.079  0.00  0.00    -0.092 Cl
ATOM     13 CL   UNL A   1     -24.024  -4.437  28.598  0.00  0.00    -0.092 Cl
ENDBRANCH   4  11
TORSDOF 2
ENDMDL
ENDMDL
