MODEL 2788
MODEL 1
REMARK VINA RESULT:    -5.385      0.000      0.000
REMARK INTER + INTRA:          -5.385
REMARK INTER:                  -5.385
REMARK INTRA:                   0.000
REMARK UNBOUND:                 0.000
REMARK  Name = No_2788-gen_results/8p0m/2024-11-27-11-27-31/
REMARK  0 active torsions:
REMARK  status: ('A' for Active; 'I' for Inactive)
REMARK                            x       y       z     vdW  Elec       q    Type
REMARK                         _______ _______ _______ _____ _____    ______ ____
ROOT
ATOM      1  C   UNL A   1     -23.985  -3.780  28.845  0.00  0.00    +0.037 A 
ATOM      2  C   UNL A   1     -24.409  -2.656  28.985  0.00  0.00    +0.145 A 
ATOM      3  C   UNL A   1     -25.663  -2.366  29.416  0.00  0.00    +0.035 A 
ATOM      4  C   UNL A   1     -26.528  -3.434  29.720  0.00  0.00    +0.003 A 
ATOM      5  C   UNL A   1     -24.782  -4.917  29.228  0.00  0.00    +0.003 A 
ATOM      6  C   UNL A   1     -26.060  -4.681  29.639  0.00  0.00    +0.000 A 
ATOM      7  O   UNL A   1     -23.610  -1.537  28.724  0.00  0.00    -0.450 OA
ATOM      8  C   UNL A   1     -22.904  -0.991  29.816  0.00  0.00    +0.179 C 
ATOM      9  C   UNL A   1     -23.352  -1.075  30.875  0.00  0.00    +0.041 C 
ATOM     10  C   UNL A   1     -24.669  -1.348  31.287  0.00  0.00    +0.003 C 
ATOM     11  C   UNL A   1     -25.668  -2.048  30.787  0.00  0.00    +0.003 C 
ENDROOT
TORSDOF 0
ENDMDL
ENDMDL
