MODEL 2789
MODEL 1
REMARK VINA RESULT:    -6.813      0.000      0.000
REMARK INTER + INTRA:          -6.813
REMARK INTER:                  -6.813
REMARK INTRA:                   0.000
REMARK UNBOUND:                 0.000
REMARK  Name = No_2789-gen_results/8p0m/2024-11-27-11-27-31/
REMARK  0 active torsions:
REMARK  status: ('A' for Active; 'I' for Inactive)
REMARK                            x       y       z     vdW  Elec       q    Type
REMARK                         _______ _______ _______ _____ _____    ______ ____
ROOT
ATOM      1  C   UNL A   1     -24.426  -1.578  29.162  0.00  0.00    -0.000 A 
ATOM      2  C   UNL A   1     -24.912  -1.086  28.170  0.00  0.00    -0.004 A 
ATOM      3  C   UNL A   1     -24.357  -0.048  27.441  0.00  0.00    -0.017 A 
ATOM      4  C   UNL A   1     -23.098   0.455  27.884  0.00  0.00    +0.051 A 
ATOM      5  C   UNL A   1     -22.506  -0.211  28.888  0.00  0.00    +0.004 A 
ATOM      6  C   UNL A   1     -23.087  -1.210  29.489  0.00  0.00    +0.000 A 
ATOM      7  C   UNL A   1     -25.070   0.623  26.296  0.00  0.00    +0.039 C 
ATOM      8  C   UNL A   1     -25.358  -0.044  25.164  0.00  0.00    +0.006 C 
ATOM      9  C   UNL A   1     -26.073  -0.045  24.415  0.00  0.00    +0.000 C 
ATOM     10  C   UNL A   1     -27.129   1.107  24.527  0.00  0.00    +0.000 C 
ATOM     11  C   UNL A   1     -28.351   1.073  23.850  0.00  0.00    +0.000 C 
ATOM     12  C   UNL A   1     -26.514   1.121  26.670  0.00  0.00    +0.006 C 
ATOM     13  C   UNL A   1     -27.446   1.196  25.887  0.00  0.00    +0.000 C 
ATOM     14  C   UNL A   1     -24.316   1.955  25.910  0.00  0.00    +0.119 C 
ATOM     15  C   UNL A   1     -22.522   1.570  27.162  0.00  0.00    +0.265 C 
ATOM     16  N   UNL A   1     -23.172   2.248  26.270  0.00  0.00    -0.201 NA
ATOM     17  O   UNL A   1     -21.396   1.911  27.558  0.00  0.00    -0.268 OA
ENDROOT
TORSDOF 0
ENDMDL
ENDMDL
