REMARK  Name = No_2789-gen_results/8p0m/2024-11-27-11-27-31/
REMARK  0 active torsions:
REMARK  status: ('A' for Active; 'I' for Inactive)
REMARK                            x       y       z     vdW  Elec       q    Type
REMARK                         _______ _______ _______ _____ _____    ______ ____
ROOT
ATOM      1  C   UNL A   1     -28.016  -0.814  28.878  0.00  0.00    -0.000 A 
ATOM      2  C   UNL A   1     -27.064  -0.119  28.608  0.00  0.00    -0.004 A 
ATOM      3  C   UNL A   1     -26.972   0.714  27.506  0.00  0.00    -0.017 A 
ATOM      4  C   UNL A   1     -28.105   0.774  26.642  0.00  0.00    +0.051 A 
ATOM      5  C   UNL A   1     -29.204   0.118  27.048  0.00  0.00    +0.004 A 
ATOM      6  C   UNL A   1     -29.213  -0.609  28.128  0.00  0.00    +0.000 A 
ATOM      7  C   UNL A   1     -25.711   1.452  27.138  0.00  0.00    +0.039 C 
ATOM      8  C   UNL A   1     -25.207   2.413  27.932  0.00  0.00    +0.006 C 
ATOM      9  C   UNL A   1     -24.288   2.821  28.183  0.00  0.00    +0.000 C 
ATOM     10  C   UNL A   1     -23.080   2.245  27.369  0.00  0.00    +0.000 C 
ATOM     11  C   UNL A   1     -21.755   2.389  27.789  0.00  0.00    +0.000 C 
ATOM     12  C   UNL A   1     -24.450   0.516  27.043  0.00  0.00    +0.006 C 
ATOM     13  C   UNL A   1     -23.307   0.867  27.284  0.00  0.00    +0.000 C 
ATOM     14  C   UNL A   1     -25.843   2.032  25.677  0.00  0.00    +0.119 C 
ATOM     15  C   UNL A   1     -28.012   1.605  25.460  0.00  0.00    +0.265 C 
ATOM     16  N   UNL A   1     -26.903   2.135  25.051  0.00  0.00    -0.201 NA
ATOM     17  O   UNL A   1     -29.056   1.665  24.791  0.00  0.00    -0.268 OA
ENDROOT
TORSDOF 0
