MODEL 278
MODEL 1
REMARK VINA RESULT:    -4.347      0.000      0.000
REMARK INTER + INTRA:          -4.347
REMARK INTER:                  -4.347
REMARK INTRA:                   0.000
REMARK UNBOUND:                 0.000
REMARK  Name = No_278-gen_results/8p0m/2024-11-27-11-27-31/
REMARK  0 active torsions:
REMARK  status: ('A' for Active; 'I' for Inactive)
REMARK                            x       y       z     vdW  Elec       q    Type
REMARK                         _______ _______ _______ _____ _____    ______ ____
ROOT
ATOM      1  C   UNL A   1     -24.958  -5.377  29.039  0.00  0.00    +0.000 A 
ATOM      2  C   UNL A   1     -24.210  -4.717  28.701  0.00  0.00    +0.000 A 
ATOM      3  C   UNL A   1     -26.134  -4.694  29.592  0.00  0.00    +0.000 A 
ATOM      4  C   UNL A   1     -26.162  -3.378  29.809  0.00  0.00    +0.000 A 
ATOM      5  C   UNL A   1     -24.010  -3.295  28.841  0.00  0.00    +0.000 A 
ATOM      6  C   UNL A   1     -25.103  -2.682  29.379  0.00  0.00    +0.000 A 
ENDROOT
TORSDOF 0
ENDMDL
ENDMDL
