REMARK  Name = No_2791-gen_results/8p0m/2024-11-27-11-27-31/
REMARK  9 active torsions:
REMARK  status: ('A' for Active; 'I' for Inactive)
REMARK    1  A    between atoms: C_3  and  C_4
REMARK    2  A    between atoms: C_7  and  C_13
REMARK    3  A    between atoms: N_14  and  C_15
REMARK    4  A    between atoms: C_15  and  C_17
REMARK    5  A    between atoms: C_20  and  C_23
REMARK    6  A    between atoms: C_23  and  C_25
REMARK    7  A    between atoms: C_25  and  C_26
REMARK    8  A    between atoms: C_27  and  C_28
REMARK    9  A    between atoms: C_29  and  C_30
REMARK                            x       y       z     vdW  Elec       q    Type
REMARK                         _______ _______ _______ _____ _____    ______ ____
ROOT
ATOM      1  C   UNL A   1     -29.665  -4.782  31.238  0.00  0.00    +0.142 C 
ENDROOT
BRANCH   1   2
ATOM      2  C   UNL A   1     -30.480  -5.680  30.462  0.00  0.00    -0.001 A 
ATOM      3  C   UNL A   1     -31.755  -5.368  30.490  0.00  0.00    -0.003 A 
ATOM      4  C   UNL A   1     -32.486  -5.812  29.438  0.00  0.00    -0.004 A 
ATOM      5  C   UNL A   1     -31.984  -6.762  28.454  0.00  0.00    -0.022 A 
ATOM      6  C   UNL A   1     -30.616  -6.979  28.483  0.00  0.00    -0.004 A 
ATOM      7  C   UNL A   1     -29.858  -6.346  29.472  0.00  0.00    -0.003 A 
BRANCH   5   8
ATOM      8  C   UNL A   1     -32.801  -7.338  27.395  0.00  0.00    +0.027 C 
ATOM      9  C   UNL A   1     -33.261  -6.540  26.422  0.00  0.00    +0.005 C 
BRANCH   8  10
ATOM     10  C   UNL A   1     -32.984  -8.707  27.332  0.00  0.00    +0.030 C 
BRANCH  10  11
ATOM     11  C   UNL A   1     -32.741  -9.499  28.233  0.00  0.00    -0.026 C 
ATOM     12  C   UNL A   1     -32.743  -9.196  29.487  0.00  0.00    -0.005 C 
BRANCH  12  13
ATOM     13  C   UNL A   1     -32.408 -10.280  30.525  0.00  0.00    -0.000 C 
ATOM     14  C   UNL A   1     -32.391  -9.948  31.899  0.00  0.00    -0.000 C 
BRANCH  14  15
ATOM     15  C   UNL A   1     -32.629  -8.602  32.285  0.00  0.00    -0.000 C 
ATOM     16  C   UNL A   1     -33.044  -7.691  31.378  0.00  0.00    -0.000 C 
ENDBRANCH  14  15
ENDBRANCH  12  13
ENDBRANCH  10  11
ENDBRANCH   8  10
ENDBRANCH   5   8
ENDBRANCH   1   2
BRANCH   1  18
ATOM     17  C   UNL A   1     -28.978  -2.771  30.258  0.00  0.00    +0.265 C 
ATOM     18  N   UNL A   1     -28.831  -4.072  30.487  0.00  0.00    -0.197 NA
ATOM     19  O   UNL A   1     -30.095  -2.321  30.044  0.00  0.00    -0.268 OA
BRANCH  17  23
ATOM     20  C   UNL A   1     -28.016  -0.814  28.878  0.00  0.00    +0.005 A 
ATOM     21  C   UNL A   1     -27.064  -0.119  28.608  0.00  0.00    +0.000 A 
ATOM     22  C   UNL A   1     -25.765  -0.390  29.036  0.00  0.00    +0.000 A 
ATOM     23  C   UNL A   1     -27.829  -1.929  29.855  0.00  0.00    +0.055 A 
ATOM     24  C   UNL A   1     -26.588  -2.327  30.268  0.00  0.00    +0.005 A 
ATOM     25  C   UNL A   1     -25.456  -1.543  29.915  0.00  0.00    +0.000 A 
BRANCH  22  26
ATOM     26  C   UNL A   1     -24.552   0.406  28.765  0.00  0.00    +0.000 A 
ATOM     27  C   UNL A   1     -23.230   0.118  29.258  0.00  0.00    +0.000 A 
ATOM     28  C   UNL A   1     -22.139   0.943  28.922  0.00  0.00    +0.000 A 
ATOM     29  C   UNL A   1     -22.230   1.909  27.872  0.00  0.00    +0.000 A 
ATOM     30  C   UNL A   1     -24.554   1.470  27.762  0.00  0.00    +0.000 A 
ATOM     31  C   UNL A   1     -23.447   2.167  27.376  0.00  0.00    +0.000 A 
ENDBRANCH  22  26
ENDBRANCH  17  23
ENDBRANCH   1  18
TORSDOF 9
