MODEL 2791
MODEL 1
REMARK VINA RESULT:    -6.632      0.000      0.000
REMARK INTER + INTRA:         -13.091
REMARK INTER:                 -10.121
REMARK INTRA:                  -2.970
REMARK UNBOUND:                -2.970
REMARK  Name = No_2791-gen_results/8p0m/2024-11-27-11-27-31/
REMARK  9 active torsions:
REMARK  status: ('A' for Active; 'I' for Inactive)
REMARK    1  A    between atoms: C_3  and  C_4
REMARK    2  A    between atoms: C_7  and  C_13
REMARK    3  A    between atoms: N_14  and  C_15
REMARK    4  A    between atoms: C_15  and  C_17
REMARK    5  A    between atoms: C_20  and  C_23
REMARK    6  A    between atoms: C_23  and  C_25
REMARK    7  A    between atoms: C_25  and  C_26
REMARK    8  A    between atoms: C_27  and  C_28
REMARK    9  A    between atoms: C_29  and  C_30
REMARK                            x       y       z     vdW  Elec       q    Type
REMARK                         _______ _______ _______ _____ _____    ______ ____
ROOT
ATOM      1  C   UNL A   1     -28.463 -16.231   8.812  0.00  0.00    +0.142 C 
ENDROOT
BRANCH   1   2
ATOM      2  C   UNL A   1     -29.852 -16.142   9.179  0.00  0.00    -0.001 A 
ATOM      3  C   UNL A   1     -30.030 -15.747  10.419  0.00  0.00    -0.003 A 
ATOM      4  C   UNL A   1     -31.227 -15.168  10.679  0.00  0.00    -0.004 A 
ATOM      5  C   UNL A   1     -32.345 -15.176   9.744  0.00  0.00    -0.022 A 
ATOM      6  C   UNL A   1     -32.033 -15.563   8.451  0.00  0.00    -0.004 A 
ATOM      7  C   UNL A   1     -30.727 -15.975   8.171  0.00  0.00    -0.003 A 
BRANCH   5   8
ATOM      8  C   UNL A   1     -33.671 -14.666  10.063  0.00  0.00    +0.027 C 
ATOM      9  C   UNL A   1     -34.473 -15.391  10.854  0.00  0.00    +0.005 C 
BRANCH   8  10
ATOM     10  C   UNL A   1     -34.037 -13.395   9.659  0.00  0.00    +0.030 C 
BRANCH  10  11
ATOM     11  C   UNL A   1     -33.574 -12.349  10.096  0.00  0.00    -0.026 C 
ATOM     12  C   UNL A   1     -32.578 -11.720   9.571  0.00  0.00    -0.005 C 
BRANCH  12  13
ATOM     13  C   UNL A   1     -32.080 -10.419  10.222  0.00  0.00    -0.000 C 
ATOM     14  C   UNL A   1     -31.063 -10.475  11.203  0.00  0.00    -0.000 C 
BRANCH  14  15
ATOM     15  C   UNL A   1     -30.565 -11.743  11.606  0.00  0.00    -0.000 C 
ATOM     16  C   UNL A   1     -30.647 -12.135  12.896  0.00  0.00    -0.000 C 
ENDBRANCH  14  15
ENDBRANCH  12  13
ENDBRANCH  10  11
ENDBRANCH   8  10
ENDBRANCH   5   8
ENDBRANCH   1   2
BRANCH   1  18
ATOM     17  C   UNL A   1     -27.857 -14.374   7.524  0.00  0.00    +0.265 C 
ATOM     18  N   UNL A   1     -27.895 -15.039   8.674  0.00  0.00    -0.197 NA
ATOM     19  O   UNL A   1     -27.631 -14.980   6.486  0.00  0.00    -0.268 OA
BRANCH  17  23
ATOM     20  C   UNL A   1     -26.551 -12.299   6.719  0.00  0.00    +0.005 A 
ATOM     21  C   UNL A   1     -26.461 -11.094   6.680  0.00  0.00    +0.000 A 
ATOM     22  C   UNL A   1     -27.255 -10.237   7.441  0.00  0.00    +0.000 A 
ATOM     23  C   UNL A   1     -27.675 -12.905   7.494  0.00  0.00    +0.055 A 
ATOM     24  C   UNL A   1     -28.455 -12.162   8.336  0.00  0.00    +0.005 A 
ATOM     25  C   UNL A   1     -28.324 -10.746   8.333  0.00  0.00    +0.000 A 
BRANCH  22  26
ATOM     26  C   UNL A   1     -27.222  -8.761   7.448  0.00  0.00    +0.000 A 
ATOM     27  C   UNL A   1     -26.981  -7.920   6.304  0.00  0.00    +0.000 A 
ATOM     28  C   UNL A   1     -26.987  -6.517   6.426  0.00  0.00    +0.000 A 
ATOM     29  C   UNL A   1     -27.505  -5.872   7.592  0.00  0.00    +0.000 A 
ATOM     30  C   UNL A   1     -27.660  -8.000   8.618  0.00  0.00    +0.000 A 
ATOM     31  C   UNL A   1     -27.768  -6.641   8.656  0.00  0.00    +0.000 A 
ENDBRANCH  22  26
ENDBRANCH  17  23
ENDBRANCH   1  18
TORSDOF 9
ENDMDL
ENDMDL
