REMARK  Name = outputs/IAG933/test6/raw/output_2793_IAG933_linker_design_.xyz
REMARK  15 active torsions:
REMARK  status: ('A' for Active; 'I' for Inactive)
REMARK    1  A    between atoms: C_1  and  C_2
REMARK    2  A    between atoms: C_1  and  C_8
REMARK    3  A    between atoms: C_9  and  N_32
REMARK    4  A    between atoms: C_13  and  C_38
REMARK    5  A    between atoms: C_14  and  C_15
REMARK    6  A    between atoms: C_21  and  O_22
REMARK    7  A    between atoms: O_22  and  C_23
REMARK    8  A    between atoms: C_23  and  C_24
REMARK    9  A    between atoms: O_28  and  C_33
REMARK   10  A    between atoms: O_28  and  C_34
REMARK   11  A    between atoms: C_29  and  C_33
REMARK   12  A    between atoms: C_29  and  C_40
REMARK   13  A    between atoms: C_31  and  C_34
REMARK   14  A    between atoms: C_37  and  C_44
REMARK   15  A    between atoms: C_41  and  C_44
REMARK                            x       y       z     vdW  Elec       q    Type
REMARK                         _______ _______ _______ _____ _____    ______ ____
ROOT
ATOM      1  C   UNL A   1     -28.137   1.959  31.487  0.00  0.00    +0.021 C 
ATOM      2  C   UNL A   1     -27.772   2.013  30.019  0.00  0.00    +0.046 C 
ATOM      3  N   UNL A   1     -25.860   1.829  31.384  0.00  0.00    -0.274 NA
ATOM      4  C   UNL A   1     -26.923   2.517  32.005  0.00  0.00    +0.072 C 
ATOM      5  C   UNL A   1     -26.250   1.718  29.931  0.00  0.00    +0.064 C 
ENDROOT
BRANCH   3   7
ATOM      6  C   UNL A   1     -25.387  -0.679  31.571  0.00  0.00    +0.092 C 
ATOM      7  C   UNL A   1     -25.189   0.773  32.028  0.00  0.00    +0.075 C 
ATOM      8  C   UNL A   1     -25.336   0.684  33.544  0.00  0.00    +0.036 C 
ATOM      9  C   UNL A   1     -24.829  -0.715  33.905  0.00  0.00    +0.090 C 
ATOM     10  N   UNL A   1     -24.758  -1.481  32.646  0.00  0.00    -0.218 NA
BRANCH   6  11
ATOM     11  C   UNL A   1     -24.855  -1.012  30.143  0.00  0.00    +0.045 C 
BRANCH  11  12
ATOM     12  C   UNL A   1     -24.973  -2.505  29.788  0.00  0.00    -0.021 C 
ATOM     13  C   UNL A   1     -23.906  -3.173  29.146  0.00  0.00    -0.004 C 
ATOM     14  C   UNL A   1     -23.989  -4.549  28.853  0.00  0.00    -0.000 C 
ATOM     15  C   UNL A   1     -25.137  -5.280  29.205  0.00  0.00    -0.000 C 
ATOM     16  C   UNL A   1     -26.232  -4.611  29.784  0.00  0.00    -0.000 C 
ATOM     17  C   UNL A   1     -26.155  -3.232  30.065  0.00  0.00    -0.004 C 
ENDBRANCH  11  12
ENDBRANCH   6  11
ENDBRANCH   3   7
BRANCH   2  18
ATOM     18  C   UNL A   1     -28.840   1.298  29.152  0.00  0.00    +0.143 C 
BRANCH  18  19
ATOM     19  O   UNL A   1     -29.836   0.727  30.068  0.00  0.00    -0.354 OA
BRANCH  19  20
ATOM     20  C   UNL A   1     -29.366  -0.537  30.596  0.00  0.00    +0.145 C 
BRANCH  20  21
ATOM     21  C   UNL A   1     -28.784  -1.332  29.444  0.00  0.00    +0.068 C 
BRANCH  21  23
ATOM     22  O   UNL A   1     -31.070  -0.662  28.301  0.00  0.00    -0.220 OA
ATOM     23  C   UNL A   1     -29.816  -1.423  28.278  0.00  0.00    +0.185 C 
ENDBRANCH  21  23
ENDBRANCH  20  21
ENDBRANCH  19  20
ENDBRANCH  18  19
ENDBRANCH   2  18
BRANCH   5  24
ATOM     24  C   UNL A   1     -25.532   0.780  29.025  0.00  0.00    +0.038 C 
BRANCH  24  25
ATOM     25  C   UNL A   1     -24.327   0.942  28.297  0.00  0.00    -0.036 C 
ATOM     26  C   UNL A   1     -24.385   1.482  27.050  0.00  0.00    -0.003 C 
ATOM     27  C   UNL A   1     -22.260   1.422  27.498  0.00  0.00    +0.122 C 
ATOM     28  C   UNL A   1     -23.122   1.892  26.513  0.00  0.00    +0.025 C 
ATOM     29  C   UNL A   1     -22.923   0.862  28.600  0.00  0.00    +0.079 C 
ATOM     30  F   UNL A   1     -20.916   1.662  27.399  0.00  0.00    -0.208 F 
BRANCH  26  31
ATOM     31  C   UNL A   1     -25.688   1.614  26.461  0.00  0.00    +0.038 C 
ATOM     32  C   UNL A   1     -26.250   2.920  26.395  0.00  0.00    +0.076 C 
ATOM     33  C   UNL A   1     -27.438   3.091  25.645  0.00  0.00    +0.107 C 
ATOM     34  N   UNL A   1     -28.075   2.089  25.003  0.00  0.00    -0.208 NA
ATOM     35  C   UNL A   1     -27.543   0.849  25.079  0.00  0.00    +0.253 C 
ATOM     36  C   UNL A   1     -26.354   0.576  25.777  0.00  0.00    +0.193 C 
ATOM     37  F   UNL A   1     -25.860  -0.681  25.795  0.00  0.00    -0.199 F 
BRANCH  32  38
ATOM     38  C   UNL A   1     -25.642   4.093  27.123  0.00  0.00    +0.266 C 
ATOM     39  N   UNL A   1     -25.614   5.252  26.449  0.00  0.00    -0.200 NA
ATOM     40  C   UNL A   1     -25.026   6.479  26.963  0.00  0.00    +0.139 C 
ATOM     41  O   UNL A   1     -25.143   3.966  28.243  0.00  0.00    -0.268 OA
ENDBRANCH  32  38
BRANCH  35  42
ATOM     42  O   UNL A   1     -28.193  -0.208  24.477  0.00  0.00    -0.456 OA
BRANCH  42  43
ATOM     43  C   UNL A   1     -29.460   0.005  23.866  0.00  0.00    +0.243 C 
BRANCH  43  44
ATOM     44  C   UNL A   1     -30.065  -1.377  23.573  0.00  0.00    +0.229 C 
ATOM     45  O   UNL A   1     -30.729  -1.878  24.721  0.00  0.00    -0.216 OA
ENDBRANCH  43  44
ENDBRANCH  42  43
ENDBRANCH  35  42
ENDBRANCH  26  31
ENDBRANCH  24  25
ENDBRANCH   5  24
TORSDOF 15
