MODEL 2794
MODEL 1
REMARK VINA RESULT:    -6.850      0.000      0.000
REMARK INTER + INTRA:          -8.447
REMARK INTER:                  -8.051
REMARK INTRA:                  -0.396
REMARK UNBOUND:                -0.396
REMARK  Name = No_2794-gen_results/8p0m/2024-11-27-11-27-31/
REMARK  3 active torsions:
REMARK  status: ('A' for Active; 'I' for Inactive)
REMARK    1  A    between atoms: C_3  and  C_19
REMARK    2  A    between atoms: C_11  and  C_13
REMARK    3  A    between atoms: C_13  and  C_14
REMARK                            x       y       z     vdW  Elec       q    Type
REMARK                         _______ _______ _______ _____ _____    ______ ____
ROOT
ATOM      1  C   UNL A   1      -7.983  -0.111  35.636  0.00  0.00    +0.059 A 
ATOM      2  C   UNL A   1      -8.722  -0.766  36.334  0.00  0.00    +0.011 A 
ATOM      3  C   UNL A   1      -9.970  -0.361  36.776  0.00  0.00    -0.002 A 
ATOM      4  C   UNL A   1     -10.426   0.920  36.345  0.00  0.00    -0.008 A 
ATOM      5  C   UNL A   1      -9.644   1.557  35.449  0.00  0.00    +0.051 A 
ATOM      6  C   UNL A   1      -8.494   1.034  35.020  0.00  0.00    +0.026 A 
ATOM      7  N   UNL A   1     -10.136   2.778  35.004  0.00  0.00    -0.253 N 
ATOM      8  C   UNL A   1     -10.750   3.633  35.770  0.00  0.00    +0.099 C 
ATOM      9  C   UNL A   1     -11.669   3.041  36.681  0.00  0.00    +0.027 C 
ATOM     10  C   UNL A   1     -11.298   1.713  37.252  0.00  0.00    +0.029 C 
ATOM     11  C   UNL A   1      -9.508   3.382  33.799  0.00  0.00    +0.299 C 
ATOM     12  O   UNL A   1      -9.208   2.709  32.931  0.00  0.00    -0.266 OA
ATOM     13 CL   UNL A   1      -6.534  -0.813  34.879  0.00  0.00    -0.082 Cl
ENDROOT
BRANCH   3  14
ATOM     14  C   UNL A   1     -10.675  -1.038  37.891  0.00  0.00    +0.001 A 
ATOM     15  C   UNL A   1     -10.230  -0.778  39.146  0.00  0.00    +0.011 A 
ATOM     16  C   UNL A   1     -10.651  -1.736  40.150  0.00  0.00    +0.058 A 
ATOM     17  C   UNL A   1     -11.873  -2.380  39.889  0.00  0.00    +0.011 A 
ATOM     18  C   UNL A   1     -11.704  -1.984  37.865  0.00  0.00    +0.000 A 
ATOM     19  C   UNL A   1     -12.285  -2.689  38.716  0.00  0.00    +0.001 A 
ATOM     20 CL   UNL A   1      -9.780  -1.991  41.608  0.00  0.00    -0.082 Cl
ENDBRANCH   3  14
BRANCH  11  21
ATOM     21  C   UNL A   1      -9.166   4.804  33.876  0.00  0.00    +0.328 C 
ATOM     22  O   UNL A   1      -9.998   5.542  33.261  0.00  0.00    -0.275 OA
BRANCH  21  23
ATOM     23  C   UNL A   1      -8.115   5.146  34.496  0.00  0.00    +0.431 C 
ATOM     24  O   UNL A   1      -7.929   6.346  34.857  0.00  0.00    -0.237 OA
ATOM     25  O   UNL A   1      -7.154   4.365  34.925  0.00  0.00    -0.237 OA
ENDBRANCH  21  23
ENDBRANCH  11  21
TORSDOF 3
ENDMDL
ENDMDL
