MODEL 2795
MODEL 1
REMARK VINA RESULT:    -6.504      0.000      0.000
REMARK INTER + INTRA:          -6.958
REMARK INTER:                  -6.884
REMARK INTRA:                  -0.073
REMARK UNBOUND:                -0.073
REMARK  Name = No_2795-gen_results/8p0m/2024-11-27-11-27-31/
REMARK  1 active torsions:
REMARK  status: ('A' for Active; 'I' for Inactive)
REMARK    1  A    between atoms: C_5  and  C_6
REMARK                            x       y       z     vdW  Elec       q    Type
REMARK                         _______ _______ _______ _____ _____    ______ ____
ROOT
ATOM      1  C   UNL A   1     -30.569  -9.788  29.693  0.00  0.00    +0.000 A 
ATOM      2  C   UNL A   1     -29.848 -10.334  30.496  0.00  0.00    +0.000 A 
ATOM      3  C   UNL A   1     -28.953 -11.253  30.272  0.00  0.00    +0.000 A 
ATOM      4  C   UNL A   1     -28.082 -11.896  31.286  0.00  0.00    +0.007 A 
ATOM      5  C   UNL A   1     -28.212 -11.422  32.622  0.00  0.00    +0.080 A 
ATOM      6  C   UNL A   1     -29.848  -9.869  31.955  0.00  0.00    +0.000 A 
ATOM      7  C   UNL A   1     -29.054 -10.398  32.957  0.00  0.00    +0.007 A 
ATOM      8  C   UNL A   1     -30.776 -10.411  28.399  0.00  0.00    +0.000 A 
ATOM      9  C   UNL A   1     -29.925 -11.478  28.108  0.00  0.00    +0.000 A 
ATOM     10  C   UNL A   1     -28.975 -11.927  29.018  0.00  0.00    +0.000 A 
ENDROOT
BRANCH   5  11
ATOM     11  C   UNL A   1     -27.367 -11.960  33.626  0.00  0.00    +0.388 C 
ATOM     12  O   UNL A   1     -26.706 -12.828  33.679  0.00  0.00    -0.241 OA
ATOM     13  O   UNL A   1     -27.151 -10.997  34.658  0.00  0.00    -0.241 OA
ENDBRANCH   5  11
TORSDOF 1
ENDMDL
ENDMDL
