MODEL 2796
MODEL 1
REMARK VINA RESULT:    -3.793      0.000      0.000
REMARK INTER + INTRA:          -4.378
REMARK INTER:                  -4.237
REMARK INTRA:                  -0.141
REMARK UNBOUND:                -0.141
REMARK  Name = No_2796-gen_results/8p0m/2024-11-27-11-27-31/
REMARK  2 active torsions:
REMARK  status: ('A' for Active; 'I' for Inactive)
REMARK    1  A    between atoms: C_3  and  C_4
REMARK    2  A    between atoms: C_5  and  C_6
REMARK                            x       y       z     vdW  Elec       q    Type
REMARK                         _______ _______ _______ _____ _____    ______ ____
ROOT
ATOM      1  C   UNL A   1     -23.472  -2.119  28.958  0.00  0.00    +0.001 C 
ATOM      2  C   UNL A   1     -23.287  -1.118  29.960  0.00  0.00    +0.000 C 
ENDROOT
BRANCH   1   5
ATOM      3 CL   UNL A   1     -24.862  -5.578  28.923  0.00  0.00    -0.081 Cl
ATOM      4  C   UNL A   1     -24.201  -4.325  28.651  0.00  0.00    +0.068 C 
ATOM      5  C   UNL A   1     -24.186  -3.346  29.306  0.00  0.00    +0.012 C 
ENDBRANCH   1   5
BRANCH   2   6
ATOM      6  C   UNL A   1     -23.839  -1.382  31.171  0.00  0.00    +0.000 C 
ATOM      7  C   UNL A   1     -23.174  -1.178  32.319  0.00  0.00    +0.000 C 
ENDBRANCH   2   6
TORSDOF 2
ENDMDL
ENDMDL
