MODEL 2797
MODEL 1
REMARK VINA RESULT:    -8.369      0.000      0.000
REMARK INTER + INTRA:         -14.105
REMARK INTER:                 -11.793
REMARK INTRA:                  -2.312
REMARK UNBOUND:                -2.312
REMARK  Name = No_2797-gen_results/8p0m/2024-11-27-11-27-31/
REMARK  7 active torsions:
REMARK  status: ('A' for Active; 'I' for Inactive)
REMARK    1  A    between atoms: C_2  and  C_20
REMARK    2  A    between atoms: C_3  and  C_7
REMARK    3  A    between atoms: C_8  and  C_16
REMARK    4  A    between atoms: C_11  and  C_13
REMARK    5  A    between atoms: C_16  and  O_18
REMARK    6  A    between atoms: O_18  and  C_23
REMARK    7  A    between atoms: C_23  and  C_24
REMARK                            x       y       z     vdW  Elec       q    Type
REMARK                         _______ _______ _______ _____ _____    ______ ____
ROOT
ATOM      1  C   UNL A   1     -24.082   0.257  27.494  0.00  0.00    +0.015 A 
ATOM      2  C   UNL A   1     -23.011   0.703  28.027  0.00  0.00    +0.077 A 
ATOM      3  C   UNL A   1     -22.340   1.819  27.340  0.00  0.00    +0.006 A 
ATOM      4  C   UNL A   1     -22.780   2.158  26.025  0.00  0.00    +0.001 A 
ATOM      5  C   UNL A   1     -24.559   0.717  26.250  0.00  0.00    +0.042 A 
ATOM      6  C   UNL A   1     -23.899   1.598  25.560  0.00  0.00    +0.008 A 
ENDROOT
BRANCH   1   9
ATOM      7  C   UNL A   1     -24.405  -2.195  28.223  0.00  0.00    +0.007 A 
ATOM      8  C   UNL A   1     -25.013  -2.828  28.806  0.00  0.00    +0.080 A 
ATOM      9  C   UNL A   1     -24.840  -0.798  28.228  0.00  0.00    +0.012 A 
ATOM     10  C   UNL A   1     -25.929  -0.375  28.949  0.00  0.00    +0.058 A 
ATOM     11  C   UNL A   1     -26.192  -2.665  29.656  0.00  0.00    +0.007 A 
ATOM     12  C   UNL A   1     -26.621  -1.316  29.668  0.00  0.00    +0.012 A 
ATOM     13 CL   UNL A   1     -26.518   1.212  29.001  0.00  0.00    -0.082 Cl
BRANCH   8  14
ATOM     14  C   UNL A   1     -24.627  -4.413  28.887  0.00  0.00    +0.388 C 
ATOM     15  O   UNL A   1     -23.601  -4.786  28.541  0.00  0.00    -0.241 OA
ATOM     16  O   UNL A   1     -25.489  -5.205  29.487  0.00  0.00    -0.241 OA
ENDBRANCH   8  14
ENDBRANCH   1   9
BRANCH   5  17
ATOM     17  C   UNL A   1     -25.802   0.092  25.665  0.00  0.00    -0.064 C 
ATOM     18  C   UNL A   1     -26.738   0.111  25.187  0.00  0.00    -0.085 C 
ATOM     19  C   UNL A   1     -27.865   0.045  24.396  0.00  0.00    +0.090 C 
ENDBRANCH   5  17
BRANCH   2  20
ATOM     20  C   UNL A   1     -22.444   0.385  29.368  0.00  0.00    +0.348 C 
ATOM     21  O   UNL A   1     -21.587  -0.390  29.416  0.00  0.00    -0.244 OA
BRANCH  20  22
ATOM     22  O   UNL A   1     -23.078   0.829  30.398  0.00  0.00    -0.386 OA
BRANCH  22  23
ATOM     23  C   UNL A   1     -23.477  -0.088  31.406  0.00  0.00    +0.348 C 
ATOM     24  O   UNL A   1     -23.001  -1.153  31.498  0.00  0.00    -0.244 OA
BRANCH  23  25
ATOM     25  C   UNL A   1     -24.507   0.421  32.170  0.00  0.00    +0.076 A 
ATOM     26  C   UNL A   1     -25.048  -0.358  33.036  0.00  0.00    +0.006 A 
ATOM     27  C   UNL A   1     -26.098   0.168  33.958  0.00  0.00    +0.000 A 
ATOM     28  C   UNL A   1     -26.495   1.543  33.902  0.00  0.00    +0.000 A 
ATOM     29  C   UNL A   1     -25.825   2.348  32.985  0.00  0.00    +0.000 A 
ATOM     30  C   UNL A   1     -24.900   1.851  32.134  0.00  0.00    +0.006 A 
ENDBRANCH  23  25
ENDBRANCH  22  23
ENDBRANCH  20  22
ENDBRANCH   2  20
TORSDOF 7
ENDMDL
ENDMDL
