REMARK  Name = outputs/IAG933/test6/raw/output_2797_IAG933_linker_design_.xyz
REMARK  12 active torsions:
REMARK  status: ('A' for Active; 'I' for Inactive)
REMARK    1  A    between atoms: C_1  and  C_2
REMARK    2  A    between atoms: C_1  and  C_8
REMARK    3  A    between atoms: C_1  and  C_41
REMARK    4  A    between atoms: C_13  and  N_40
REMARK    5  A    between atoms: C_14  and  C_15
REMARK    6  A    between atoms: C_21  and  O_22
REMARK    7  A    between atoms: O_22  and  C_23
REMARK    8  A    between atoms: C_23  and  C_24
REMARK    9  A    between atoms: C_29  and  C_31
REMARK   10  A    between atoms: C_31  and  C_36
REMARK   11  A    between atoms: N_32  and  C_39
REMARK   12  A    between atoms: C_35  and  N_40
REMARK                            x       y       z     vdW  Elec       q    Type
REMARK                         _______ _______ _______ _____ _____    ______ ____
ROOT
ATOM      1  C   UNL A   1     -21.428   0.836  27.765  0.00  0.00    +0.263 C 
ATOM      2  N   UNL A   1     -20.543   0.119  28.422  0.00  0.00    -0.105 NA
ATOM      3  O   UNL A   1     -20.945   1.337  26.519  0.00  0.00    -0.431 OA
ATOM      4  C   UNL A   1     -23.591   1.365  26.975  0.00  0.00    +0.092 C 
ATOM      5  C   UNL A   1     -21.812   1.881  25.593  0.00  0.00    +0.183 C 
ATOM      6  C   UNL A   1     -23.085   1.898  25.784  0.00  0.00    +0.059 C 
ATOM      7  C   UNL A   1     -22.750   1.012  27.986  0.00  0.00    +0.119 C 
ENDROOT
BRANCH   7   9
ATOM      8  C   UNL A   1     -24.404   1.433  29.691  0.00  0.00    +0.094 C 
ATOM      9  N   UNL A   1     -23.405   0.623  29.163  0.00  0.00    -0.302 N 
ATOM     10  C   UNL A   1     -24.512   0.010  29.035  0.00  0.00    +0.096 C 
BRANCH  10  11
ATOM     11  C   UNL A   1     -24.855  -1.012  30.143  0.00  0.00    +0.058 C 
BRANCH  11  12
ATOM     12  C   UNL A   1     -24.973  -2.505  29.788  0.00  0.00    -0.019 C 
ATOM     13  C   UNL A   1     -23.906  -3.173  29.146  0.00  0.00    -0.004 C 
ATOM     14  C   UNL A   1     -23.989  -4.549  28.853  0.00  0.00    -0.000 C 
ATOM     15  C   UNL A   1     -25.137  -5.280  29.205  0.00  0.00    -0.000 C 
ATOM     16  C   UNL A   1     -26.232  -4.611  29.784  0.00  0.00    -0.000 C 
ATOM     17  C   UNL A   1     -26.155  -3.232  30.065  0.00  0.00    -0.004 C 
ENDBRANCH  11  12
BRANCH  11  18
ATOM     18  C   UNL A   1     -25.387  -0.679  31.571  0.00  0.00    +0.079 C 
ATOM     19  C   UNL A   1     -25.189   0.773  32.028  0.00  0.00    +0.019 C 
ATOM     20  C   UNL A   1     -25.336   0.684  33.544  0.00  0.00    +0.020 C 
ATOM     21  C   UNL A   1     -24.829  -0.715  33.905  0.00  0.00    +0.089 C 
ATOM     22  N   UNL A   1     -24.758  -1.481  32.646  0.00  0.00    -0.219 NA
ENDBRANCH  11  18
ENDBRANCH  10  11
BRANCH   8  23
ATOM     23  C   UNL A   1     -23.885   2.618  30.752  0.00  0.00    +0.057 C 
BRANCH  23  25
ATOM     24  O   UNL A   1     -24.380   4.386  32.391  0.00  0.00    -0.220 OA
ATOM     25  C   UNL A   1     -24.940   3.717  31.243  0.00  0.00    +0.184 C 
ENDBRANCH  23  25
ENDBRANCH   8  23
ENDBRANCH   7   9
BRANCH   4  26
ATOM     26  N   UNL A   1     -24.642   1.379  27.155  0.00  0.00    -0.208 NA
BRANCH  26  27
ATOM     27  C   UNL A   1     -25.688   1.614  26.461  0.00  0.00    +0.108 C 
ATOM     28  C   UNL A   1     -26.250   2.920  26.395  0.00  0.00    +0.092 C 
ATOM     29  C   UNL A   1     -27.438   3.091  25.645  0.00  0.00    +0.108 C 
ATOM     30  N   UNL A   1     -28.075   2.089  25.003  0.00  0.00    -0.208 NA
ATOM     31  C   UNL A   1     -27.543   0.849  25.079  0.00  0.00    +0.255 C 
ATOM     32  C   UNL A   1     -26.354   0.576  25.777  0.00  0.00    +0.208 C 
ATOM     33  F   UNL A   1     -25.860  -0.681  25.795  0.00  0.00    -0.198 F 
BRANCH  28  34
ATOM     34  C   UNL A   1     -25.642   4.093  27.123  0.00  0.00    +0.268 C 
ATOM     35  N   UNL A   1     -25.614   5.252  26.449  0.00  0.00    -0.200 NA
ATOM     36  C   UNL A   1     -25.026   6.479  26.963  0.00  0.00    +0.139 C 
ATOM     37  O   UNL A   1     -25.143   3.966  28.243  0.00  0.00    -0.268 OA
ENDBRANCH  28  34
BRANCH  31  38
ATOM     38  O   UNL A   1     -28.193  -0.208  24.477  0.00  0.00    -0.456 OA
BRANCH  38  39
ATOM     39  C   UNL A   1     -29.460   0.005  23.866  0.00  0.00    +0.243 C 
BRANCH  39  40
ATOM     40  C   UNL A   1     -30.065  -1.377  23.573  0.00  0.00    +0.229 C 
ATOM     41  O   UNL A   1     -30.729  -1.878  24.721  0.00  0.00    -0.216 OA
ENDBRANCH  39  40
ENDBRANCH  38  39
ENDBRANCH  31  38
ENDBRANCH  26  27
ENDBRANCH   4  26
TORSDOF 12
