MODEL 2799
MODEL 1
REMARK VINA RESULT:    -6.851      0.000      0.000
REMARK INTER + INTRA:          -9.441
REMARK INTER:                  -8.854
REMARK INTRA:                  -0.587
REMARK UNBOUND:                -0.587
REMARK  Name = No_2799-gen_results/8p0m/2024-11-27-11-27-31/
REMARK  5 active torsions:
REMARK  status: ('A' for Active; 'I' for Inactive)
REMARK    1  A    between atoms: C_1  and  O_16
REMARK    2  A    between atoms: O_16  and  C_17
REMARK    3  A    between atoms: C_18  and  C_19
REMARK    4  A    between atoms: C_20  and  C_21
REMARK    5  A    between atoms: C_22  and  C_23
REMARK                            x       y       z     vdW  Elec       q    Type
REMARK                         _______ _______ _______ _____ _____    ______ ____
ROOT
ATOM      1  C   UNL A   1     -24.512   2.608  26.656  0.00  0.00    +0.145 A 
ATOM      2  C   UNL A   1     -24.694   1.974  27.670  0.00  0.00    +0.037 A 
ATOM      3  C   UNL A   1     -23.656   1.274  28.274  0.00  0.00    +0.003 A 
ATOM      4  C   UNL A   1     -22.341   1.244  27.686  0.00  0.00    +0.000 A 
ATOM      5  C   UNL A   1     -21.269   0.582  28.201  0.00  0.00    +0.000 A 
ATOM      6  C   UNL A   1     -23.279   2.600  25.916  0.00  0.00    +0.037 A 
ATOM      7  C   UNL A   1     -22.205   1.939  26.427  0.00  0.00    +0.003 A 
ATOM      8  C   UNL A   1     -21.550  -0.353  29.346  0.00  0.00    +0.000 A 
ATOM      9  C   UNL A   1     -22.731  -0.160  30.143  0.00  0.00    +0.000 A 
ATOM     10  C   UNL A   1     -23.617   0.613  29.805  0.00  0.00    +0.002 A 
ATOM     11  C   UNL A   1     -24.902   0.687  30.492  0.00  0.00    +0.030 A 
ATOM     12  C   UNL A   1     -24.905   0.386  31.800  0.00  0.00    +0.140 A 
ATOM     13  C   UNL A   1     -23.858  -0.514  32.293  0.00  0.00    +0.030 A 
ATOM     14  C   UNL A   1     -22.750  -0.808  31.480  0.00  0.00    +0.002 A 
ATOM     15  F   UNL A   1     -25.957   0.436  32.566  0.00  0.00    -0.204 F 
ENDROOT
BRANCH   1  16
ATOM     16  O   UNL A   1     -25.660   3.178  26.179  0.00  0.00    -0.450 OA
BRANCH  16  17
ATOM     17  C   UNL A   1     -26.581   2.526  25.564  0.00  0.00    +0.179 C 
ATOM     18  C   UNL A   1     -27.592   2.972  25.203  0.00  0.00    +0.041 C 
BRANCH  18  19
ATOM     19  C   UNL A   1     -28.488   2.855  24.696  0.00  0.00    +0.003 C 
ATOM     20  C   UNL A   1     -28.993   2.199  23.425  0.00  0.00    +0.000 C 
BRANCH  20  21
ATOM     21  C   UNL A   1     -30.298   2.102  22.888  0.00  0.00    +0.000 C 
ATOM     22  C   UNL A   1     -31.140   1.001  23.117  0.00  0.00    +0.000 C 
BRANCH  22  23
ATOM     23  C   UNL A   1     -30.590  -0.049  23.897  0.00  0.00    +0.000 C 
ATOM     24  C   UNL A   1     -30.627  -1.352  23.551  0.00  0.00    +0.000 C 
ENDBRANCH  22  23
ENDBRANCH  20  21
ENDBRANCH  18  19
ENDBRANCH  16  17
ENDBRANCH   1  16
TORSDOF 5
ENDMDL
ENDMDL
