MODEL 279
MODEL 1
REMARK VINA RESULT:    -5.250      0.000      0.000
REMARK INTER + INTRA:          -5.714
REMARK INTER:                  -5.557
REMARK INTRA:                  -0.158
REMARK UNBOUND:                -0.158
REMARK  Name = No_279-gen_results/8p0m/2024-11-27-11-27-31/
REMARK  1 active torsions:
REMARK  status: ('A' for Active; 'I' for Inactive)
REMARK    1  A    between atoms: C_4  and  C_6
REMARK                            x       y       z     vdW  Elec       q    Type
REMARK                         _______ _______ _______ _____ _____    ______ ____
ROOT
ATOM      1  C   UNL A   1     -26.702  -4.030  29.877  0.00  0.00    -0.000 A 
ATOM      2  C   UNL A   1     -26.154  -4.899  29.645  0.00  0.00    -0.000 A 
ATOM      3  C   UNL A   1     -25.967  -2.724  29.672  0.00  0.00    -0.000 A 
ATOM      4  C   UNL A   1     -24.692  -2.736  29.068  0.00  0.00    -0.000 A 
ATOM      5  C   UNL A   1     -24.858  -5.182  28.987  0.00  0.00    -0.000 A 
ATOM      6  C   UNL A   1     -24.149  -3.979  28.751  0.00  0.00    -0.000 A 
ENDROOT
BRANCH   4   7
ATOM      7  C   UNL A   1     -23.952  -1.554  28.836  0.00  0.00    -0.005 C 
ATOM      8  C   UNL A   1     -22.755  -1.378  29.241  0.00  0.00    -0.026 C 
ATOM      9  C   UNL A   1     -21.932  -0.217  28.855  0.00  0.00    +0.031 C 
ENDBRANCH   4   7
TORSDOF 1
ENDMDL
ENDMDL
