MODEL 27
MODEL 1
REMARK VINA RESULT:    -7.687      0.000      0.000
REMARK INTER + INTRA:         -10.001
REMARK INTER:                  -9.035
REMARK INTRA:                  -0.965
REMARK UNBOUND:                -0.965
REMARK  Name = No_27-gen_results/8p0m/2024-11-27-11-27-31/
REMARK  3 active torsions:
REMARK  status: ('A' for Active; 'I' for Inactive)
REMARK    1  A    between atoms: C_2  and  C_3
REMARK    2  A    between atoms: C_5  and  C_16
REMARK    3  A    between atoms: C_6  and  C_13
REMARK                            x       y       z     vdW  Elec       q    Type
REMARK                         _______ _______ _______ _____ _____    ______ ____
ROOT
ATOM      1  C   UNL A   1      -8.360   0.157  35.446  0.00  0.00    +0.000 A 
ATOM      2  C   UNL A   1      -9.103  -0.527  36.449  0.00  0.00    +0.000 A 
ATOM      3  C   UNL A   1     -10.379  -0.224  36.729  0.00  0.00    +0.000 A 
ATOM      4  C   UNL A   1     -11.073   0.753  35.984  0.00  0.00    +0.000 A 
ATOM      5  C   UNL A   1     -10.443   1.408  34.954  0.00  0.00    +0.000 A 
ATOM      6  C   UNL A   1      -9.148   1.116  34.664  0.00  0.00    +0.000 A 
ENDROOT
BRANCH   1   8
ATOM      7  C   UNL A   1      -6.094   0.141  35.736  0.00  0.00    +0.007 A 
ATOM      8  C   UNL A   1      -7.079  -0.282  35.177  0.00  0.00    +0.000 A 
ATOM      9  C   UNL A   1      -4.775  -0.388  35.303  0.00  0.00    +0.080 A 
ATOM     10  C   UNL A   1      -4.745  -1.594  34.652  0.00  0.00    +0.007 A 
ATOM     11  C   UNL A   1      -5.854  -2.240  34.181  0.00  0.00    +0.000 A 
ATOM     12  C   UNL A   1      -7.087  -1.593  34.425  0.00  0.00    +0.000 A 
BRANCH   9  13
ATOM     13  C   UNL A   1      -3.504   0.183  35.827  0.00  0.00    +0.388 C 
ATOM     14  O   UNL A   1      -3.001   1.022  35.424  0.00  0.00    -0.241 OA
ATOM     15  O   UNL A   1      -3.190  -0.372  37.092  0.00  0.00    -0.241 OA
ENDBRANCH   9  13
ENDBRANCH   1   8
BRANCH   3  16
ATOM     16  C   UNL A   1     -11.121  -0.862  37.821  0.00  0.00    +0.000 A 
ATOM     17  C   UNL A   1     -11.222  -0.044  38.984  0.00  0.00    +0.000 A 
ATOM     18  C   UNL A   1     -11.858  -0.562  40.080  0.00  0.00    +0.000 A 
ATOM     19  C   UNL A   1     -12.268  -1.904  40.037  0.00  0.00    +0.000 A 
ATOM     20  C   UNL A   1     -12.162  -2.655  38.906  0.00  0.00    +0.000 A 
ATOM     21  C   UNL A   1     -11.557  -2.134  37.768  0.00  0.00    +0.000 A 
ENDBRANCH   3  16
TORSDOF 3
ENDMDL
ENDMDL
