REMARK  Name = outputs/IAG933/test6/raw/output_2801_IAG933_linker_design_.xyz
REMARK  14 active torsions:
REMARK  status: ('A' for Active; 'I' for Inactive)
REMARK    1  A    between atoms: C_1  and  C_2
REMARK    2  A    between atoms: C_1  and  C_8
REMARK    3  A    between atoms: C_1  and  C_36
REMARK    4  A    between atoms: C_13  and  C_38
REMARK    5  A    between atoms: C_14  and  C_15
REMARK    6  A    between atoms: C_15  and  O_18
REMARK    7  A    between atoms: O_18  and  C_29
REMARK    8  A    between atoms: C_21  and  O_22
REMARK    9  A    between atoms: O_22  and  C_23
REMARK   10  A    between atoms: C_23  and  C_24
REMARK   11  A    between atoms: C_29  and  C_43
REMARK   12  A    between atoms: C_29  and  C_45
REMARK   13  A    between atoms: C_36  and  N_40
REMARK   14  A    between atoms: N_40  and  C_43
REMARK                            x       y       z     vdW  Elec       q    Type
REMARK                         _______ _______ _______ _____ _____    ______ ____
ROOT
ATOM      1  O   UNL A   1     -24.747   3.683  30.612  0.00  0.00    -0.175 OA
ATOM      2  C   UNL A   1     -25.654   3.513  29.491  0.00  0.00    +0.294 C 
ENDROOT
BRANCH   2   8
ATOM      3  C   UNL A   1     -29.611   4.662  30.343  0.00  0.00    -0.000 C 
ATOM      4  C   UNL A   1     -28.127   3.038  29.397  0.00  0.00    +0.002 C 
ATOM      5  C   UNL A   1     -29.434   3.501  29.594  0.00  0.00    -0.000 C 
ATOM      6  C   UNL A   1     -27.226   4.847  30.689  0.00  0.00    +0.002 C 
ATOM      7  C   UNL A   1     -28.506   5.315  30.899  0.00  0.00    -0.000 C 
ATOM      8  C   UNL A   1     -27.030   3.768  29.893  0.00  0.00    +0.044 C 
ENDBRANCH   2   8
BRANCH   2   9
ATOM      9  O   UNL A   1     -25.143   3.966  28.243  0.00  0.00    -0.435 OA
BRANCH   9  10
ATOM     10  C   UNL A   1     -25.642   4.093  27.123  0.00  0.00    +0.224 C 
ATOM     11  N   UNL A   1     -25.614   5.252  26.449  0.00  0.00    -0.236 NA
ATOM     12  C   UNL A   1     -25.026   6.479  26.963  0.00  0.00    +0.155 C 
BRANCH  10  14
ATOM     13  C   UNL A   1     -25.688   1.614  26.461  0.00  0.00    +0.038 C 
ATOM     14  C   UNL A   1     -26.250   2.920  26.395  0.00  0.00    +0.074 C 
ATOM     15  C   UNL A   1     -27.438   3.091  25.645  0.00  0.00    +0.107 C 
ATOM     16  N   UNL A   1     -28.075   2.089  25.003  0.00  0.00    -0.208 NA
ATOM     17  C   UNL A   1     -27.543   0.849  25.079  0.00  0.00    +0.253 C 
ATOM     18  C   UNL A   1     -26.354   0.576  25.777  0.00  0.00    +0.193 C 
ATOM     19  F   UNL A   1     -25.860  -0.681  25.795  0.00  0.00    -0.199 F 
BRANCH  13  23
ATOM     20  C   UNL A   1     -21.192   1.712  27.059  0.00  0.00    -0.021 C 
ATOM     21  C   UNL A   1     -21.411   0.846  28.125  0.00  0.00    +0.052 C 
ATOM     22  C   UNL A   1     -23.396   1.789  26.125  0.00  0.00    -0.000 C 
ATOM     23  C   UNL A   1     -24.367   1.473  26.956  0.00  0.00    +0.002 C 
ATOM     24  C   UNL A   1     -22.126   2.211  26.119  0.00  0.00    -0.004 C 
ATOM     25  C   UNL A   1     -23.826   0.799  27.840  0.00  0.00    -0.004 C 
ATOM     26  C   UNL A   1     -22.655   0.407  28.460  0.00  0.00    -0.021 C 
ENDBRANCH  13  23
BRANCH  17  27
ATOM     27  O   UNL A   1     -28.193  -0.208  24.477  0.00  0.00    -0.456 OA
BRANCH  27  28
ATOM     28  C   UNL A   1     -29.460   0.005  23.866  0.00  0.00    +0.243 C 
BRANCH  28  29
ATOM     29  C   UNL A   1     -30.065  -1.377  23.573  0.00  0.00    +0.229 C 
ATOM     30  O   UNL A   1     -30.729  -1.878  24.721  0.00  0.00    -0.216 OA
ENDBRANCH  28  29
ENDBRANCH  27  28
ENDBRANCH  17  27
ENDBRANCH  10  14
ENDBRANCH   9  10
ENDBRANCH   2   9
BRANCH   2  31
ATOM     31  C   UNL A   1     -25.695   1.961  29.145  0.00  0.00    +0.166 C 
BRANCH  31  32
ATOM     32  N   UNL A   1     -25.836   0.870  28.948  0.00  0.00    -0.211 NA
BRANCH  32  33
ATOM     33  C   UNL A   1     -25.909  -0.469  29.190  0.00  0.00    +0.095 C 
BRANCH  33  34
ATOM     34  C   UNL A   1     -24.855  -1.012  30.143  0.00  0.00    +0.056 C 
BRANCH  34  35
ATOM     35  C   UNL A   1     -24.973  -2.505  29.788  0.00  0.00    -0.020 C 
ATOM     36  C   UNL A   1     -23.906  -3.173  29.146  0.00  0.00    -0.004 C 
ATOM     37  C   UNL A   1     -23.989  -4.549  28.853  0.00  0.00    -0.000 C 
ATOM     38  C   UNL A   1     -25.137  -5.280  29.205  0.00  0.00    -0.000 C 
ATOM     39  C   UNL A   1     -26.232  -4.611  29.784  0.00  0.00    -0.000 C 
ATOM     40  C   UNL A   1     -26.155  -3.232  30.065  0.00  0.00    -0.004 C 
ENDBRANCH  34  35
BRANCH  34  41
ATOM     41  C   UNL A   1     -25.387  -0.679  31.571  0.00  0.00    +0.078 C 
ATOM     42  C   UNL A   1     -25.189   0.773  32.028  0.00  0.00    +0.019 C 
ATOM     43  C   UNL A   1     -25.336   0.684  33.544  0.00  0.00    +0.020 C 
ATOM     44  C   UNL A   1     -24.829  -0.715  33.905  0.00  0.00    +0.089 C 
ATOM     45  N   UNL A   1     -24.758  -1.481  32.646  0.00  0.00    -0.219 NA
ENDBRANCH  34  41
ENDBRANCH  33  34
ENDBRANCH  32  33
ENDBRANCH  31  32
ENDBRANCH   2  31
TORSDOF 14
