MODEL 2802
MODEL 1
REMARK VINA RESULT:    -8.828      0.000      0.000
REMARK INTER + INTRA:         -13.254
REMARK INTER:                 -11.408
REMARK INTRA:                  -1.846
REMARK UNBOUND:                -1.846
REMARK  Name = No_2802-gen_results/8p0m/2024-11-27-11-27-31/
REMARK  5 active torsions:
REMARK  status: ('A' for Active; 'I' for Inactive)
REMARK    1  A    between atoms: C_2  and  C_5
REMARK    2  A    between atoms: C_3  and  C_11
REMARK    3  A    between atoms: C_11  and  C_12
REMARK    4  A    between atoms: C_11  and  C_14
REMARK    5  A    between atoms: C_14  and  C_15
REMARK                            x       y       z     vdW  Elec       q    Type
REMARK                         _______ _______ _______ _____ _____    ______ ____
ROOT
ATOM      1  C   UNL A   1     -24.712  -1.088  29.459  0.00  0.00    +0.049 C 
ENDROOT
BRANCH   1   4
ATOM      2  C   UNL A   1     -24.099   0.400  27.451  0.00  0.00    -0.000 A 
ATOM      3  C   UNL A   1     -23.385   1.045  27.020  0.00  0.00    +0.071 A 
ATOM      4  C   UNL A   1     -23.652  -0.210  28.710  0.00  0.00    -0.018 A 
ATOM      5  C   UNL A   1     -22.399  -0.098  29.154  0.00  0.00    -0.004 A 
ATOM      6  C   UNL A   1     -21.559   0.718  28.461  0.00  0.00    -0.000 A 
ATOM      7  C   UNL A   1     -22.035   1.319  27.349  0.00  0.00    +0.004 A 
BRANCH   3   8
ATOM      8  C   UNL A   1     -23.747   1.808  25.672  0.00  0.00    +0.419 C 
ATOM      9  F   UNL A   1     -24.621   2.499  25.847  0.00  0.00    -0.166 F 
ATOM     10  F   UNL A   1     -22.689   2.489  25.143  0.00  0.00    -0.166 F 
ATOM     11  F   UNL A   1     -24.168   0.852  24.757  0.00  0.00    -0.166 F 
ENDBRANCH   3   8
ENDBRANCH   1   4
BRANCH   1  12
ATOM     12  C   UNL A   1     -24.900  -2.433  29.049  0.00  0.00    -0.018 A 
ATOM     13  C   UNL A   1     -23.867  -3.294  28.838  0.00  0.00    -0.004 A 
ATOM     14  C   UNL A   1     -24.109  -4.627  28.520  0.00  0.00    -0.000 A 
ATOM     15  C   UNL A   1     -25.091  -5.265  29.277  0.00  0.00    -0.000 A 
ATOM     16  C   UNL A   1     -26.225  -4.445  29.646  0.00  0.00    -0.000 A 
ATOM     17  C   UNL A   1     -26.137  -3.110  29.646  0.00  0.00    -0.004 A 
ENDBRANCH   1  12
BRANCH   1  18
ATOM     18  C   UNL A   1     -25.454  -0.626  30.487  0.00  0.00    +0.035 C 
BRANCH  18  19
ATOM     19  C   UNL A   1     -24.953  -0.611  31.820  0.00  0.00    -0.021 A 
ATOM     20  C   UNL A   1     -25.815  -0.181  32.789  0.00  0.00    -0.004 A 
ATOM     21  C   UNL A   1     -25.419  -0.332  34.135  0.00  0.00    -0.000 A 
ATOM     22  C   UNL A   1     -24.270  -0.993  34.506  0.00  0.00    -0.000 A 
ATOM     23  C   UNL A   1     -23.428  -1.469  33.476  0.00  0.00    -0.000 A 
ATOM     24  C   UNL A   1     -23.781  -1.357  32.133  0.00  0.00    -0.004 A 
ENDBRANCH  18  19
ENDBRANCH   1  18
TORSDOF 5
ENDMDL
ENDMDL
