MODEL 2803
MODEL 1
REMARK VINA RESULT:    -5.479      0.000      0.000
REMARK INTER + INTRA:          -6.235
REMARK INTER:                  -6.120
REMARK INTRA:                  -0.115
REMARK UNBOUND:                -0.115
REMARK  Name = No_2803-gen_results/8p0m/2024-11-27-11-27-31/
REMARK  2 active torsions:
REMARK  status: ('A' for Active; 'I' for Inactive)
REMARK    1  A    between atoms: C_2  and  C_7
REMARK    2  A    between atoms: C_7  and  N_8
REMARK                            x       y       z     vdW  Elec       q    Type
REMARK                         _______ _______ _______ _____ _____    ______ ____
ROOT
ATOM      1  C   UNL A   1     -23.858  -3.442  28.589  0.00  0.00    -0.003 A 
ATOM      2  C   UNL A   1     -24.573  -2.857  29.095  0.00  0.00    -0.001 A 
ATOM      3  C   UNL A   1     -24.093  -4.895  28.566  0.00  0.00    -0.000 A 
ATOM      4  C   UNL A   1     -25.303  -5.442  29.085  0.00  0.00    -0.000 A 
ATOM      5  C   UNL A   1     -25.917  -3.161  29.656  0.00  0.00    -0.003 A 
ATOM      6  C   UNL A   1     -26.167  -4.501  29.662  0.00  0.00    -0.000 A 
ENDROOT
BRANCH   2   7
ATOM      7  C   UNL A   1     -24.364  -1.276  29.125  0.00  0.00    +0.141 C 
BRANCH   7   8
ATOM      8  N   UNL A   1     -23.191  -0.897  28.866  0.00  0.00    -0.201 NA
ATOM      9  C   UNL A   1     -22.383  -0.390  29.287  0.00  0.00    +0.242 C 
ATOM     10  O   UNL A   1     -22.465  -0.020  30.488  0.00  0.00    -0.273 OA
ATOM     11  C   UNL A   1     -21.040  -0.039  28.565  0.00  0.00    +0.096 C 
ENDBRANCH   7   8
ENDBRANCH   2   7
TORSDOF 2
ENDMDL
ENDMDL
