MODEL 2804
MODEL 1
REMARK VINA RESULT:    -6.449      0.000      0.000
REMARK INTER + INTRA:          -7.314
REMARK INTER:                  -6.826
REMARK INTRA:                  -0.489
REMARK UNBOUND:                -0.489
REMARK  Name = No_2804-gen_results/8p0m/2024-11-27-11-27-31/
REMARK  1 active torsions:
REMARK  status: ('A' for Active; 'I' for Inactive)
REMARK    1  A    between atoms: C_4  and  C_7
REMARK                            x       y       z     vdW  Elec       q    Type
REMARK                         _______ _______ _______ _____ _____    ______ ____
ROOT
ATOM      1  C   UNL A   1     -26.208  -4.506  29.693  0.00  0.00    +0.030 A 
ATOM      2  C   UNL A   1     -25.502  -5.205  29.342  0.00  0.00    +0.002 A 
ATOM      3  C   UNL A   1     -25.841  -3.085  29.579  0.00  0.00    +0.140 A 
ATOM      4  C   UNL A   1     -24.652  -2.697  28.896  0.00  0.00    +0.028 A 
ATOM      5  C   UNL A   1     -23.860  -3.719  28.438  0.00  0.00    +0.002 A 
ATOM      6  C   UNL A   1     -24.233  -5.007  28.592  0.00  0.00    +0.000 A 
ATOM      7  F   UNL A   1     -26.583  -2.119  30.086  0.00  0.00    -0.204 F 
ENDROOT
BRANCH   4   8
ATOM      8  C   UNL A   1     -24.285  -1.311  28.758  0.00  0.00    +0.002 A 
ATOM      9  C   UNL A   1     -24.607  -0.640  28.064  0.00  0.00    +0.000 A 
ATOM     10  C   UNL A   1     -23.923   0.291  27.342  0.00  0.00    +0.000 A 
ATOM     11  C   UNL A   1     -22.763   0.823  27.975  0.00  0.00    +0.000 A 
ATOM     12  C   UNL A   1     -22.299   0.108  29.108  0.00  0.00    +0.000 A 
ATOM     13  C   UNL A   1     -23.004  -1.094  29.513  0.00  0.00    +0.000 A 
ENDBRANCH   4   8
TORSDOF 1
ENDMDL
ENDMDL
