REMARK  Name = outputs/IAG933/test6/raw/output_2804_IAG933_linker_design_.xyz
REMARK  11 active torsions:
REMARK  status: ('A' for Active; 'I' for Inactive)
REMARK    1  A    between atoms: C_1  and  C_2
REMARK    2  A    between atoms: C_1  and  C_8
REMARK    3  A    between atoms: C_1  and  C_34
REMARK    4  A    between atoms: C_13  and  O_40
REMARK    5  A    between atoms: C_14  and  C_15
REMARK    6  A    between atoms: C_21  and  O_22
REMARK    7  A    between atoms: O_22  and  C_23
REMARK    8  A    between atoms: C_23  and  C_24
REMARK    9  A    between atoms: N_30  and  C_34
REMARK   10  A    between atoms: C_31  and  O_40
REMARK   11  A    between atoms: C_34  and  C_41
REMARK                            x       y       z     vdW  Elec       q    Type
REMARK                         _______ _______ _______ _____ _____    ______ ____
ROOT
ATOM      1 CL   UNL A   1     -22.765   2.806  25.378  0.00  0.00    -0.079 Cl
ATOM      2  C   UNL A   1     -23.644   1.235  27.462  0.00  0.00    +0.153 C 
ATOM      3  C   UNL A   1     -21.305   1.566  27.238  0.00  0.00    +0.015 C 
ATOM      4  C   UNL A   1     -22.317   0.163  29.035  0.00  0.00    +0.000 C 
ATOM      5  C   UNL A   1     -22.586   1.835  26.776  0.00  0.00    +0.092 C 
ATOM      6  C   UNL A   1     -23.671   0.369  28.556  0.00  0.00    +0.032 C 
ATOM      7  C   UNL A   1     -21.187   0.747  28.380  0.00  0.00    +0.001 C 
ENDROOT
BRANCH   6   8
ATOM      8  C   UNL A   1     -25.131  -0.000  29.047  0.00  0.00    +0.108 C 
BRANCH   8  10
ATOM      9  O   UNL A   1     -28.100  -0.455  27.931  0.00  0.00    -0.272 OA
ATOM     10  N   UNL A   1     -26.529   0.622  29.187  0.00  0.00    -0.249 N 
ATOM     11  C   UNL A   1     -27.780   0.231  28.843  0.00  0.00    +0.258 C 
ATOM     12  O   UNL A   1     -28.087   2.346  29.422  0.00  0.00    -0.324 OA
ATOM     13  C   UNL A   1     -26.699   2.011  29.670  0.00  0.00    +0.243 C 
ATOM     14  C   UNL A   1     -28.827   1.085  29.504  0.00  0.00    +0.229 C 
ENDBRANCH   8  10
BRANCH   8  15
ATOM     15  C   UNL A   1     -24.855  -1.012  30.143  0.00  0.00    +0.061 C 
BRANCH  15  16
ATOM     16  C   UNL A   1     -24.973  -2.505  29.788  0.00  0.00    -0.019 C 
ATOM     17  C   UNL A   1     -23.906  -3.173  29.146  0.00  0.00    -0.004 C 
ATOM     18  C   UNL A   1     -23.989  -4.549  28.853  0.00  0.00    -0.000 C 
ATOM     19  C   UNL A   1     -25.137  -5.280  29.205  0.00  0.00    -0.000 C 
ATOM     20  C   UNL A   1     -26.232  -4.611  29.784  0.00  0.00    -0.000 C 
ATOM     21  C   UNL A   1     -26.155  -3.232  30.065  0.00  0.00    -0.004 C 
ENDBRANCH  15  16
BRANCH  15  22
ATOM     22  C   UNL A   1     -25.387  -0.679  31.571  0.00  0.00    +0.079 C 
ATOM     23  C   UNL A   1     -25.189   0.773  32.028  0.00  0.00    +0.019 C 
ATOM     24  C   UNL A   1     -25.336   0.684  33.544  0.00  0.00    +0.020 C 
ATOM     25  C   UNL A   1     -24.829  -0.715  33.905  0.00  0.00    +0.089 C 
ATOM     26  N   UNL A   1     -24.758  -1.481  32.646  0.00  0.00    -0.219 NA
ENDBRANCH  15  22
ENDBRANCH   8  15
ENDBRANCH   6   8
BRANCH   2  27
ATOM     27  O   UNL A   1     -24.683   1.517  27.184  0.00  0.00    -0.450 OA
BRANCH  27  28
ATOM     28  C   UNL A   1     -25.688   1.614  26.461  0.00  0.00    +0.183 C 
ATOM     29  C   UNL A   1     -26.250   2.920  26.395  0.00  0.00    +0.111 C 
ATOM     30  C   UNL A   1     -27.438   3.091  25.645  0.00  0.00    +0.110 C 
ATOM     31  N   UNL A   1     -28.075   2.089  25.003  0.00  0.00    -0.208 NA
ATOM     32  C   UNL A   1     -27.543   0.849  25.079  0.00  0.00    +0.256 C 
ATOM     33  C   UNL A   1     -26.354   0.576  25.777  0.00  0.00    +0.227 C 
ATOM     34  F   UNL A   1     -25.860  -0.681  25.795  0.00  0.00    -0.196 F 
BRANCH  29  35
ATOM     35  C   UNL A   1     -25.642   4.093  27.123  0.00  0.00    +0.269 C 
ATOM     36  N   UNL A   1     -25.614   5.252  26.449  0.00  0.00    -0.200 NA
ATOM     37  C   UNL A   1     -25.026   6.479  26.963  0.00  0.00    +0.139 C 
ATOM     38  O   UNL A   1     -25.143   3.966  28.243  0.00  0.00    -0.268 OA
ENDBRANCH  29  35
BRANCH  32  39
ATOM     39  O   UNL A   1     -28.193  -0.208  24.477  0.00  0.00    -0.456 OA
BRANCH  39  40
ATOM     40  C   UNL A   1     -29.460   0.005  23.866  0.00  0.00    +0.243 C 
BRANCH  40  41
ATOM     41  C   UNL A   1     -30.065  -1.377  23.573  0.00  0.00    +0.229 C 
ATOM     42  O   UNL A   1     -30.729  -1.878  24.721  0.00  0.00    -0.216 OA
ENDBRANCH  40  41
ENDBRANCH  39  40
ENDBRANCH  32  39
ENDBRANCH  27  28
ENDBRANCH   2  27
TORSDOF 11
