MODEL 2805
MODEL 1
REMARK VINA RESULT:    -7.212      0.000      0.000
REMARK INTER + INTRA:          -7.970
REMARK INTER:                  -7.633
REMARK INTRA:                  -0.336
REMARK UNBOUND:                -0.336
REMARK  Name = No_2805-gen_results/8p0m/2024-11-27-11-27-31/
REMARK  1 active torsions:
REMARK  status: ('A' for Active; 'I' for Inactive)
REMARK    1  A    between atoms: C_3  and  C_4
REMARK                            x       y       z     vdW  Elec       q    Type
REMARK                         _______ _______ _______ _____ _____    ______ ____
ROOT
ATOM      1  C   UNL A   1     -23.462   0.813  27.426  0.00  0.00    +0.059 A 
ATOM      2  C   UNL A   1     -24.186  -0.102  27.743  0.00  0.00    +0.142 A 
ATOM      3  C   UNL A   1     -23.834  -1.076  28.675  0.00  0.00    +0.028 A 
ATOM      4  C   UNL A   1     -22.055   0.815  27.929  0.00  0.00    +0.142 A 
ATOM      5  C   UNL A   1     -21.637  -0.044  28.907  0.00  0.00    +0.030 A 
ATOM      6  C   UNL A   1     -22.500  -1.095  29.321  0.00  0.00    +0.004 A 
ATOM      7  F   UNL A   1     -21.240   1.806  27.587  0.00  0.00    -0.204 F 
ATOM      8  F   UNL A   1     -25.474  -0.174  27.275  0.00  0.00    -0.204 F 
ENDROOT
BRANCH   3   9
ATOM      9  C   UNL A   1     -24.647  -2.229  29.111  0.00  0.00    +0.004 A 
ATOM     10  C   UNL A   1     -25.979  -2.161  29.653  0.00  0.00    +0.000 A 
ATOM     11  C   UNL A   1     -26.668  -3.333  30.024  0.00  0.00    +0.002 A 
ATOM     12  C   UNL A   1     -26.209  -4.626  29.622  0.00  0.00    +0.030 A 
ATOM     13  C   UNL A   1     -24.233  -3.600  28.817  0.00  0.00    +0.030 A 
ATOM     14  C   UNL A   1     -24.986  -4.706  29.084  0.00  0.00    +0.140 A 
ATOM     15  F   UNL A   1     -24.484  -5.888  28.729  0.00  0.00    -0.204 F 
ENDBRANCH   3   9
TORSDOF 1
ENDMDL
ENDMDL
