MODEL 2806
MODEL 1
REMARK VINA RESULT:    -7.060      0.000      0.000
REMARK INTER + INTRA:          -5.975
REMARK INTER:                  -7.473
REMARK INTRA:                   1.498
REMARK UNBOUND:                 1.498
REMARK  Name = No_2806-gen_results/8p0m/2024-11-27-11-27-31/
REMARK  1 active torsions:
REMARK  status: ('A' for Active; 'I' for Inactive)
REMARK    1  A    between atoms: C_2  and  C_7
REMARK                            x       y       z     vdW  Elec       q    Type
REMARK                         _______ _______ _______ _____ _____    ______ ____
ROOT
ATOM      1  C   UNL A   1     -25.301  -1.501  29.925  0.00  0.00    +0.253 C 
ATOM      2  O   UNL A   1     -26.000  -1.117  30.704  0.00  0.00    -0.270 OA
ATOM      3  N   UNL A   1     -25.426  -2.770  29.364  0.00  0.00    -0.250 N 
ATOM      4  C   UNL A   1     -26.481  -3.612  29.816  0.00  0.00    +0.096 C 
ATOM      5  C   UNL A   1     -26.177  -4.863  29.751  0.00  0.00    +0.022 C 
ATOM      6  C   UNL A   1     -25.049  -5.401  29.009  0.00  0.00    +0.006 C 
ATOM      7  C   UNL A   1     -24.055  -4.470  28.590  0.00  0.00    +0.057 C 
ATOM      8  C   UNL A   1     -24.221  -3.240  28.827  0.00  0.00    +0.240 C 
ATOM      9  F   UNL A   1     -23.123  -2.626  28.561  0.00  0.00    -0.215 F 
ENDROOT
BRANCH   1  11
ATOM     10  C   UNL A   1     -23.130  -0.787  30.050  0.00  0.00    +0.144 A 
ATOM     11  C   UNL A   1     -23.974  -0.777  29.418  0.00  0.00    +0.081 A 
ATOM     12  C   UNL A   1     -21.930  -0.094  29.557  0.00  0.00    +0.030 A 
ATOM     13  C   UNL A   1     -21.974   0.665  28.351  0.00  0.00    +0.002 A 
ATOM     14  C   UNL A   1     -24.295  -0.031  28.171  0.00  0.00    +0.007 A 
ATOM     15  C   UNL A   1     -23.202   0.617  27.677  0.00  0.00    +0.000 A 
ATOM     16  F   UNL A   1     -23.095  -0.716  31.283  0.00  0.00    -0.204 F 
ENDBRANCH   1  11
TORSDOF 1
ENDMDL
ENDMDL
