MODEL 2807
MODEL 1
REMARK VINA RESULT:    -5.613      0.000      0.000
REMARK INTER + INTRA:          -6.471
REMARK INTER:                  -6.270
REMARK INTRA:                  -0.201
REMARK UNBOUND:                -0.201
REMARK  Name = No_2807-gen_results/8p0m/2024-11-27-11-27-31/
REMARK  2 active torsions:
REMARK  status: ('A' for Active; 'I' for Inactive)
REMARK    1  A    between atoms: C_1  and  C_2
REMARK    2  A    between atoms: C_5  and  C_9
REMARK                            x       y       z     vdW  Elec       q    Type
REMARK                         _______ _______ _______ _____ _____    ______ ____
ROOT
ATOM      1  C   UNL A   1     -29.741 -10.747  30.270  0.00  0.00    +0.044 A 
ATOM      2  C   UNL A   1     -29.846 -10.090  31.484  0.00  0.00    +0.001 A 
ATOM      3  C   UNL A   1     -29.041 -10.330  32.658  0.00  0.00    +0.004 A 
ATOM      4  C   UNL A   1     -28.043 -11.331  32.600  0.00  0.00    +0.057 A 
ATOM      5  C   UNL A   1     -27.885 -12.046  31.384  0.00  0.00    +0.004 A 
ATOM      6  C   UNL A   1     -28.674 -11.726  30.323  0.00  0.00    +0.001 A 
ENDROOT
BRANCH   1   7
ATOM      7  C   UNL A   1     -30.380 -10.483  29.278  0.00  0.00    +0.341 C 
ATOM      8  F   UNL A   1     -29.858 -10.654  28.242  0.00  0.00    -0.193 F 
ATOM      9  F   UNL A   1     -30.747  -9.133  29.302  0.00  0.00    -0.193 F 
ENDBRANCH   1   7
BRANCH   4  10
ATOM     10  C   UNL A   1     -27.213 -11.658  33.741  0.00  0.00    +0.284 C 
ATOM     11  N   UNL A   1     -26.952 -10.697  34.604  0.00  0.00    -0.084 NA
ATOM     12  O   UNL A   1     -26.759 -12.824  33.907  0.00  0.00    -0.267 OA
ENDBRANCH   4  10
TORSDOF 2
ENDMDL
ENDMDL
