REMARK  Name = outputs/IAG933/test6/raw/output_2807_IAG933_linker_design_.xyz
REMARK  13 active torsions:
REMARK  status: ('A' for Active; 'I' for Inactive)
REMARK    1  A    between atoms: C_1  and  C_2
REMARK    2  A    between atoms: C_1  and  C_8
REMARK    3  A    between atoms: C_1  and  C_38
REMARK    4  A    between atoms: C_13  and  N_31
REMARK    5  A    between atoms: C_14  and  C_15
REMARK    6  A    between atoms: C_21  and  O_22
REMARK    7  A    between atoms: O_22  and  C_23
REMARK    8  A    between atoms: C_23  and  C_24
REMARK    9  A    between atoms: C_30  and  C_37
REMARK   10  A    between atoms: C_30  and  C_40
REMARK   11  A    between atoms: C_33  and  C_35
REMARK   12  A    between atoms: C_35  and  C_40
REMARK   13  A    between atoms: C_38  and  C_39
REMARK                            x       y       z     vdW  Elec       q    Type
REMARK                         _______ _______ _______ _____ _____    ______ ____
ROOT
ATOM      1  C   UNL A   1     -26.403   0.060  28.521  0.00  0.00    -0.025 C 
ATOM      2  C   UNL A   1     -24.901   0.002  29.024  0.00  0.00    -0.023 C 
ENDROOT
BRANCH   2   5
ATOM      3  N   UNL A   1     -24.438   1.477  27.094  0.00  0.00    -0.301 N 
ATOM      4  C   UNL A   1     -22.614   1.207  28.834  0.00  0.00    +0.184 C 
ATOM      5  C   UNL A   1     -24.106   0.769  28.331  0.00  0.00    +0.124 C 
ATOM      6  C   UNL A   1     -23.161   2.054  26.569  0.00  0.00    +0.094 C 
ATOM      7  C   UNL A   1     -21.980   1.555  27.503  0.00  0.00    +0.059 C 
ATOM      8  F   UNL A   1     -22.092   0.147  29.597  0.00  0.00    -0.235 F 
BRANCH   3   9
ATOM      9  C   UNL A   1     -25.688   1.614  26.461  0.00  0.00    +0.087 C 
ATOM     10  C   UNL A   1     -26.250   2.920  26.395  0.00  0.00    +0.090 C 
ATOM     11  C   UNL A   1     -27.438   3.091  25.645  0.00  0.00    +0.108 C 
ATOM     12  N   UNL A   1     -28.075   2.089  25.003  0.00  0.00    -0.208 NA
ATOM     13  C   UNL A   1     -27.543   0.849  25.079  0.00  0.00    +0.255 C 
ATOM     14  C   UNL A   1     -26.354   0.576  25.777  0.00  0.00    +0.206 C 
ATOM     15  F   UNL A   1     -25.860  -0.681  25.795  0.00  0.00    -0.198 F 
BRANCH  10  16
ATOM     16  C   UNL A   1     -25.642   4.093  27.123  0.00  0.00    +0.268 C 
ATOM     17  N   UNL A   1     -25.614   5.252  26.449  0.00  0.00    -0.200 NA
ATOM     18  C   UNL A   1     -25.026   6.479  26.963  0.00  0.00    +0.139 C 
ATOM     19  O   UNL A   1     -25.143   3.966  28.243  0.00  0.00    -0.268 OA
ENDBRANCH  10  16
BRANCH  13  20
ATOM     20  O   UNL A   1     -28.193  -0.208  24.477  0.00  0.00    -0.456 OA
BRANCH  20  21
ATOM     21  C   UNL A   1     -29.460   0.005  23.866  0.00  0.00    +0.243 C 
BRANCH  21  22
ATOM     22  C   UNL A   1     -30.065  -1.377  23.573  0.00  0.00    +0.229 C 
ATOM     23  O   UNL A   1     -30.729  -1.878  24.721  0.00  0.00    -0.216 OA
ENDBRANCH  21  22
ENDBRANCH  20  21
ENDBRANCH  13  20
ENDBRANCH   3   9
ENDBRANCH   2   5
BRANCH   2  24
ATOM     24  C   UNL A   1     -24.855  -1.012  30.143  0.00  0.00    +0.058 C 
BRANCH  24  25
ATOM     25  C   UNL A   1     -24.973  -2.505  29.788  0.00  0.00    -0.017 C 
ATOM     26  C   UNL A   1     -23.906  -3.173  29.146  0.00  0.00    -0.004 C 
ATOM     27  C   UNL A   1     -23.989  -4.549  28.853  0.00  0.00    -0.000 C 
ATOM     28  C   UNL A   1     -25.137  -5.280  29.205  0.00  0.00    -0.000 C 
ATOM     29  C   UNL A   1     -26.232  -4.611  29.784  0.00  0.00    -0.000 C 
ATOM     30  C   UNL A   1     -26.155  -3.232  30.065  0.00  0.00    -0.004 C 
ENDBRANCH  24  25
BRANCH  24  31
ATOM     31  C   UNL A   1     -25.387  -0.679  31.571  0.00  0.00    +0.081 C 
ATOM     32  C   UNL A   1     -25.189   0.773  32.028  0.00  0.00    +0.019 C 
ATOM     33  C   UNL A   1     -25.336   0.684  33.544  0.00  0.00    +0.020 C 
ATOM     34  C   UNL A   1     -24.829  -0.715  33.905  0.00  0.00    +0.089 C 
ATOM     35  N   UNL A   1     -24.758  -1.481  32.646  0.00  0.00    -0.219 NA
ENDBRANCH  24  31
ENDBRANCH   2  24
BRANCH   1  36
ATOM     36  C   UNL A   1     -27.287  -0.484  28.766  0.00  0.00    +0.090 C 
BRANCH  36  37
ATOM     37  C   UNL A   1     -28.347  -0.019  29.132  0.00  0.00    +0.155 C 
ATOM     38  O   UNL A   1     -29.333  -0.235  28.362  0.00  0.00    -0.296 OA
BRANCH  37  39
ATOM     39  C   UNL A   1     -28.461   0.626  30.416  0.00  0.00    +0.066 C 
BRANCH  39  44
ATOM     40  C   UNL A   1     -28.374   4.178  31.077  0.00  0.00    +0.058 C 
ATOM     41  C   UNL A   1     -28.692   5.207  28.657  0.00  0.00    +0.072 C 
ATOM     42  C   UNL A   1     -28.140   6.173  29.731  0.00  0.00    +0.019 C 
ATOM     43  C   UNL A   1     -28.644   2.775  29.290  0.00  0.00    +0.072 C 
ATOM     44  C   UNL A   1     -28.333   2.059  30.367  0.00  0.00    +0.025 C 
ATOM     45  C   UNL A   1     -27.830   2.835  31.470  0.00  0.00    +0.018 C 
ATOM     46  N   UNL A   1     -28.722   4.027  29.648  0.00  0.00    -0.274 NA
ATOM     47  C   UNL A   1     -27.509   5.332  30.870  0.00  0.00    +0.017 C 
ENDBRANCH  39  44
ENDBRANCH  37  39
ENDBRANCH  36  37
ENDBRANCH   1  36
TORSDOF 13
