MODEL 2808
MODEL 1
REMARK VINA RESULT:    -6.251      0.000      0.000
REMARK INTER + INTRA:          -6.816
REMARK INTER:                  -6.616
REMARK INTRA:                  -0.200
REMARK UNBOUND:                -0.200
REMARK  Name = No_2808-gen_results/8p0m/2024-11-27-11-27-31/
REMARK  1 active torsions:
REMARK  status: ('A' for Active; 'I' for Inactive)
REMARK    1  A    between atoms: C_4  and  C_8
REMARK                            x       y       z     vdW  Elec       q    Type
REMARK                         _______ _______ _______ _____ _____    ______ ____
ROOT
ATOM      1  O   UNL A   1     -27.644  -3.697  30.506  0.00  0.00    -0.296 OA
ATOM      2  C   UNL A   1     -26.587  -3.490  29.900  0.00  0.00    +0.151 C 
ATOM      3  C   UNL A   1     -25.906  -2.618  29.627  0.00  0.00    +0.069 C 
ATOM      4  C   UNL A   1     -24.498  -2.595  29.076  0.00  0.00    +0.031 C 
ATOM      5  C   UNL A   1     -23.997  -3.828  28.761  0.00  0.00    +0.005 C 
ATOM      6  C   UNL A   1     -24.735  -4.940  29.055  0.00  0.00    +0.008 C 
ATOM      7  C   UNL A   1     -25.911  -4.904  29.534  0.00  0.00    +0.065 C 
ENDROOT
BRANCH   4   8
ATOM      8  C   UNL A   1     -23.735  -1.393  28.762  0.00  0.00    -0.003 A 
ATOM      9  C   UNL A   1     -24.322  -0.440  27.907  0.00  0.00    -0.001 A 
ATOM     10  C   UNL A   1     -23.682   0.811  27.700  0.00  0.00    +0.020 A 
ATOM     11  C   UNL A   1     -22.359   0.907  28.171  0.00  0.00    +0.099 A 
ATOM     12  C   UNL A   1     -22.473  -1.159  29.231  0.00  0.00    +0.095 A 
ATOM     13  N   UNL A   1     -21.835  -0.000  28.903  0.00  0.00    -0.243 NA
ENDBRANCH   4   8
TORSDOF 1
ENDMDL
ENDMDL
