MODEL 280
MODEL 1
REMARK VINA RESULT:    -6.208      0.000      0.000
REMARK INTER + INTRA:          -7.856
REMARK INTER:                  -7.297
REMARK INTRA:                  -0.558
REMARK UNBOUND:                -0.558
REMARK  Name = No_280-gen_results/8p0m/2024-11-27-11-27-31/
REMARK  3 active torsions:
REMARK  status: ('A' for Active; 'I' for Inactive)
REMARK    1  A    between atoms: C_4  and  C_8
REMARK    2  A    between atoms: C_8  and  C_9
REMARK    3  A    between atoms: C_9  and  C_10
REMARK                            x       y       z     vdW  Elec       q    Type
REMARK                         _______ _______ _______ _____ _____    ______ ____
ROOT
ATOM      1  C   UNL A   1     -25.589  -0.171  28.895  0.00  0.00    +0.031 C 
ENDROOT
BRANCH   1   5
ATOM      2  C   UNL A   1     -22.896   1.916  27.108  0.00  0.00    +0.011 A 
ATOM      3  C   UNL A   1     -23.278   1.827  26.130  0.00  0.00    +0.058 A 
ATOM      4  C   UNL A   1     -23.679   1.284  28.181  0.00  0.00    -0.003 A 
ATOM      5  C   UNL A   1     -24.814   0.479  27.873  0.00  0.00    -0.022 A 
ATOM      6  C   UNL A   1     -24.379   1.016  25.543  0.00  0.00    +0.011 A 
ATOM      7  C   UNL A   1     -25.135   0.422  26.510  0.00  0.00    -0.003 A 
ATOM      8 CL   UNL A   1     -22.317   2.587  24.792  0.00  0.00    -0.082 Cl
ENDBRANCH   1   5
BRANCH   1   9
ATOM      9  C   UNL A   1     -25.955  -1.481  28.816  0.00  0.00    +0.031 C 
BRANCH   9  10
ATOM     10  C   UNL A   1     -25.626  -2.398  29.814  0.00  0.00    -0.022 A 
ATOM     11  C   UNL A   1     -26.475  -3.532  30.044  0.00  0.00    -0.004 A 
ATOM     12  C   UNL A   1     -26.243  -4.726  29.671  0.00  0.00    -0.000 A 
ATOM     13  C   UNL A   1     -25.021  -4.992  28.902  0.00  0.00    -0.000 A 
ATOM     14  C   UNL A   1     -23.996  -4.084  28.790  0.00  0.00    -0.000 A 
ATOM     15  C   UNL A   1     -24.152  -2.618  29.813  0.00  0.00    -0.004 A 
ENDBRANCH   9  10
ENDBRANCH   1   9
TORSDOF 3
ENDMDL
ENDMDL
