REMARK  Name = No_281-gen_results/8p0m/2024-11-27-11-27-31/
REMARK  4 active torsions:
REMARK  status: ('A' for Active; 'I' for Inactive)
REMARK    1  A    between atoms: C_1  and  C_2
REMARK    2  A    between atoms: C_1  and  C_3
REMARK    3  A    between atoms: C_8  and  C_9
REMARK    4  A    between atoms: C_9  and  C_13
REMARK                            x       y       z     vdW  Elec       q    Type
REMARK                         _______ _______ _______ _____ _____    ______ ____
ROOT
ATOM      1  C   UNL A   1     -28.469  -0.785  29.829  0.00  0.00    +0.068 A 
ATOM      2  N   UNL A   1     -29.877  -0.622  29.918  0.00  0.00    -0.253 NA
ATOM      3  C   UNL A   1     -30.496  -0.746  31.022  0.00  0.00    +0.063 A 
ATOM      4  C   UNL A   1     -29.839  -1.156  32.321  0.00  0.00    +0.015 A 
ATOM      5  C   UNL A   1     -28.456  -1.379  32.313  0.00  0.00    +0.002 A 
ATOM      6  C   UNL A   1     -27.744  -1.301  31.093  0.00  0.00    +0.015 A 
ENDROOT
BRANCH   1   7
ATOM      7  C   UNL A   1     -28.016  -0.814  28.878  0.00  0.00    +0.132 C 
BRANCH   7   8
ATOM      8  C   UNL A   1     -28.182   0.428  28.113  0.00  0.00    +0.247 C 
ATOM      9  O   UNL A   1     -27.206   0.711  27.389  0.00  0.00    -0.273 OA
ATOM     10  N   UNL A   1     -29.307   1.086  28.007  0.00  0.00    -0.203 NA
ATOM     11  C   UNL A   1     -29.513   2.177  27.228  0.00  0.00    +0.139 C 
ENDBRANCH   7   8
ENDBRANCH   1   7
BRANCH   3  12
ATOM     12  C   UNL A   1     -31.885  -0.579  31.094  0.00  0.00    +0.071 C 
BRANCH  12  13
ATOM     13  C   UNL A   1     -32.405   0.198  31.920  0.00  0.00    -0.024 C 
ATOM     14  C   UNL A   1     -33.866   0.452  31.966  0.00  0.00    -0.030 C 
ATOM     15  C   UNL A   1     -34.575  -0.202  30.967  0.00  0.00    +0.030 C 
ENDBRANCH  12  13
ENDBRANCH   3  12
TORSDOF 4
