REMARK  Name = outputs/IAG933/test6/raw/output_2810_IAG933_linker_design_.xyz
REMARK  10 active torsions:
REMARK  status: ('A' for Active; 'I' for Inactive)
REMARK    1  A    between atoms: C_1  and  C_2
REMARK    2  A    between atoms: C_1  and  C_8
REMARK    3  A    between atoms: C_1  and  N_36
REMARK    4  A    between atoms: C_13  and  C_34
REMARK    5  A    between atoms: C_14  and  C_15
REMARK    6  A    between atoms: C_21  and  O_22
REMARK    7  A    between atoms: O_22  and  C_23
REMARK    8  A    between atoms: C_23  and  C_24
REMARK    9  A    between atoms: C_28  and  C_42
REMARK   10  A    between atoms: C_35  and  N_36
REMARK                            x       y       z     vdW  Elec       q    Type
REMARK                         _______ _______ _______ _____ _____    ______ ____
ROOT
ATOM      1  C   UNL A   1     -23.300   1.582  26.832  0.00  0.00    +0.098 C 
ATOM      2  F   UNL A   1     -20.858   1.973  27.316  0.00  0.00    -0.222 F 
ATOM      3  C   UNL A   1     -24.550   1.187  27.292  0.00  0.00    +0.025 C 
ATOM      4  C   UNL A   1     -24.474   0.375  28.395  0.00  0.00    +0.198 C 
ATOM      5  C   UNL A   1     -22.060   1.363  27.474  0.00  0.00    +0.266 C 
ATOM      6  C   UNL A   1     -22.252   0.452  28.489  0.00  0.00    +0.280 C 
ATOM      7  N   UNL A   1     -23.291  -0.095  28.665  0.00  0.00    -0.180 NA
ATOM      8  O   UNL A   1     -21.191   0.064  29.068  0.00  0.00    -0.270 OA
ENDROOT
BRANCH   3   9
ATOM      9  C   UNL A   1     -25.688   1.614  26.461  0.00  0.00    +0.037 C 
ATOM     10  C   UNL A   1     -26.250   2.920  26.395  0.00  0.00    +0.076 C 
ATOM     11  C   UNL A   1     -27.438   3.091  25.645  0.00  0.00    +0.107 C 
ATOM     12  N   UNL A   1     -28.075   2.089  25.003  0.00  0.00    -0.208 NA
ATOM     13  C   UNL A   1     -27.543   0.849  25.079  0.00  0.00    +0.253 C 
ATOM     14  C   UNL A   1     -26.354   0.576  25.777  0.00  0.00    +0.193 C 
ATOM     15  F   UNL A   1     -25.860  -0.681  25.795  0.00  0.00    -0.199 F 
BRANCH  10  16
ATOM     16  C   UNL A   1     -25.642   4.093  27.123  0.00  0.00    +0.266 C 
ATOM     17  N   UNL A   1     -25.614   5.252  26.449  0.00  0.00    -0.200 NA
ATOM     18  C   UNL A   1     -25.026   6.479  26.963  0.00  0.00    +0.139 C 
ATOM     19  O   UNL A   1     -25.143   3.966  28.243  0.00  0.00    -0.268 OA
ENDBRANCH  10  16
BRANCH  13  20
ATOM     20  O   UNL A   1     -28.193  -0.208  24.477  0.00  0.00    -0.456 OA
BRANCH  20  21
ATOM     21  C   UNL A   1     -29.460   0.005  23.866  0.00  0.00    +0.243 C 
BRANCH  21  22
ATOM     22  C   UNL A   1     -30.065  -1.377  23.573  0.00  0.00    +0.229 C 
ATOM     23  O   UNL A   1     -30.729  -1.878  24.721  0.00  0.00    -0.216 OA
ENDBRANCH  21  22
ENDBRANCH  20  21
ENDBRANCH  13  20
ENDBRANCH   3   9
BRANCH   4  26
ATOM     24  O   UNL A   1     -26.683   1.840  29.625  0.00  0.00    -0.222 OA
ATOM     25  O   UNL A   1     -27.585   0.036  28.821  0.00  0.00    -0.222 OA
ATOM     26  N   UNL A   1     -25.432   0.000  29.254  0.00  0.00    -0.220 N 
ATOM     27  C   UNL A   1     -26.619   0.671  29.229  0.00  0.00    +0.449 C 
BRANCH  26  28
ATOM     28  C   UNL A   1     -24.855  -1.012  30.143  0.00  0.00    +0.119 C 
BRANCH  28  29
ATOM     29  C   UNL A   1     -24.973  -2.505  29.788  0.00  0.00    -0.003 C 
ATOM     30  C   UNL A   1     -23.906  -3.173  29.146  0.00  0.00    -0.003 C 
ATOM     31  C   UNL A   1     -23.989  -4.549  28.853  0.00  0.00    -0.000 C 
ATOM     32  C   UNL A   1     -25.137  -5.280  29.205  0.00  0.00    -0.000 C 
ATOM     33  C   UNL A   1     -26.232  -4.611  29.784  0.00  0.00    -0.000 C 
ATOM     34  C   UNL A   1     -26.155  -3.232  30.065  0.00  0.00    -0.003 C 
ENDBRANCH  28  29
BRANCH  28  35
ATOM     35  C   UNL A   1     -25.387  -0.679  31.571  0.00  0.00    +0.095 C 
ATOM     36  C   UNL A   1     -25.189   0.773  32.028  0.00  0.00    +0.021 C 
ATOM     37  C   UNL A   1     -25.336   0.684  33.544  0.00  0.00    +0.020 C 
ATOM     38  C   UNL A   1     -24.829  -0.715  33.905  0.00  0.00    +0.089 C 
ATOM     39  N   UNL A   1     -24.758  -1.481  32.646  0.00  0.00    -0.217 NA
ENDBRANCH  28  35
ENDBRANCH  26  28
ENDBRANCH   4  26
BRANCH   1  42
ATOM     40  O   UNL A   1     -23.767   1.247  24.588  0.00  0.00    -0.241 OA
ATOM     41  O   UNL A   1     -22.912   3.179  25.224  0.00  0.00    -0.241 OA
ATOM     42  C   UNL A   1     -23.349   2.051  25.434  0.00  0.00    +0.387 C 
ENDBRANCH   1  42
TORSDOF 10
