MODEL 2810
MODEL 1
REMARK VINA RESULT:    -8.150      0.000      0.000
REMARK INTER + INTRA:         -12.377
REMARK INTER:                 -10.533
REMARK INTRA:                  -1.844
REMARK UNBOUND:                -1.844
REMARK  Name = No_2810-gen_results/8p0m/2024-11-27-11-27-31/
REMARK  5 active torsions:
REMARK  status: ('A' for Active; 'I' for Inactive)
REMARK    1  A    between atoms: C_1  and  C_19
REMARK    2  A    between atoms: C_3  and  C_7
REMARK    3  A    between atoms: C_8  and  C_9
REMARK    4  A    between atoms: C_9  and  C_10
REMARK    5  A    between atoms: C_10  and  C_11
REMARK                            x       y       z     vdW  Elec       q    Type
REMARK                         _______ _______ _______ _____ _____    ______ ____
ROOT
ATOM      1  C   UNL A   1     -24.263   0.123  27.245  0.00  0.00    -0.003 A 
ATOM      2  C   UNL A   1     -24.728   0.411  26.017  0.00  0.00    -0.022 A 
ATOM      3  C   UNL A   1     -23.045   0.751  27.794  0.00  0.00    -0.000 A 
ATOM      4  C   UNL A   1     -23.811   1.459  25.362  0.00  0.00    -0.004 A 
ATOM      5  C   UNL A   1     -23.438   2.454  26.014  0.00  0.00    -0.000 A 
ATOM      6  C   UNL A   1     -22.720   1.980  27.233  0.00  0.00    -0.000 A 
ENDROOT
BRANCH   1   9
ATOM      7  C   UNL A   1     -25.297  -3.010  28.856  0.00  0.00    +0.080 A 
ATOM      8  C   UNL A   1     -24.674  -2.184  28.230  0.00  0.00    +0.007 A 
ATOM      9  C   UNL A   1     -24.989  -0.838  28.151  0.00  0.00    +0.011 A 
ATOM     10  C   UNL A   1     -26.121  -0.393  28.894  0.00  0.00    +0.058 A 
ATOM     11  C   UNL A   1     -26.700  -1.294  29.704  0.00  0.00    +0.012 A 
ATOM     12  C   UNL A   1     -26.306  -2.534  29.747  0.00  0.00    +0.007 A 
ATOM     13 CL   UNL A   1     -26.538   1.287  28.856  0.00  0.00    -0.082 Cl
BRANCH   7  14
ATOM     14  C   UNL A   1     -24.891  -4.458  28.982  0.00  0.00    +0.388 C 
ATOM     15  O   UNL A   1     -23.806  -4.836  28.788  0.00  0.00    -0.241 OA
ATOM     16  O   UNL A   1     -25.778  -5.209  29.748  0.00  0.00    -0.241 OA
ENDBRANCH   7  14
ENDBRANCH   1   9
BRANCH   2  17
ATOM     17  C   UNL A   1     -25.748   0.022  25.390  0.00  0.00    +0.031 C 
BRANCH  17  18
ATOM     18  C   UNL A   1     -26.615   0.146  24.870  0.00  0.00    +0.031 C 
BRANCH  18  19
ATOM     19  C   UNL A   1     -27.731   0.769  24.290  0.00  0.00    -0.026 A 
ATOM     20  C   UNL A   1     -27.978   2.081  24.323  0.00  0.00    -0.005 A 
ATOM     21  C   UNL A   1     -29.182   2.673  23.871  0.00  0.00    -0.000 A 
ATOM     22  C   UNL A   1     -30.143   1.775  23.356  0.00  0.00    -0.000 A 
ATOM     23  C   UNL A   1     -29.956   0.448  23.299  0.00  0.00    -0.005 A 
ATOM     24  C   UNL A   1     -28.755  -0.105  23.780  0.00  0.00    -0.026 A 
ATOM     25  C   UNL A   1     -28.545  -1.501  23.760  0.00  0.00    +0.031 C 
ENDBRANCH  18  19
ENDBRANCH  17  18
ENDBRANCH   2  17
TORSDOF 5
ENDMDL
ENDMDL
