MODEL 2811
MODEL 1
REMARK VINA RESULT:    -6.879      0.000      0.000
REMARK INTER + INTRA:          -6.879
REMARK INTER:                  -6.879
REMARK INTRA:                   0.000
REMARK UNBOUND:                 0.000
REMARK  Name = No_2811-gen_results/8p0m/2024-11-27-11-27-31/
REMARK  0 active torsions:
REMARK  status: ('A' for Active; 'I' for Inactive)
REMARK                            x       y       z     vdW  Elec       q    Type
REMARK                         _______ _______ _______ _____ _____    ______ ____
ROOT
ATOM      1  C   UNL A   1     -25.377  -0.225  24.572  0.00  0.00    -0.000 A 
ATOM      2  C   UNL A   1     -26.048  -0.322  25.379  0.00  0.00    -0.000 A 
ATOM      3  C   UNL A   1     -24.267   0.662  24.775  0.00  0.00    -0.000 A 
ATOM      4  C   UNL A   1     -24.154   1.457  25.843  0.00  0.00    -0.002 A 
ATOM      5  C   UNL A   1     -23.076   2.336  25.998  0.00  0.00    -0.000 C 
ATOM      6  C   UNL A   1     -26.163   0.387  26.629  0.00  0.00    -0.003 A 
ATOM      7  C   UNL A   1     -25.102   1.290  26.826  0.00  0.00    -0.002 A 
ATOM      8  C   UNL A   1     -22.287   2.242  26.984  0.00  0.00    -0.000 C 
ATOM      9  C   UNL A   1     -22.441   1.138  27.927  0.00  0.00    -0.003 A 
ATOM     10  C   UNL A   1     -21.521   0.483  28.153  0.00  0.00    -0.000 A 
ATOM     11  C   UNL A   1     -21.578  -0.821  29.004  0.00  0.00    -0.000 A 
ATOM     12  C   UNL A   1     -22.866  -1.183  29.409  0.00  0.00    -0.003 A 
ATOM     13  C   UNL A   1     -23.878  -0.366  29.078  0.00  0.00    -0.007 A 
ATOM     14  C   UNL A   1     -23.702   0.721  28.334  0.00  0.00    -0.005 A 
ATOM     15  C   UNL A   1     -24.785   0.804  27.458  0.00  0.00    +0.117 C 
ATOM     16  N   UNL A   1     -25.589   0.537  28.666  0.00  0.00    -0.206 NA
ATOM     17  C   UNL A   1     -25.221  -0.577  29.558  0.00  0.00    +0.115 C 
ENDROOT
TORSDOF 0
ENDMDL
ENDMDL
