REMARK  Name = outputs/IAG933/test6/raw/output_2812_IAG933_linker_design_.xyz
REMARK  11 active torsions:
REMARK  status: ('A' for Active; 'I' for Inactive)
REMARK    1  A    between atoms: C_1  and  C_2
REMARK    2  A    between atoms: C_1  and  C_8
REMARK    3  A    between atoms: C_1  and  C_30
REMARK    4  A    between atoms: C_13  and  C_36
REMARK    5  A    between atoms: C_14  and  C_15
REMARK    6  A    between atoms: C_21  and  O_22
REMARK    7  A    between atoms: O_22  and  C_23
REMARK    8  A    between atoms: C_23  and  C_24
REMARK    9  A    between atoms: C_28  and  O_32
REMARK   10  A    between atoms: C_28  and  C_41
REMARK   11  A    between atoms: C_31  and  O_32
REMARK                            x       y       z     vdW  Elec       q    Type
REMARK                         _______ _______ _______ _____ _____    ______ ____
ROOT
ATOM      1  C   UNL A   1     -21.736  -0.255  29.611  0.00  0.00    +0.062 C 
ATOM      2  C   UNL A   1     -24.294  -0.098  29.320  0.00  0.00    +0.249 C 
ATOM      3  C   UNL A   1     -22.898   0.621  29.299  0.00  0.00    +0.185 C 
ATOM      4  C   UNL A   1     -20.609  -0.070  28.631  0.00  0.00    -0.024 C 
ATOM      5  N   UNL A   1     -25.174   0.401  28.376  0.00  0.00    -0.067 NA
ATOM      6  C   UNL A   1     -24.640   1.100  27.296  0.00  0.00    +0.321 C 
ATOM      7  N   UNL A   1     -23.333   1.472  26.956  0.00  0.00    -0.185 N 
ATOM      8  C   UNL A   1     -22.376   1.097  27.931  0.00  0.00    +0.211 C 
ATOM      9  C   UNL A   1     -21.095   0.774  27.692  0.00  0.00    +0.018 C 
ATOM     10  C   UNL A   1     -22.898   2.298  25.767  0.00  0.00    +0.254 C 
ENDROOT
BRANCH   6  11
ATOM     11  C   UNL A   1     -25.688   1.614  26.461  0.00  0.00    +0.120 C 
ATOM     12  C   UNL A   1     -26.250   2.920  26.395  0.00  0.00    +0.084 C 
ATOM     13  C   UNL A   1     -27.438   3.091  25.645  0.00  0.00    +0.107 C 
ATOM     14  N   UNL A   1     -28.075   2.089  25.003  0.00  0.00    -0.208 NA
ATOM     15  C   UNL A   1     -27.543   0.849  25.079  0.00  0.00    +0.254 C 
ATOM     16  C   UNL A   1     -26.354   0.576  25.777  0.00  0.00    +0.200 C 
ATOM     17  F   UNL A   1     -25.860  -0.681  25.795  0.00  0.00    -0.199 F 
BRANCH  12  18
ATOM     18  C   UNL A   1     -25.642   4.093  27.123  0.00  0.00    +0.267 C 
ATOM     19  N   UNL A   1     -25.614   5.252  26.449  0.00  0.00    -0.200 NA
ATOM     20  C   UNL A   1     -25.026   6.479  26.963  0.00  0.00    +0.139 C 
ATOM     21  O   UNL A   1     -25.143   3.966  28.243  0.00  0.00    -0.268 OA
ENDBRANCH  12  18
BRANCH  15  22
ATOM     22  O   UNL A   1     -28.193  -0.208  24.477  0.00  0.00    -0.456 OA
BRANCH  22  23
ATOM     23  C   UNL A   1     -29.460   0.005  23.866  0.00  0.00    +0.243 C 
BRANCH  23  24
ATOM     24  C   UNL A   1     -30.065  -1.377  23.573  0.00  0.00    +0.229 C 
ATOM     25  O   UNL A   1     -30.729  -1.878  24.721  0.00  0.00    -0.216 OA
ENDBRANCH  23  24
ENDBRANCH  22  23
ENDBRANCH  15  22
ENDBRANCH   6  11
BRANCH   2  26
ATOM     26  C   UNL A   1     -24.855  -1.012  30.143  0.00  0.00    +0.090 C 
BRANCH  26  27
ATOM     27  C   UNL A   1     -24.973  -2.505  29.788  0.00  0.00    -0.017 C 
ATOM     28  C   UNL A   1     -23.906  -3.173  29.146  0.00  0.00    -0.004 C 
ATOM     29  C   UNL A   1     -23.989  -4.549  28.853  0.00  0.00    -0.000 C 
ATOM     30  C   UNL A   1     -25.137  -5.280  29.205  0.00  0.00    -0.000 C 
ATOM     31  C   UNL A   1     -26.232  -4.611  29.784  0.00  0.00    -0.000 C 
ATOM     32  C   UNL A   1     -26.155  -3.232  30.065  0.00  0.00    -0.004 C 
ENDBRANCH  26  27
BRANCH  26  33
ATOM     33  C   UNL A   1     -25.387  -0.679  31.571  0.00  0.00    +0.081 C 
ATOM     34  C   UNL A   1     -25.189   0.773  32.028  0.00  0.00    +0.019 C 
ATOM     35  C   UNL A   1     -25.336   0.684  33.544  0.00  0.00    +0.020 C 
ATOM     36  C   UNL A   1     -24.829  -0.715  33.905  0.00  0.00    +0.089 C 
ATOM     37  N   UNL A   1     -24.758  -1.481  32.646  0.00  0.00    -0.219 NA
ENDBRANCH  26  33
ENDBRANCH   2  26
BRANCH   3  38
ATOM     38  O   UNL A   1     -22.898   1.756  30.264  0.00  0.00    -0.345 OA
BRANCH  38  39
ATOM     39  C   UNL A   1     -23.592   2.927  31.095  0.00  0.00    +0.169 C 
BRANCH  39  41
ATOM     40  C   UNL A   1     -23.671   5.050  32.464  0.00  0.00    -0.002 C 
ATOM     41  C   UNL A   1     -23.337   4.331  31.376  0.00  0.00    +0.006 C 
ENDBRANCH  39  41
ENDBRANCH  38  39
ENDBRANCH   3  38
TORSDOF 11
