MODEL 2812
MODEL 1
REMARK VINA RESULT:    -4.351      0.000      0.000
REMARK INTER + INTRA:          -4.351
REMARK INTER:                  -4.351
REMARK INTRA:                   0.000
REMARK UNBOUND:                 0.000
REMARK  Name = No_2812-gen_results/8p0m/2024-11-27-11-27-31/
REMARK  0 active torsions:
REMARK  status: ('A' for Active; 'I' for Inactive)
REMARK                            x       y       z     vdW  Elec       q    Type
REMARK                         _______ _______ _______ _____ _____    ______ ____
ROOT
ATOM      1  C   UNL A   1     -24.143  -4.863  28.589  0.00  0.00    +0.000 A 
ATOM      2  C   UNL A   1     -24.989  -5.296  29.045  0.00  0.00    +0.000 A 
ATOM      3  C   UNL A   1     -24.062  -3.408  28.767  0.00  0.00    +0.000 A 
ATOM      4  C   UNL A   1     -25.060  -2.694  29.291  0.00  0.00    +0.000 A 
ATOM      5  C   UNL A   1     -26.183  -4.742  29.636  0.00  0.00    +0.000 A 
ATOM      6  C   UNL A   1     -26.100  -3.388  29.770  0.00  0.00    +0.000 A 
ENDROOT
TORSDOF 0
ENDMDL
ENDMDL
