REMARK  Name = No_2813-gen_results/8p0m/2024-11-27-11-27-31/
REMARK  4 active torsions:
REMARK  status: ('A' for Active; 'I' for Inactive)
REMARK    1  A    between atoms: C_2  and  O_12
REMARK    2  A    between atoms: O_12  and  C_13
REMARK    3  A    between atoms: C_18  and  N_19
REMARK    4  A    between atoms: N_19  and  C_21
REMARK                            x       y       z     vdW  Elec       q    Type
REMARK                         _______ _______ _______ _____ _____    ______ ____
ROOT
ATOM      1  O   UNL A   1     -29.364  -1.947  30.165  0.00  0.00    -0.468 OA
ENDROOT
BRANCH   1   3
ATOM      2  C   UNL A   1     -28.016  -0.814  28.878  0.00  0.00    +0.033 A 
ATOM      3  C   UNL A   1     -28.469  -0.785  29.829  0.00  0.00    +0.139 A 
ATOM      4  C   UNL A   1     -27.087   0.290  28.638  0.00  0.00    -0.016 A 
ATOM      5  C   UNL A   1     -26.252   0.411  27.422  0.00  0.00    +0.027 C 
ATOM      6  C   UNL A   1     -28.391   0.104  30.980  0.00  0.00    +0.037 A 
ATOM      7  C   UNL A   1     -27.533   1.167  30.787  0.00  0.00    +0.006 A 
ATOM      8  C   UNL A   1     -26.828   1.256  29.645  0.00  0.00    +0.031 A 
ATOM      9  C   UNL A   1     -25.644   1.665  27.222  0.00  0.00    +0.013 C 
ATOM     10  C   UNL A   1     -25.391   2.560  28.229  0.00  0.00    +0.070 C 
ATOM     11  C   UNL A   1     -26.098   2.444  29.409  0.00  0.00    +0.173 C 
ATOM     12  O   UNL A   1     -25.892   3.385  30.340  0.00  0.00    -0.291 OA
ENDBRANCH   1   3
BRANCH   1  13
ATOM     13  C   UNL A   1     -30.573  -1.836  30.270  0.00  0.00    +0.262 C 
ATOM     14  C   UNL A   1     -31.130  -3.106  30.267  0.00  0.00    +0.283 C 
ATOM     15  O   UNL A   1     -30.552  -4.113  30.333  0.00  0.00    -0.269 OA
ATOM     16  N   UNL A   1     -32.482  -3.311  30.184  0.00  0.00    -0.202 NA
ATOM     17  C   UNL A   1     -33.407  -2.174  30.037  0.00  0.00    +0.117 C 
ATOM     18  C   UNL A   1     -31.326  -0.899  29.542  0.00  0.00    +0.143 C 
ATOM     19  C   UNL A   1     -32.740  -0.898  29.562  0.00  0.00    +0.049 C 
BRANCH  18  20
ATOM     20  N   UNL A   1     -30.800   0.430  29.305  0.00  0.00    -0.234 NA
BRANCH  20  21
ATOM     21  C   UNL A   1     -31.578   1.457  28.896  0.00  0.00    +0.076 C 
ATOM     22  C   UNL A   1     -30.808   2.598  28.492  0.00  0.00    -0.008 C 
ATOM     23  C   UNL A   1     -31.390   3.808  28.156  0.00  0.00    +0.032 C 
ENDBRANCH  20  21
ENDBRANCH  18  20
ENDBRANCH   1  13
TORSDOF 4
