MODEL 2813
MODEL 1
REMARK VINA RESULT:    -6.414      0.000      0.000
REMARK INTER + INTRA:          -9.264
REMARK INTER:                  -7.914
REMARK INTRA:                  -1.350
REMARK UNBOUND:                -1.350
REMARK  Name = No_2813-gen_results/8p0m/2024-11-27-11-27-31/
REMARK  4 active torsions:
REMARK  status: ('A' for Active; 'I' for Inactive)
REMARK    1  A    between atoms: C_2  and  O_12
REMARK    2  A    between atoms: O_12  and  C_13
REMARK    3  A    between atoms: C_18  and  N_19
REMARK    4  A    between atoms: N_19  and  C_21
REMARK                            x       y       z     vdW  Elec       q    Type
REMARK                         _______ _______ _______ _____ _____    ______ ____
ROOT
ATOM      1  O   UNL A   1     -16.021 -22.073   7.799  0.00  0.00    -0.468 OA
ENDROOT
BRANCH   1   3
ATOM      2  C   UNL A   1     -18.150 -21.658   8.024  0.00  0.00    +0.033 A 
ATOM      3  C   UNL A   1     -17.303 -21.356   7.474  0.00  0.00    +0.139 A 
ATOM      4  C   UNL A   1     -19.385 -20.995   7.607  0.00  0.00    -0.016 A 
ATOM      5  C   UNL A   1     -20.720 -21.326   8.156  0.00  0.00    +0.027 C 
ATOM      6  C   UNL A   1     -17.064 -20.423   6.382  0.00  0.00    +0.037 A 
ATOM      7  C   UNL A   1     -18.205 -19.768   5.969  0.00  0.00    +0.006 A 
ATOM      8  C   UNL A   1     -19.389 -20.073   6.529  0.00  0.00    +0.031 A 
ATOM      9  C   UNL A   1     -21.744 -20.405   7.864  0.00  0.00    +0.013 C 
ATOM     10  C   UNL A   1     -21.718 -19.546   6.796  0.00  0.00    +0.070 C 
ATOM     11  C   UNL A   1     -20.502 -19.261   6.208  0.00  0.00    +0.173 C 
ATOM     12  O   UNL A   1     -20.497 -18.352   5.224  0.00  0.00    -0.291 OA
ENDBRANCH   1   3
BRANCH   1  13
ATOM     13  C   UNL A   1     -15.975 -23.271   8.016  0.00  0.00    +0.262 C 
ATOM     14  C   UNL A   1     -15.217 -23.479   9.159  0.00  0.00    +0.283 C 
ATOM     15  O   UNL A   1     -14.835 -22.661   9.891  0.00  0.00    -0.269 OA
ATOM     16  N   UNL A   1     -14.825 -24.729   9.559  0.00  0.00    -0.202 NA
ATOM     17  C   UNL A   1     -15.153 -25.915   8.748  0.00  0.00    +0.117 C 
ATOM     18  C   UNL A   1     -15.739 -24.227   7.013  0.00  0.00    +0.143 C 
ATOM     19  C   UNL A   1     -15.532 -25.593   7.316  0.00  0.00    +0.049 C 
BRANCH  18  20
ATOM     20  N   UNL A   1     -16.323 -24.060   5.698  0.00  0.00    -0.234 NA
BRANCH  20  21
ATOM     21  C   UNL A   1     -17.645 -24.218   5.464  0.00  0.00    +0.076 C 
ATOM     22  C   UNL A   1     -18.149 -23.266   4.516  0.00  0.00    -0.008 C 
ATOM     23  C   UNL A   1     -19.496 -23.155   4.217  0.00  0.00    +0.032 C 
ENDBRANCH  20  21
ENDBRANCH  18  20
ENDBRANCH   1  13
TORSDOF 4
ENDMDL
ENDMDL
