MODEL 2814
MODEL 1
REMARK VINA RESULT:    -7.970      0.000      0.000
REMARK INTER + INTRA:         -13.809
REMARK INTER:                 -11.697
REMARK INTRA:                  -2.112
REMARK UNBOUND:                -2.112
REMARK  Name = No_2814-gen_results/8p0m/2024-11-27-11-27-31/
REMARK  8 active torsions:
REMARK  status: ('A' for Active; 'I' for Inactive)
REMARK    1  A    between atoms: C_3  and  C_7
REMARK    2  A    between atoms: C_7  and  C_8
REMARK    3  A    between atoms: C_7  and  C_15
REMARK    4  A    between atoms: C_9  and  C_10
REMARK    5  A    between atoms: C_11  and  C_12
REMARK    6  A    between atoms: C_15  and  C_20
REMARK    7  A    between atoms: C_20  and  C_22
REMARK    8  A    between atoms: C_22  and  C_23
REMARK                            x       y       z     vdW  Elec       q    Type
REMARK                         _______ _______ _______ _____ _____    ______ ____
ROOT
ATOM      1  C   UNL A   1     -23.826  -1.470  29.994  0.00  0.00    +0.059 C 
ENDROOT
BRANCH   1   4
ATOM      2  C   UNL A   1     -26.115  -2.525  30.291  0.00  0.00    -0.004 A 
ATOM      3  C   UNL A   1     -26.763  -3.333  30.100  0.00  0.00    +0.002 A 
ATOM      4  C   UNL A   1     -24.765  -2.672  29.826  0.00  0.00    -0.013 A 
ATOM      5  C   UNL A   1     -24.286  -3.815  29.326  0.00  0.00    +0.026 A 
ATOM      6  C   UNL A   1     -26.461  -4.664  29.594  0.00  0.00    +0.030 A 
ATOM      7  C   UNL A   1     -25.211  -4.824  29.180  0.00  0.00    +0.140 A 
ATOM      8  F   UNL A   1     -24.838  -6.054  28.728  0.00  0.00    -0.204 F 
ENDBRANCH   1   4
BRANCH   1   9
ATOM      9  C   UNL A   1     -24.012  -0.617  31.154  0.00  0.00    -0.036 C 
ATOM     10  C   UNL A   1     -24.963   0.363  31.189  0.00  0.00    -0.004 C 
ATOM     11  C   UNL A   1     -23.512  -1.159  32.368  0.00  0.00    +0.027 C 
BRANCH  10  12
ATOM     12  C   UNL A   1     -25.059   1.228  32.315  0.00  0.00    +0.050 C 
ATOM     13  C   UNL A   1     -25.181   2.381  32.255  0.00  0.00    +0.237 C 
ATOM     14  O   UNL A   1     -24.783   2.920  30.926  0.00  0.00    -0.278 OA
BRANCH  13  15
ATOM     15  C   UNL A   1     -25.276   3.282  33.011  0.00  0.00    -0.023 C 
ATOM     16  C   UNL A   1     -25.320   4.276  33.291  0.00  0.00    -0.082 C 
ATOM     17  C   UNL A   1     -25.004   5.875  33.412  0.00  0.00    +0.090 C 
ENDBRANCH  13  15
ENDBRANCH  10  12
ENDBRANCH   1   9
BRANCH   1  18
ATOM     18  C   UNL A   1     -23.717  -0.734  28.748  0.00  0.00    -0.037 C 
ATOM     19  C   UNL A   1     -24.530  -0.674  27.857  0.00  0.00    -0.009 C 
BRANCH  18  20
ATOM     20  C   UNL A   1     -22.415  -0.046  28.743  0.00  0.00    +0.023 C 
ATOM     21  C   UNL A   1     -21.220  -0.595  28.812  0.00  0.00    +0.005 C 
BRANCH  20  22
ATOM     22  C   UNL A   1     -22.516   1.437  28.642  0.00  0.00    +0.030 C 
BRANCH  22  23
ATOM     23  C   UNL A   1     -22.806   1.955  27.555  0.00  0.00    -0.022 A 
ATOM     24  C   UNL A   1     -22.362   1.837  26.346  0.00  0.00    -0.004 A 
ATOM     25  C   UNL A   1     -22.720   2.616  25.195  0.00  0.00    -0.000 A 
ATOM     26  C   UNL A   1     -23.853   3.414  25.353  0.00  0.00    -0.000 A 
ATOM     27  C   UNL A   1     -24.520   3.496  26.539  0.00  0.00    -0.000 A 
ATOM     28  C   UNL A   1     -24.147   2.819  27.627  0.00  0.00    -0.004 A 
ENDBRANCH  22  23
ENDBRANCH  20  22
ENDBRANCH  18  20
ENDBRANCH   1  18
TORSDOF 8
ENDMDL
ENDMDL
