REMARK  Name = No_2814-gen_results/8p0m/2024-11-27-11-27-31/
REMARK  8 active torsions:
REMARK  status: ('A' for Active; 'I' for Inactive)
REMARK    1  A    between atoms: C_3  and  C_7
REMARK    2  A    between atoms: C_7  and  C_8
REMARK    3  A    between atoms: C_7  and  C_15
REMARK    4  A    between atoms: C_9  and  C_10
REMARK    5  A    between atoms: C_11  and  C_12
REMARK    6  A    between atoms: C_15  and  C_20
REMARK    7  A    between atoms: C_20  and  C_22
REMARK    8  A    between atoms: C_22  and  C_23
REMARK                            x       y       z     vdW  Elec       q    Type
REMARK                         _______ _______ _______ _____ _____    ______ ____
ROOT
ATOM      1  C   UNL A   1     -27.460   0.380  26.709  0.00  0.00    +0.059 C 
ENDROOT
BRANCH   1   4
ATOM      2  C   UNL A   1     -28.016  -0.814  28.878  0.00  0.00    -0.004 A 
ATOM      3  C   UNL A   1     -28.469  -0.785  29.829  0.00  0.00    +0.002 A 
ATOM      4  C   UNL A   1     -28.196   0.348  28.055  0.00  0.00    -0.013 A 
ATOM      5  C   UNL A   1     -29.019   1.350  28.378  0.00  0.00    +0.026 A 
ATOM      6  C   UNL A   1     -29.411   0.180  30.378  0.00  0.00    +0.030 A 
ATOM      7  C   UNL A   1     -29.606   1.250  29.619  0.00  0.00    +0.140 A 
ATOM      8  F   UNL A   1     -30.504   2.182  30.045  0.00  0.00    -0.204 F 
ENDBRANCH   1   4
BRANCH   1   9
ATOM      9  C   UNL A   1     -26.009   0.332  26.724  0.00  0.00    -0.036 C 
ATOM     10  C   UNL A   1     -25.305   0.024  27.853  0.00  0.00    -0.004 C 
ATOM     11  C   UNL A   1     -25.415   0.144  25.448  0.00  0.00    +0.027 C 
BRANCH  10  12
ATOM     12  C   UNL A   1     -23.883   0.065  27.843  0.00  0.00    +0.050 C 
ATOM     13  C   UNL A   1     -23.246   0.995  28.122  0.00  0.00    +0.237 C 
ATOM     14  O   UNL A   1     -24.034   2.256  28.059  0.00  0.00    -0.278 OA
BRANCH  13  15
ATOM     15  C   UNL A   1     -22.101   1.272  28.187  0.00  0.00    -0.023 C 
ATOM     16  C   UNL A   1     -21.084   1.104  28.098  0.00  0.00    -0.082 C 
ATOM     17  C   UNL A   1     -19.609   0.406  28.177  0.00  0.00    +0.090 C 
ENDBRANCH  13  15
ENDBRANCH  10  12
ENDBRANCH   1   9
BRANCH   1  18
ATOM     18  C   UNL A   1     -27.994   1.434  25.865  0.00  0.00    -0.037 C 
ATOM     19  C   UNL A   1     -27.767   2.617  25.937  0.00  0.00    -0.009 C 
BRANCH  18  20
ATOM     20  C   UNL A   1     -28.885   0.809  24.873  0.00  0.00    +0.023 C 
ATOM     21  C   UNL A   1     -29.243  -0.456  24.804  0.00  0.00    +0.005 C 
BRANCH  20  22
ATOM     22  C   UNL A   1     -29.418   1.760  23.857  0.00  0.00    +0.030 C 
BRANCH  22  23
ATOM     23  C   UNL A   1     -30.369   2.496  24.153  0.00  0.00    -0.022 A 
ATOM     24  C   UNL A   1     -31.636   2.314  24.336  0.00  0.00    -0.004 A 
ATOM     25  C   UNL A   1     -32.648   3.308  24.551  0.00  0.00    -0.000 A 
ATOM     26  C   UNL A   1     -32.168   4.584  24.843  0.00  0.00    -0.000 A 
ATOM     27  C   UNL A   1     -30.836   4.871  24.851  0.00  0.00    -0.000 A 
ATOM     28  C   UNL A   1     -29.898   3.959  24.588  0.00  0.00    -0.004 A 
ENDBRANCH  22  23
ENDBRANCH  20  22
ENDBRANCH  18  20
ENDBRANCH   1  18
TORSDOF 8
