REMARK  Name = outputs/IAG933/test6/raw/output_2815_IAG933_linker_design_.xyz
REMARK  12 active torsions:
REMARK  status: ('A' for Active; 'I' for Inactive)
REMARK    1  A    between atoms: C_1  and  C_2
REMARK    2  A    between atoms: C_1  and  C_8
REMARK    3  A    between atoms: C_9  and  C_44
REMARK    4  A    between atoms: C_13  and  C_46
REMARK    5  A    between atoms: C_14  and  C_15
REMARK    6  A    between atoms: C_21  and  O_22
REMARK    7  A    between atoms: O_22  and  C_23
REMARK    8  A    between atoms: C_23  and  C_24
REMARK    9  A    between atoms: C_31  and  N_43
REMARK   10  A    between atoms: C_33  and  C_44
REMARK   11  A    between atoms: N_43  and  C_44
REMARK   12  A    between atoms: C_45  and  C_46
REMARK                            x       y       z     vdW  Elec       q    Type
REMARK                         _______ _______ _______ _____ _____    ______ ____
ROOT
ATOM      1  N   UNL A   1     -24.620   2.065  29.758  0.00  0.00    -0.238 NA
ENDROOT
BRANCH   1   4
ATOM      2  F   UNL A   1     -21.581   2.128  26.035  0.00  0.00    -0.184 F 
ATOM      3  O   UNL A   1     -21.062   1.066  27.979  0.00  0.00    -0.443 OA
ATOM      4  C   UNL A   1     -23.591   1.507  29.017  0.00  0.00    +0.067 C 
ATOM      5  C   UNL A   1     -22.685   0.864  29.757  0.00  0.00    +0.056 C 
ATOM      6  C   UNL A   1     -22.021   1.556  27.196  0.00  0.00    +0.348 C 
ATOM      7  C   UNL A   1     -21.468   0.606  29.220  0.00  0.00    +0.177 C 
ATOM      8  C   UNL A   1     -23.354   1.531  27.604  0.00  0.00    +0.045 C 
BRANCH   8   9
ATOM      9  C   UNL A   1     -24.325   1.396  26.661  0.00  0.00    +0.038 C 
BRANCH   9  10
ATOM     10  C   UNL A   1     -25.688   1.614  26.461  0.00  0.00    +0.074 C 
ATOM     11  C   UNL A   1     -26.250   2.920  26.395  0.00  0.00    +0.055 C 
ATOM     12  C   UNL A   1     -27.438   3.091  25.645  0.00  0.00    +0.102 C 
ATOM     13  N   UNL A   1     -28.075   2.089  25.003  0.00  0.00    -0.212 NA
ATOM     14  C   UNL A   1     -27.543   0.849  25.079  0.00  0.00    +0.234 C 
ATOM     15  C   UNL A   1     -26.354   0.576  25.777  0.00  0.00    +0.240 C 
ATOM     16  F   UNL A   1     -25.860  -0.681  25.795  0.00  0.00    -0.227 F 
BRANCH  11  17
ATOM     17  C   UNL A   1     -25.642   4.093  27.123  0.00  0.00    +0.262 C 
ATOM     18  N   UNL A   1     -25.614   5.252  26.449  0.00  0.00    -0.200 NA
ATOM     19  C   UNL A   1     -25.026   6.479  26.963  0.00  0.00    +0.139 C 
ATOM     20  O   UNL A   1     -25.143   3.966  28.243  0.00  0.00    -0.269 OA
ENDBRANCH  11  17
BRANCH  14  21
ATOM     21  O   UNL A   1     -28.193  -0.208  24.477  0.00  0.00    -0.459 OA
BRANCH  21  22
ATOM     22  C   UNL A   1     -29.460   0.005  23.866  0.00  0.00    +0.242 C 
BRANCH  22  23
ATOM     23  C   UNL A   1     -30.065  -1.377  23.573  0.00  0.00    +0.229 C 
ATOM     24  O   UNL A   1     -30.729  -1.878  24.721  0.00  0.00    -0.216 OA
ENDBRANCH  22  23
ENDBRANCH  21  22
ENDBRANCH  14  21
ENDBRANCH   9  10
ENDBRANCH   8   9
ENDBRANCH   1   4
BRANCH   1  25
ATOM     25  C   UNL A   1     -25.015   2.166  31.231  0.00  0.00    +0.116 C 
BRANCH  25  28
ATOM     26  O   UNL A   1     -24.562   4.311  32.360  0.00  0.00    -0.221 OA
ATOM     27  C   UNL A   1     -25.938   4.144  32.467  0.00  0.00    +0.176 C 
ATOM     28  C   UNL A   1     -26.164   3.119  31.497  0.00  0.00    +0.145 C 
ATOM     29  C   UNL A   1     -26.589   5.340  33.183  0.00  0.00    +0.067 C 
ATOM     30  C   UNL A   1     -28.408   3.944  32.702  0.00  0.00    +0.229 C 
ATOM     31  C   UNL A   1     -28.464   2.894  31.735  0.00  0.00    +0.272 C 
ATOM     32  O   UNL A   1     -29.607   2.418  31.849  0.00  0.00    -0.271 OA
ATOM     33  O   UNL A   1     -28.711   5.271  32.488  0.00  0.00    -0.344 OA
ATOM     34  C   UNL A   1     -27.608   6.033  32.483  0.00  0.00    +0.145 C 
ATOM     35  N   UNL A   1     -27.418   2.603  31.065  0.00  0.00    -0.201 NA
ENDBRANCH  25  28
BRANCH  25  37
ATOM     36  C   UNL A   1     -25.387  -0.679  31.571  0.00  0.00    +0.079 C 
ATOM     37  C   UNL A   1     -25.189   0.773  32.028  0.00  0.00    +0.040 C 
ATOM     38  C   UNL A   1     -25.336   0.684  33.544  0.00  0.00    +0.022 C 
ATOM     39  C   UNL A   1     -24.829  -0.715  33.905  0.00  0.00    +0.089 C 
ATOM     40  N   UNL A   1     -24.758  -1.481  32.646  0.00  0.00    -0.219 NA
BRANCH  36  41
ATOM     41  C   UNL A   1     -24.855  -1.012  30.143  0.00  0.00    +0.044 C 
BRANCH  41  42
ATOM     42  C   UNL A   1     -24.973  -2.505  29.788  0.00  0.00    -0.021 C 
ATOM     43  C   UNL A   1     -23.906  -3.173  29.146  0.00  0.00    -0.004 C 
ATOM     44  C   UNL A   1     -23.989  -4.549  28.853  0.00  0.00    -0.000 C 
ATOM     45  C   UNL A   1     -25.137  -5.280  29.205  0.00  0.00    -0.000 C 
ATOM     46  C   UNL A   1     -26.232  -4.611  29.784  0.00  0.00    -0.000 C 
ATOM     47  C   UNL A   1     -26.155  -3.232  30.065  0.00  0.00    -0.004 C 
ENDBRANCH  41  42
ENDBRANCH  36  41
ENDBRANCH  25  37
ENDBRANCH   1  25
TORSDOF 12
