MODEL 2816
MODEL 1
REMARK VINA RESULT:    -5.844      0.000      0.000
REMARK INTER + INTRA:          -6.611
REMARK INTER:                  -6.186
REMARK INTRA:                  -0.425
REMARK UNBOUND:                -0.425
REMARK  Name = No_2816-gen_results/8p0m/2024-11-27-11-27-31/
REMARK  1 active torsions:
REMARK  status: ('A' for Active; 'I' for Inactive)
REMARK    1  A    between atoms: C_4  and  C_6
REMARK                            x       y       z     vdW  Elec       q    Type
REMARK                         _______ _______ _______ _____ _____    ______ ____
ROOT
ATOM      1  C   UNL A   1     -26.395  -4.510  29.675  0.00  0.00    +0.023 A 
ATOM      2  C   UNL A   1     -27.193  -3.989  30.124  0.00  0.00    +0.059 A 
ATOM      3  C   UNL A   1     -25.237  -3.653  29.215  0.00  0.00    +0.059 A 
ATOM      4  C   UNL A   1     -25.226  -2.278  29.531  0.00  0.00    +0.011 A 
ATOM      5  C   UNL A   1     -27.414  -2.602  30.592  0.00  0.00    +0.011 A 
ATOM      6  C   UNL A   1     -26.334  -1.771  30.204  0.00  0.00    +0.002 A 
ATOM      7 CL   UNL A   1     -28.641  -5.030  30.598  0.00  0.00    -0.082 Cl
ATOM      8 CL   UNL A   1     -23.888  -4.334  28.419  0.00  0.00    -0.082 Cl
ENDROOT
BRANCH   4   9
ATOM      9  C   UNL A   1     -24.171  -1.420  29.143  0.00  0.00    +0.001 A 
ATOM     10  C   UNL A   1     -23.115  -1.240  29.836  0.00  0.00    +0.000 A 
ATOM     11  C   UNL A   1     -21.950  -0.478  29.352  0.00  0.00    +0.000 A 
ATOM     12  C   UNL A   1     -24.784  -0.232  28.433  0.00  0.00    +0.000 A 
ATOM     13  C   UNL A   1     -23.582   0.417  27.598  0.00  0.00    +0.000 A 
ATOM     14  C   UNL A   1     -22.306   0.390  28.253  0.00  0.00    +0.000 A 
ENDBRANCH   4   9
TORSDOF 1
ENDMDL
ENDMDL
