REMARK  Name = No_2816-gen_results/8p0m/2024-11-27-11-27-31/
REMARK  1 active torsions:
REMARK  status: ('A' for Active; 'I' for Inactive)
REMARK    1  A    between atoms: C_4  and  C_6
REMARK                            x       y       z     vdW  Elec       q    Type
REMARK                         _______ _______ _______ _____ _____    ______ ____
ROOT
ATOM      1  C   UNL A   1     -28.016  -0.814  28.878  0.00  0.00    +0.023 A 
ATOM      2  C   UNL A   1     -28.469  -0.785  29.829  0.00  0.00    +0.059 A 
ATOM      3  C   UNL A   1     -26.504  -0.778  28.877  0.00  0.00    +0.059 A 
ATOM      4  C   UNL A   1     -25.810  -0.853  30.103  0.00  0.00    +0.011 A 
ATOM      5  C   UNL A   1     -27.991  -0.892  31.226  0.00  0.00    +0.011 A 
ATOM      6  C   UNL A   1     -26.575  -0.890  31.266  0.00  0.00    +0.002 A 
ATOM      7 CL   UNL A   1     -30.314  -0.735  29.818  0.00  0.00    -0.082 Cl
ATOM      8 CL   UNL A   1     -25.616  -0.763  27.419  0.00  0.00    -0.082 Cl
ENDROOT
BRANCH   4   9
ATOM      9  C   UNL A   1     -24.398  -0.836  30.177  0.00  0.00    +0.001 A 
ATOM     10  C   UNL A   1     -23.636  -0.904  29.156  0.00  0.00    +0.000 A 
ATOM     11  C   UNL A   1     -22.175  -0.719  29.223  0.00  0.00    +0.000 A 
ATOM     12  C   UNL A   1     -23.995  -1.576  31.434  0.00  0.00    +0.000 A 
ATOM     13  C   UNL A   1     -22.495  -1.103  31.731  0.00  0.00    +0.000 A 
ATOM     14  C   UNL A   1     -21.680  -0.909  30.567  0.00  0.00    +0.000 A 
ENDBRANCH   4   9
TORSDOF 1
