MODEL 2817
MODEL 1
REMARK VINA RESULT:    -5.414      0.000      0.000
REMARK INTER + INTRA:          -5.792
REMARK INTER:                  -5.731
REMARK INTRA:                  -0.061
REMARK UNBOUND:                -0.061
REMARK  Name = No_2817-gen_results/8p0m/2024-11-27-11-27-31/
REMARK  1 active torsions:
REMARK  status: ('A' for Active; 'I' for Inactive)
REMARK    1  A    between atoms: C_5  and  C_7
REMARK                            x       y       z     vdW  Elec       q    Type
REMARK                         _______ _______ _______ _____ _____    ______ ____
ROOT
ATOM      1  C   UNL A   1     -26.406  -3.810  29.753  0.00  0.00    +0.000 A 
ATOM      2  C   UNL A   1     -25.931  -4.899  29.527  0.00  0.00    +0.000 A 
ATOM      3  C   UNL A   1     -24.692  -5.125  28.951  0.00  0.00    +0.000 A 
ATOM      4  C   UNL A   1     -23.908  -3.979  28.628  0.00  0.00    +0.005 A 
ATOM      5  C   UNL A   1     -24.402  -2.790  29.029  0.00  0.00    +0.055 A 
ATOM      6  C   UNL A   1     -25.575  -2.691  29.659  0.00  0.00    +0.005 A 
ENDROOT
BRANCH   5   7
ATOM      7  C   UNL A   1     -23.680  -1.525  28.883  0.00  0.00    +0.265 C 
ATOM      8  N   UNL A   1     -22.393  -1.533  29.065  0.00  0.00    -0.200 NA
ATOM      9  O   UNL A   1     -24.265  -0.493  28.442  0.00  0.00    -0.268 OA
ATOM     10  C   UNL A   1     -21.596  -0.325  28.866  0.00  0.00    +0.139 C 
ENDBRANCH   5   7
TORSDOF 1
ENDMDL
ENDMDL
