REMARK  Name = outputs/IAG933/test6/raw/output_2818_IAG933_linker_design_.xyz
REMARK  18 active torsions:
REMARK  status: ('A' for Active; 'I' for Inactive)
REMARK    1  A    between atoms: C_1  and  C_2
REMARK    2  A    between atoms: C_1  and  C_8
REMARK    3  A    between atoms: C_1  and  C_31
REMARK    4  A    between atoms: C_13  and  C_43
REMARK    5  A    between atoms: C_14  and  C_15
REMARK    6  A    between atoms: C_21  and  O_22
REMARK    7  A    between atoms: O_22  and  C_23
REMARK    8  A    between atoms: C_23  and  C_24
REMARK    9  A    between atoms: N_28  and  C_39
REMARK   10  A    between atoms: N_28  and  C_40
REMARK   11  A    between atoms: C_29  and  C_36
REMARK   12  A    between atoms: C_31  and  S_33
REMARK   13  A    between atoms: C_31  and  O_35
REMARK   14  A    between atoms: O_32  and  C_36
REMARK   15  A    between atoms: O_32  and  C_37
REMARK   16  A    between atoms: O_35  and  C_38
REMARK   17  A    between atoms: C_37  and  C_40
REMARK   18  A    between atoms: C_39  and  C_41
REMARK                            x       y       z     vdW  Elec       q    Type
REMARK                         _______ _______ _______ _____ _____    ______ ____
ROOT
ATOM      1  C   UNL A   1     -25.114   0.024  29.184  0.00  0.00    +0.211 C 
ENDROOT
BRANCH   1   2
ATOM      2  S   UNL A   1     -23.412   0.261  28.292  0.00  0.00    -0.138 S 
ATOM      3  C   UNL A   1     -22.028   1.555  27.631  0.00  0.00    +0.053 C 
ATOM      4  C   UNL A   1     -23.088   1.973  26.424  0.00  0.00    +0.026 C 
ATOM      5  C   UNL A   1     -24.291   1.171  26.971  0.00  0.00    +0.068 C 
BRANCH   5   6
ATOM      6  C   UNL A   1     -25.688   1.614  26.461  0.00  0.00    +0.025 C 
ATOM      7  C   UNL A   1     -26.250   2.920  26.395  0.00  0.00    +0.073 C 
ATOM      8  C   UNL A   1     -27.438   3.091  25.645  0.00  0.00    +0.106 C 
ATOM      9  N   UNL A   1     -28.075   2.089  25.003  0.00  0.00    -0.208 NA
ATOM     10  C   UNL A   1     -27.543   0.849  25.079  0.00  0.00    +0.253 C 
ATOM     11  C   UNL A   1     -26.354   0.576  25.777  0.00  0.00    +0.190 C 
ATOM     12  F   UNL A   1     -25.860  -0.681  25.795  0.00  0.00    -0.200 F 
BRANCH   7  13
ATOM     13  C   UNL A   1     -25.642   4.093  27.123  0.00  0.00    +0.266 C 
ATOM     14  N   UNL A   1     -25.614   5.252  26.449  0.00  0.00    -0.200 NA
ATOM     15  C   UNL A   1     -25.026   6.479  26.963  0.00  0.00    +0.139 C 
ATOM     16  O   UNL A   1     -25.143   3.966  28.243  0.00  0.00    -0.268 OA
ENDBRANCH   7  13
BRANCH  10  17
ATOM     17  O   UNL A   1     -28.193  -0.208  24.477  0.00  0.00    -0.456 OA
BRANCH  17  18
ATOM     18  C   UNL A   1     -29.460   0.005  23.866  0.00  0.00    +0.243 C 
BRANCH  18  19
ATOM     19  C   UNL A   1     -30.065  -1.377  23.573  0.00  0.00    +0.229 C 
ATOM     20  O   UNL A   1     -30.729  -1.878  24.721  0.00  0.00    -0.216 OA
ENDBRANCH  18  19
ENDBRANCH  17  18
ENDBRANCH  10  17
ENDBRANCH   5   6
ENDBRANCH   1   2
BRANCH   1  21
ATOM     21  C   UNL A   1     -24.855  -1.012  30.143  0.00  0.00    +0.088 C 
BRANCH  21  22
ATOM     22  C   UNL A   1     -24.973  -2.505  29.788  0.00  0.00    -0.017 C 
ATOM     23  C   UNL A   1     -23.906  -3.173  29.146  0.00  0.00    -0.004 C 
ATOM     24  C   UNL A   1     -23.989  -4.549  28.853  0.00  0.00    -0.000 C 
ATOM     25  C   UNL A   1     -25.137  -5.280  29.205  0.00  0.00    -0.000 C 
ATOM     26  C   UNL A   1     -26.232  -4.611  29.784  0.00  0.00    -0.000 C 
ATOM     27  C   UNL A   1     -26.155  -3.232  30.065  0.00  0.00    -0.004 C 
ENDBRANCH  21  22
BRANCH  21  28
ATOM     28  C   UNL A   1     -25.387  -0.679  31.571  0.00  0.00    +0.081 C 
ATOM     29  C   UNL A   1     -25.189   0.773  32.028  0.00  0.00    +0.019 C 
ATOM     30  C   UNL A   1     -25.336   0.684  33.544  0.00  0.00    +0.020 C 
ATOM     31  C   UNL A   1     -24.829  -0.715  33.905  0.00  0.00    +0.089 C 
ATOM     32  N   UNL A   1     -24.758  -1.481  32.646  0.00  0.00    -0.219 NA
ENDBRANCH  21  28
ENDBRANCH   1  21
BRANCH   1  33
ATOM     33  O   UNL A   1     -26.227   0.529  28.766  0.00  0.00    -0.466 OA
BRANCH  33  35
ATOM     34  C   UNL A   1     -28.341  -1.226  29.090  0.00  0.00    +0.046 C 
ATOM     35  C   UNL A   1     -27.591   0.102  29.229  0.00  0.00    +0.171 C 
BRANCH  34  36
ATOM     36  C   UNL A   1     -29.605  -1.553  29.754  0.00  0.00    +0.172 C 
BRANCH  36  37
ATOM     37  O   UNL A   1     -29.581  -2.935  30.291  0.00  0.00    -0.347 OA
BRANCH  37  38
ATOM     38  C   UNL A   1     -30.688  -3.372  31.122  0.00  0.00    +0.161 C 
BRANCH  38  39
ATOM     39  C   UNL A   1     -31.915  -4.329  30.700  0.00  0.00    +0.122 C 
BRANCH  39  40
ATOM     40  N   UNL A   1     -31.843  -4.623  29.357  0.00  0.00    -0.200 NA
BRANCH  40  41
ATOM     41  C   UNL A   1     -32.711  -3.736  28.662  0.00  0.00    +0.194 C 
BRANCH  41  43
ATOM     42  N   UNL A   1     -32.678  -4.034  26.131  0.00  0.00    -0.194 NA
ATOM     43  C   UNL A   1     -32.666  -3.892  27.253  0.00  0.00    +0.092 C 
ENDBRANCH  41  43
ENDBRANCH  40  41
ENDBRANCH  39  40
ENDBRANCH  38  39
ENDBRANCH  37  38
ENDBRANCH  36  37
ENDBRANCH  34  36
ENDBRANCH  33  35
ENDBRANCH   1  33
TORSDOF 18
