MODEL 2818
MODEL 1
REMARK VINA RESULT:    -8.057      0.000      0.000
REMARK INTER + INTRA:         -13.250
REMARK INTER:                 -11.354
REMARK INTRA:                  -1.897
REMARK UNBOUND:                -1.897
REMARK  Name = No_2818-gen_results/8p0m/2024-11-27-11-27-31/
REMARK  7 active torsions:
REMARK  status: ('A' for Active; 'I' for Inactive)
REMARK    1  A    between atoms: C_2  and  C_16
REMARK    2  A    between atoms: C_4  and  C_5
REMARK    3  A    between atoms: C_5  and  C_8
REMARK    4  A    between atoms: C_8  and  C_9
REMARK    5  A    between atoms: C_8  and  C_15
REMARK    6  A    between atoms: C_15  and  N_20
REMARK    7  A    between atoms: C_23  and  N_25
REMARK                            x       y       z     vdW  Elec       q    Type
REMARK                         _______ _______ _______ _____ _____    ______ ____
ROOT
ATOM      1  C   UNL A   1     -23.155  -0.826  29.153  0.00  0.00    +0.046 C 
ENDROOT
BRANCH   1   2
ATOM      2  C   UNL A   1     -23.407   0.017  28.099  0.00  0.00    -0.020 A 
ATOM      3  C   UNL A   1     -24.427   0.006  27.299  0.00  0.00    +0.007 A 
ATOM      4  C   UNL A   1     -24.518   0.911  26.202  0.00  0.00    +0.057 A 
ATOM      5  C   UNL A   1     -23.509   1.899  26.092  0.00  0.00    +0.011 A 
ATOM      6  C   UNL A   1     -22.470   1.132  27.775  0.00  0.00    -0.004 A 
ATOM      7  C   UNL A   1     -22.513   2.020  26.910  0.00  0.00    +0.001 A 
ATOM      8 CL   UNL A   1     -25.854   0.857  25.158  0.00  0.00    -0.082 Cl
ENDBRANCH   1   2
BRANCH   1   9
ATOM      9  C   UNL A   1     -22.477  -0.416  30.337  0.00  0.00    +0.032 C 
BRANCH   9  13
ATOM     10  C   UNL A   1     -24.007  -1.167  33.787  0.00  0.00    +0.006 A 
ATOM     11  C   UNL A   1     -24.823  -0.503  33.721  0.00  0.00    +0.080 A 
ATOM     12  C   UNL A   1     -23.130  -1.251  32.608  0.00  0.00    -0.004 A 
ATOM     13  C   UNL A   1     -23.312  -0.368  31.504  0.00  0.00    -0.022 A 
ATOM     14  C   UNL A   1     -25.213   0.565  32.778  0.00  0.00    +0.006 A 
ATOM     15  C   UNL A   1     -24.363   0.588  31.622  0.00  0.00    -0.004 A 
BRANCH  11  16
ATOM     16  C   UNL A   1     -25.825  -0.429  34.996  0.00  0.00    +0.388 C 
ATOM     17  O   UNL A   1     -25.547  -1.178  35.983  0.00  0.00    -0.241 OA
ATOM     18  O   UNL A   1     -26.716   0.393  34.977  0.00  0.00    -0.241 OA
ENDBRANCH  11  16
ENDBRANCH   9  13
ENDBRANCH   1   9
BRANCH   1  19
ATOM     19  C   UNL A   1     -23.429  -2.291  28.948  0.00  0.00    +0.096 C 
BRANCH  19  20
ATOM     20  N   UNL A   1     -24.438  -3.020  29.345  0.00  0.00    -0.305 N 
ATOM     21  C   UNL A   1     -24.709  -4.311  29.258  0.00  0.00    +0.058 C 
ATOM     22  C   UNL A   1     -26.039  -4.804  29.545  0.00  0.00    +0.007 C 
ATOM     23  C   UNL A   1     -26.798  -3.724  29.968  0.00  0.00    +0.101 C 
ATOM     24  C   UNL A   1     -25.789  -2.507  29.681  0.00  0.00    +0.111 C 
BRANCH  23  25
ATOM     25  N   UNL A   1     -27.995  -3.565  30.371  0.00  0.00    -0.269 NA
ATOM     26  C   UNL A   1     -28.521  -2.458  30.659  0.00  0.00    +0.072 C 
ATOM     27  C   UNL A   1     -28.770  -4.763  30.438  0.00  0.00    +0.072 C 
ATOM     28  C   UNL A   1     -30.039  -4.638  30.262  0.00  0.00    +0.017 C 
ATOM     29  C   UNL A   1     -29.921  -2.226  30.654  0.00  0.00    +0.017 C 
ATOM     30  C   UNL A   1     -30.742  -3.418  30.698  0.00  0.00    +0.003 C 
ENDBRANCH  23  25
ENDBRANCH  19  20
ENDBRANCH   1  19
TORSDOF 7
ENDMDL
ENDMDL
