MODEL 2819
MODEL 1
REMARK VINA RESULT:    -5.879      0.000      0.000
REMARK INTER + INTRA:          -7.670
REMARK INTER:                  -7.598
REMARK INTRA:                  -0.072
REMARK UNBOUND:                -0.072
REMARK  Name = No_2819-gen_results/8p0m/2024-11-27-11-27-31/
REMARK  5 active torsions:
REMARK  status: ('A' for Active; 'I' for Inactive)
REMARK    1  A    between atoms: C_2  and  C_3
REMARK    2  A    between atoms: C_2  and  N_4
REMARK    3  A    between atoms: C_3  and  C_5
REMARK    4  A    between atoms: C_8  and  C_13
REMARK    5  A    between atoms: C_11  and  C_12
REMARK                            x       y       z     vdW  Elec       q    Type
REMARK                         _______ _______ _______ _____ _____    ______ ____
ROOT
ATOM      1  C   UNL A   1     -22.556  -0.362  29.966  0.00  0.00    +0.114 C 
ENDROOT
BRANCH   1   2
ATOM      2  C   UNL A   1     -23.472  -1.356  29.905  0.00  0.00    -0.013 A 
ATOM      3  C   UNL A   1     -23.396  -2.372  29.084  0.00  0.00    -0.004 A 
ATOM      4  C   UNL A   1     -24.494  -3.377  28.970  0.00  0.00    -0.003 A 
ATOM      5  C   UNL A   1     -25.656  -3.213  29.791  0.00  0.00    -0.003 A 
ATOM      6  C   UNL A   1     -25.711  -2.121  30.630  0.00  0.00    -0.003 A 
ATOM      7  C   UNL A   1     -24.680  -1.204  30.717  0.00  0.00    -0.004 A 
BRANCH   5   8
ATOM      8  C   UNL A   1     -26.734  -4.189  29.718  0.00  0.00    +0.136 C 
ATOM      9  N   UNL A   1     -27.928  -3.828  30.189  0.00  0.00    -0.126 NA
ENDBRANCH   5   8
ENDBRANCH   1   2
BRANCH   1  11
ATOM     10  O   UNL A   1     -20.763  -0.940  28.893  0.00  0.00    -0.273 OA
ATOM     11  C   UNL A   1     -21.634  -0.194  28.932  0.00  0.00    +0.250 C 
BRANCH  11  12
ATOM     12  N   UNL A   1     -21.995   0.570  27.904  0.00  0.00    -0.178 NA
ATOM     13  C   UNL A   1     -22.773   1.348  27.701  0.00  0.00    +0.088 C 
BRANCH  13  14
ATOM     14  C   UNL A   1     -23.030   2.125  26.521  0.00  0.00    +0.013 C 
ATOM     15  C   UNL A   1     -24.074   1.625  25.787  0.00  0.00    -0.024 C 
ATOM     16  C   UNL A   1     -24.749   0.507  26.104  0.00  0.00    +0.031 C 
ENDBRANCH  13  14
ENDBRANCH  11  12
ENDBRANCH   1  11
TORSDOF 5
ENDMDL
ENDMDL
