MODEL 281
MODEL 1
REMARK VINA RESULT:    -5.589      0.000      0.000
REMARK INTER + INTRA:          -7.318
REMARK INTER:                  -6.896
REMARK INTRA:                  -0.422
REMARK UNBOUND:                -0.422
REMARK  Name = No_281-gen_results/8p0m/2024-11-27-11-27-31/
REMARK  4 active torsions:
REMARK  status: ('A' for Active; 'I' for Inactive)
REMARK    1  A    between atoms: C_1  and  C_2
REMARK    2  A    between atoms: C_1  and  C_3
REMARK    3  A    between atoms: C_8  and  C_9
REMARK    4  A    between atoms: C_9  and  C_13
REMARK                            x       y       z     vdW  Elec       q    Type
REMARK                         _______ _______ _______ _____ _____    ______ ____
ROOT
ATOM      1  C   UNL A   1     -23.053   0.332  28.789  0.00  0.00    +0.068 A 
ATOM      2  N   UNL A   1     -23.772  -0.802  28.324  0.00  0.00    -0.253 NA
ATOM      3  C   UNL A   1     -24.197  -1.697  29.121  0.00  0.00    +0.063 A 
ATOM      4  C   UNL A   1     -23.922  -1.708  30.608  0.00  0.00    +0.015 A 
ATOM      5  C   UNL A   1     -23.182  -0.646  31.145  0.00  0.00    +0.002 A 
ATOM      6  C   UNL A   1     -22.649   0.340  30.281  0.00  0.00    +0.015 A 
ENDROOT
BRANCH   1   7
ATOM      7  C   UNL A   1     -22.599   0.973  28.087  0.00  0.00    +0.132 C 
BRANCH   7   8
ATOM      8  C   UNL A   1     -23.503   2.008  27.569  0.00  0.00    +0.247 C 
ATOM      9  O   UNL A   1     -24.128   2.624  28.455  0.00  0.00    -0.273 OA
ATOM     10  N   UNL A   1     -23.520   2.420  26.328  0.00  0.00    -0.203 NA
ATOM     11  C   UNL A   1     -24.272   3.441  25.846  0.00  0.00    +0.139 C 
ENDBRANCH   7   8
ENDBRANCH   1   7
BRANCH   3  12
ATOM     12  C   UNL A   1     -24.906  -2.808  28.647  0.00  0.00    +0.071 C 
BRANCH  12  13
ATOM     13  C   UNL A   1     -25.787  -3.360  29.337  0.00  0.00    -0.024 C 
ATOM     14  C   UNL A   1     -25.805  -4.823  29.586  0.00  0.00    -0.030 C 
ATOM     15  C   UNL A   1     -24.795  -5.510  28.926  0.00  0.00    +0.030 C 
ENDBRANCH  12  13
ENDBRANCH   3  12
TORSDOF 4
ENDMDL
ENDMDL
