MODEL 2820
MODEL 1
REMARK VINA RESULT:    -6.309      0.000      0.000
REMARK INTER + INTRA:          -7.105
REMARK INTER:                  -6.678
REMARK INTRA:                  -0.427
REMARK UNBOUND:                -0.427
REMARK  Name = No_2820-gen_results/8p0m/2024-11-27-11-27-31/
REMARK  1 active torsions:
REMARK  status: ('A' for Active; 'I' for Inactive)
REMARK    1  A    between atoms: C_2  and  C_7
REMARK                            x       y       z     vdW  Elec       q    Type
REMARK                         _______ _______ _______ _____ _____    ______ ____
ROOT
ATOM      1  C   UNL A   1     -23.831  -3.406  28.721  0.00  0.00    +0.000 A 
ATOM      2  C   UNL A   1     -24.579  -2.675  29.329  0.00  0.00    +0.000 A 
ATOM      3  C   UNL A   1     -25.765  -3.072  29.856  0.00  0.00    +0.000 A 
ATOM      4  C   UNL A   1     -26.155  -4.414  29.689  0.00  0.00    +0.000 A 
ATOM      5  C   UNL A   1     -24.121  -4.811  28.594  0.00  0.00    +0.000 A 
ATOM      6  C   UNL A   1     -25.314  -5.255  29.081  0.00  0.00    +0.000 A 
ENDROOT
BRANCH   2   7
ATOM      7  C   UNL A   1     -24.260  -1.210  29.594  0.00  0.00    +0.000 A 
ATOM      8  C   UNL A   1     -22.957  -0.847  29.952  0.00  0.00    +0.000 A 
ATOM      9  C   UNL A   1     -24.659  -0.232  28.454  0.00  0.00    +0.000 A 
ATOM     10  C   UNL A   1     -23.810   0.322  27.572  0.00  0.00    +0.000 A 
ATOM     11  C   UNL A   1     -22.472   0.649  28.047  0.00  0.00    +0.000 A 
ATOM     12  C   UNL A   1     -22.041  -0.120  29.154  0.00  0.00    +0.000 A 
ENDBRANCH   2   7
TORSDOF 1
ENDMDL
ENDMDL
