MODEL 2821
MODEL 1
REMARK VINA RESULT:    -6.584      0.000      0.000
REMARK INTER + INTRA:          -7.760
REMARK INTER:                  -7.354
REMARK INTRA:                  -0.406
REMARK UNBOUND:                -0.406
REMARK  Name = No_2821-gen_results/8p0m/2024-11-27-11-27-31/
REMARK  2 active torsions:
REMARK  status: ('A' for Active; 'I' for Inactive)
REMARK    1  A    between atoms: C_10  and  C_14
REMARK    2  A    between atoms: C_14  and  C_17
REMARK                            x       y       z     vdW  Elec       q    Type
REMARK                         _______ _______ _______ _____ _____    ______ ____
ROOT
ATOM      1  C   UNL A   1     -26.028  -2.266  30.181  0.00  0.00    -0.003 A 
ATOM      2  C   UNL A   1     -26.847  -1.619  30.323  0.00  0.00    +0.118 C 
ATOM      3  C   UNL A   1     -26.417  -3.621  29.770  0.00  0.00    +0.041 A 
ATOM      4  C   UNL A   1     -25.403  -4.600  29.333  0.00  0.00    +0.003 A 
ATOM      5  C   UNL A   1     -24.242  -4.104  28.697  0.00  0.00    -0.000 A 
ATOM      6  C   UNL A   1     -24.002  -2.690  28.721  0.00  0.00    -0.004 A 
ATOM      7  C   UNL A   1     -24.880  -1.854  29.276  0.00  0.00    -0.025 A 
ATOM      8  N   UNL A   1     -27.981  -1.815  30.870  0.00  0.00    -0.196 NA
ATOM      9  C   UNL A   1     -26.433  -0.028  30.575  0.00  0.00    +0.026 C 
ATOM     10  C   UNL A   1     -24.447  -0.475  29.287  0.00  0.00    +0.028 C 
ATOM     11  C   UNL A   1     -25.294   0.419  29.977  0.00  0.00    +0.007 C 
ATOM     12  C   UNL A   1     -28.471  -2.803  31.108  0.00  0.00    +0.304 C 
ATOM     13  C   UNL A   1     -27.578  -4.100  30.460  0.00  0.00    +0.250 C 
ATOM     14  O   UNL A   1     -29.602  -3.239  31.509  0.00  0.00    -0.265 OA
ATOM     15  O   UNL A   1     -28.022  -5.275  30.499  0.00  0.00    -0.282 OA
ENDROOT
BRANCH  10  16
ATOM     16  C   UNL A   1     -23.214  -0.012  28.752  0.00  0.00    +0.071 C 
ATOM     17  C   UNL A   1     -23.067   0.695  27.580  0.00  0.00    +0.006 C 
BRANCH  16  18
ATOM     18  C   UNL A   1     -22.062  -0.197  29.644  0.00  0.00    +0.319 C 
ATOM     19  F   UNL A   1     -21.196  -1.002  29.217  0.00  0.00    -0.198 F 
ATOM     20  F   UNL A   1     -22.388  -0.728  30.798  0.00  0.00    -0.198 F 
ENDBRANCH  16  18
ENDBRANCH  10  16
TORSDOF 2
ENDMDL
ENDMDL
