REMARK  Name = No_2821-gen_results/8p0m/2024-11-27-11-27-31/
REMARK  2 active torsions:
REMARK  status: ('A' for Active; 'I' for Inactive)
REMARK    1  A    between atoms: C_10  and  C_14
REMARK    2  A    between atoms: C_14  and  C_17
REMARK                            x       y       z     vdW  Elec       q    Type
REMARK                         _______ _______ _______ _____ _____    ______ ____
ROOT
ATOM      1  C   UNL A   1     -28.016  -0.814  28.878  0.00  0.00    -0.003 A 
ATOM      2  C   UNL A   1     -28.469  -0.785  29.829  0.00  0.00    +0.118 C 
ATOM      3  C   UNL A   1     -28.182   0.428  28.113  0.00  0.00    +0.041 A 
ATOM      4  C   UNL A   1     -27.450   0.643  26.850  0.00  0.00    +0.003 A 
ATOM      5  C   UNL A   1     -26.181   0.036  26.715  0.00  0.00    -0.000 A 
ATOM      6  C   UNL A   1     -25.780  -0.933  27.694  0.00  0.00    -0.004 A 
ATOM      7  C   UNL A   1     -26.557  -1.213  28.741  0.00  0.00    -0.025 A 
ATOM      8  N   UNL A   1     -29.592  -0.315  30.205  0.00  0.00    -0.196 NA
ATOM      9  C   UNL A   1     -28.114  -2.087  30.801  0.00  0.00    +0.026 C 
ATOM     10  C   UNL A   1     -26.042  -2.267  29.585  0.00  0.00    +0.028 C 
ATOM     11  C   UNL A   1     -26.898  -2.675  30.632  0.00  0.00    +0.007 C 
ATOM     12  C   UNL A   1     -30.259   0.407  29.651  0.00  0.00    +0.304 C 
ATOM     13  C   UNL A   1     -29.491   0.995  28.250  0.00  0.00    +0.250 C 
ATOM     14  O   UNL A   1     -31.312   1.095  29.866  0.00  0.00    -0.265 OA
ATOM     15  O   UNL A   1     -30.011   1.911  27.563  0.00  0.00    -0.282 OA
ENDROOT
BRANCH  10  16
ATOM     16  C   UNL A   1     -24.819  -2.955  29.361  0.00  0.00    +0.071 C 
ATOM     17  C   UNL A   1     -24.691  -4.169  28.724  0.00  0.00    +0.006 C 
BRANCH  16  18
ATOM     18  C   UNL A   1     -23.620  -2.187  29.719  0.00  0.00    +0.319 C 
ATOM     19  F   UNL A   1     -22.605  -2.451  29.027  0.00  0.00    -0.198 F 
ATOM     20  F   UNL A   1     -23.197  -2.435  30.936  0.00  0.00    -0.198 F 
ENDBRANCH  16  18
ENDBRANCH  10  16
TORSDOF 2
