MODEL 2823
MODEL 1
REMARK VINA RESULT:    -5.332      0.000      0.000
REMARK INTER + INTRA:          -5.790
REMARK INTER:                  -5.643
REMARK INTRA:                  -0.147
REMARK UNBOUND:                -0.147
REMARK  Name = No_2823-gen_results/8p0m/2024-11-27-11-27-31/
REMARK  1 active torsions:
REMARK  status: ('A' for Active; 'I' for Inactive)
REMARK    1  A    between atoms: C_3  and  C_7
REMARK                            x       y       z     vdW  Elec       q    Type
REMARK                         _______ _______ _______ _____ _____    ______ ____
ROOT
ATOM      1  C   UNL A   1     -25.578  -2.653  29.828  0.00  0.00    -0.000 A 
ATOM      2  C   UNL A   1     -26.281  -3.434  29.907  0.00  0.00    -0.000 A 
ATOM      3  C   UNL A   1     -24.350  -2.972  29.157  0.00  0.00    -0.000 A 
ATOM      4  C   UNL A   1     -24.019  -4.214  28.792  0.00  0.00    -0.000 A 
ATOM      5  C   UNL A   1     -24.963  -5.180  29.002  0.00  0.00    -0.000 A 
ATOM      6  C   UNL A   1     -26.157  -4.839  29.580  0.00  0.00    -0.000 A 
ENDROOT
BRANCH   3   7
ATOM      7  C   UNL A   1     -23.349  -1.825  28.932  0.00  0.00    -0.005 C 
ATOM      8  C   UNL A   1     -22.629  -1.150  29.473  0.00  0.00    -0.026 C 
ATOM      9  C   UNL A   1     -21.795  -0.109  28.993  0.00  0.00    +0.031 C 
ENDBRANCH   3   7
TORSDOF 1
ENDMDL
ENDMDL
