MODEL 2824
MODEL 1
REMARK VINA RESULT:    -6.388      0.000      0.000
REMARK INTER + INTRA:          -6.836
REMARK INTER:                  -6.762
REMARK INTRA:                  -0.074
REMARK UNBOUND:                -0.074
REMARK  Name = No_2824-gen_results/8p0m/2024-11-27-11-27-31/
REMARK  1 active torsions:
REMARK  status: ('A' for Active; 'I' for Inactive)
REMARK    1  A    between atoms: C_9  and  C_11
REMARK                            x       y       z     vdW  Elec       q    Type
REMARK                         _______ _______ _______ _____ _____    ______ ____
ROOT
ATOM      1  C   UNL A   1     -30.658  -9.859  29.646  0.00  0.00    +0.000 A 
ATOM      2  C   UNL A   1     -30.535 -10.181  28.651  0.00  0.00    +0.000 A 
ATOM      3  C   UNL A   1     -29.965 -10.561  30.657  0.00  0.00    +0.000 A 
ATOM      4  C   UNL A   1     -29.942 -10.170  32.091  0.00  0.00    +0.000 A 
ATOM      5  C   UNL A   1     -29.751 -11.290  28.078  0.00  0.00    +0.000 A 
ATOM      6  C   UNL A   1     -29.039 -12.031  29.021  0.00  0.00    +0.000 A 
ATOM      7  C   UNL A   1     -29.087 -11.662  30.327  0.00  0.00    +0.000 A 
ATOM      8  C   UNL A   1     -29.228 -10.317  32.958  0.00  0.00    +0.007 A 
ATOM      9  C   UNL A   1     -28.103 -11.316  32.630  0.00  0.00    +0.080 A 
ATOM     10  C   UNL A   1     -28.070 -11.951  31.366  0.00  0.00    +0.007 A 
ENDROOT
BRANCH   9  11
ATOM     11  C   UNL A   1     -27.156 -11.715  33.746  0.00  0.00    +0.388 C 
ATOM     12  O   UNL A   1     -26.710 -12.744  33.773  0.00  0.00    -0.241 OA
ATOM     13  O   UNL A   1     -26.913 -10.846  34.645  0.00  0.00    -0.241 OA
ENDBRANCH   9  11
TORSDOF 1
ENDMDL
ENDMDL
