MODEL 2825
MODEL 1
REMARK VINA RESULT:    -4.292      0.000      0.000
REMARK INTER + INTRA:          -4.292
REMARK INTER:                  -4.292
REMARK INTRA:                   0.000
REMARK UNBOUND:                 0.000
REMARK  Name = No_2825-gen_results/8p0m/2024-11-27-11-27-31/
REMARK  0 active torsions:
REMARK  status: ('A' for Active; 'I' for Inactive)
REMARK                            x       y       z     vdW  Elec       q    Type
REMARK                         _______ _______ _______ _____ _____    ______ ____
ROOT
ATOM      1  C   UNL A   1     -24.986  -5.410  29.004  0.00  0.00    +0.000 A 
ATOM      2  C   UNL A   1     -24.214  -4.745  28.737  0.00  0.00    +0.000 A 
ATOM      3  C   UNL A   1     -26.129  -4.755  29.640  0.00  0.00    +0.000 A 
ATOM      4  C   UNL A   1     -26.175  -3.397  29.838  0.00  0.00    +0.000 A 
ATOM      5  C   UNL A   1     -23.993  -3.301  28.817  0.00  0.00    +0.000 A 
ATOM      6  C   UNL A   1     -25.094  -2.657  29.431  0.00  0.00    +0.000 A 
ENDROOT
TORSDOF 0
ENDMDL
ENDMDL
