MODEL 2826
MODEL 1
REMARK VINA RESULT:    -4.262      0.000      0.000
REMARK INTER + INTRA:          -4.262
REMARK INTER:                  -4.262
REMARK INTRA:                   0.000
REMARK UNBOUND:                 0.000
REMARK  Name = No_2826-gen_results/8p0m/2024-11-27-11-27-31/
REMARK  0 active torsions:
REMARK  status: ('A' for Active; 'I' for Inactive)
REMARK                            x       y       z     vdW  Elec       q    Type
REMARK                         _______ _______ _______ _____ _____    ______ ____
ROOT
ATOM      1  C   UNL A   1     -25.156  -5.382  29.095  0.00  0.00    +0.000 A 
ATOM      2  C   UNL A   1     -26.093  -4.773  29.557  0.00  0.00    +0.000 A 
ATOM      3  C   UNL A   1     -26.079  -3.411  29.790  0.00  0.00    +0.000 A 
ATOM      4  C   UNL A   1     -24.910  -2.685  29.427  0.00  0.00    +0.000 A 
ATOM      5  C   UNL A   1     -23.960  -3.380  28.759  0.00  0.00    +0.000 A 
ATOM      6  C   UNL A   1     -24.076  -4.676  28.544  0.00  0.00    +0.000 A 
ENDROOT
TORSDOF 0
ENDMDL
ENDMDL
