REMARK  Name = outputs/IAG933/test6/raw/output_2827_IAG933_linker_design_.xyz
REMARK  13 active torsions:
REMARK  status: ('A' for Active; 'I' for Inactive)
REMARK    1  A    between atoms: C_1  and  C_2
REMARK    2  A    between atoms: C_1  and  C_8
REMARK    3  A    between atoms: C_1  and  C_38
REMARK    4  A    between atoms: C_13  and  O_28
REMARK    5  A    between atoms: C_14  and  C_15
REMARK    6  A    between atoms: C_21  and  O_22
REMARK    7  A    between atoms: O_22  and  C_23
REMARK    8  A    between atoms: C_23  and  C_24
REMARK    9  A    between atoms: O_28  and  C_41
REMARK   10  A    between atoms: C_29  and  C_34
REMARK   11  A    between atoms: C_29  and  C_39
REMARK   12  A    between atoms: C_33  and  C_38
REMARK   13  A    between atoms: N_37  and  C_38
REMARK                            x       y       z     vdW  Elec       q    Type
REMARK                         _______ _______ _______ _____ _____    ______ ____
ROOT
ATOM      1  C   UNL A   1     -21.113   1.458  27.769  0.00  0.00    +0.003 C 
ATOM      2  C   UNL A   1     -21.277   0.519  28.781  0.00  0.00    -0.000 C 
ATOM      3  C   UNL A   1     -23.666   0.429  28.473  0.00  0.00    +0.032 C 
ATOM      4  C   UNL A   1     -22.519   0.035  29.135  0.00  0.00    +0.000 C 
ATOM      5  C   UNL A   1     -23.464   1.307  27.410  0.00  0.00    +0.137 C 
ATOM      6  C   UNL A   1     -22.240   1.850  27.063  0.00  0.00    +0.037 C 
ENDROOT
BRANCH   5   7
ATOM      7  O   UNL A   1     -24.364   1.675  26.587  0.00  0.00    -0.471 OA
BRANCH   7   8
ATOM      8  C   UNL A   1     -25.688   1.614  26.461  0.00  0.00    +0.235 C 
ATOM      9  C   UNL A   1     -26.250   2.920  26.395  0.00  0.00    +0.095 C 
ATOM     10  C   UNL A   1     -27.438   3.091  25.645  0.00  0.00    +0.106 C 
ATOM     11  N   UNL A   1     -28.075   2.089  25.003  0.00  0.00    -0.212 NA
ATOM     12  C   UNL A   1     -27.543   0.849  25.079  0.00  0.00    +0.238 C 
ATOM     13  C   UNL A   1     -26.354   0.576  25.777  0.00  0.00    +0.280 C 
ATOM     14  F   UNL A   1     -25.860  -0.681  25.795  0.00  0.00    -0.223 F 
BRANCH   9  15
ATOM     15  C   UNL A   1     -25.642   4.093  27.123  0.00  0.00    +0.266 C 
ATOM     16  N   UNL A   1     -25.614   5.252  26.449  0.00  0.00    -0.200 NA
ATOM     17  C   UNL A   1     -25.026   6.479  26.963  0.00  0.00    +0.139 C 
ATOM     18  O   UNL A   1     -25.143   3.966  28.243  0.00  0.00    -0.269 OA
ENDBRANCH   9  15
BRANCH  12  19
ATOM     19  O   UNL A   1     -28.193  -0.208  24.477  0.00  0.00    -0.458 OA
BRANCH  19  20
ATOM     20  C   UNL A   1     -29.460   0.005  23.866  0.00  0.00    +0.242 C 
BRANCH  20  21
ATOM     21  C   UNL A   1     -30.065  -1.377  23.573  0.00  0.00    +0.229 C 
ATOM     22  O   UNL A   1     -30.729  -1.878  24.721  0.00  0.00    -0.216 OA
ENDBRANCH  20  21
ENDBRANCH  19  20
ENDBRANCH  12  19
ENDBRANCH   7   8
ENDBRANCH   5   7
BRANCH   3  23
ATOM     23  C   UNL A   1     -24.996  -0.147  28.858  0.00  0.00    +0.126 C 
BRANCH  23  26
ATOM     24  C   UNL A   1     -27.428   0.329  28.946  0.00  0.00    +0.242 C 
ATOM     25  O   UNL A   1     -27.636  -0.841  28.671  0.00  0.00    -0.273 OA
ATOM     26  N   UNL A   1     -26.079   0.853  28.882  0.00  0.00    -0.202 NA
BRANCH  24  27
ATOM     27  C   UNL A   1     -28.845   0.965  29.183  0.00  0.00    +0.087 C 
BRANCH  27  29
ATOM     28  C   UNL A   1     -30.803   2.198  29.183  0.00  0.00    +0.001 C 
ATOM     29  C   UNL A   1     -29.099   2.381  29.149  0.00  0.00    +0.009 C 
ATOM     30  C   UNL A   1     -27.869   3.049  29.884  0.00  0.00    +0.001 C 
ATOM     31  C   UNL A   1     -29.195   3.592  28.334  0.00  0.00    +0.001 C 
ENDBRANCH  27  29
ENDBRANCH  24  27
ENDBRANCH  23  26
BRANCH  23  32
ATOM     32  C   UNL A   1     -24.855  -1.012  30.143  0.00  0.00    +0.063 C 
BRANCH  32  33
ATOM     33  C   UNL A   1     -24.973  -2.505  29.788  0.00  0.00    -0.019 C 
ATOM     34  C   UNL A   1     -23.906  -3.173  29.146  0.00  0.00    -0.004 C 
ATOM     35  C   UNL A   1     -23.989  -4.549  28.853  0.00  0.00    -0.000 C 
ATOM     36  C   UNL A   1     -25.137  -5.280  29.205  0.00  0.00    -0.000 C 
ATOM     37  C   UNL A   1     -26.232  -4.611  29.784  0.00  0.00    -0.000 C 
ATOM     38  C   UNL A   1     -26.155  -3.232  30.065  0.00  0.00    -0.004 C 
ENDBRANCH  32  33
BRANCH  32  39
ATOM     39  C   UNL A   1     -25.387  -0.679  31.571  0.00  0.00    +0.079 C 
ATOM     40  C   UNL A   1     -25.189   0.773  32.028  0.00  0.00    +0.019 C 
ATOM     41  C   UNL A   1     -25.336   0.684  33.544  0.00  0.00    +0.020 C 
ATOM     42  C   UNL A   1     -24.829  -0.715  33.905  0.00  0.00    +0.089 C 
ATOM     43  N   UNL A   1     -24.758  -1.481  32.646  0.00  0.00    -0.219 NA
ENDBRANCH  32  39
ENDBRANCH  23  32
ENDBRANCH   3  23
TORSDOF 13
