MODEL 2828
MODEL 1
REMARK VINA RESULT:    -7.336      0.000      0.000
REMARK INTER + INTRA:         -10.338
REMARK INTER:                  -9.051
REMARK INTRA:                  -1.287
REMARK UNBOUND:                -1.287
REMARK  Name = No_2828-gen_results/8p0m/2024-11-27-11-27-31/
REMARK  4 active torsions:
REMARK  status: ('A' for Active; 'I' for Inactive)
REMARK    1  A    between atoms: C_2  and  C_7
REMARK    2  A    between atoms: C_7  and  C_8
REMARK    3  A    between atoms: C_12  and  C_13
REMARK    4  A    between atoms: C_13  and  C_14
REMARK                            x       y       z     vdW  Elec       q    Type
REMARK                         _______ _______ _______ _____ _____    ______ ____
ROOT
ATOM      1  C   UNL A   1     -23.024   1.252  27.719  0.00  0.00    -0.029 C 
ATOM      2  C   UNL A   1     -21.933   1.494  27.625  0.00  0.00    -0.008 C 
ATOM      3  C   UNL A   1     -20.796   0.672  28.142  0.00  0.00    -0.004 C 
ATOM      4  C   UNL A   1     -21.191  -0.437  28.872  0.00  0.00    -0.015 C 
ATOM      5  C   UNL A   1     -23.102  -0.081  28.608  0.00  0.00    +0.102 C 
ENDROOT
BRANCH   5   6
ATOM      6  C   UNL A   1     -23.718  -0.420  29.667  0.00  0.00    +0.180 C 
ATOM      7  O   UNL A   1     -23.887   0.200  30.724  0.00  0.00    -0.291 OA
BRANCH   6   8
ATOM      8  C   UNL A   1     -24.441  -1.646  29.514  0.00  0.00    +0.035 A 
ATOM      9  C   UNL A   1     -25.689  -1.873  30.168  0.00  0.00    +0.003 A 
ATOM     10  C   UNL A   1     -26.234  -3.147  30.030  0.00  0.00    +0.000 A 
ATOM     11  C   UNL A   1     -25.600  -4.205  29.303  0.00  0.00    +0.000 A 
ATOM     12  C   UNL A   1     -24.361  -3.956  28.783  0.00  0.00    +0.000 A 
ATOM     13  C   UNL A   1     -23.712  -2.765  28.960  0.00  0.00    +0.003 A 
ENDBRANCH   6   8
ENDBRANCH   5   6
BRANCH   1  14
ATOM     14  C   UNL A   1     -24.262   1.942  27.352  0.00  0.00    +0.049 C 
BRANCH  14  16
ATOM     15  C   UNL A   1     -24.657   0.652  25.369  0.00  0.00    -0.004 A 
ATOM     16  C   UNL A   1     -25.159   1.197  26.324  0.00  0.00    -0.018 A 
ATOM     17  C   UNL A   1     -26.421   1.253  26.641  0.00  0.00    -0.004 A 
ATOM     18  C   UNL A   1     -27.360   0.617  25.774  0.00  0.00    -0.000 A 
ATOM     19  C   UNL A   1     -25.535  -0.114  24.504  0.00  0.00    -0.000 A 
ATOM     20  C   UNL A   1     -26.846  -0.094  24.747  0.00  0.00    -0.000 A 
ENDBRANCH  14  16
ENDBRANCH   1  14
TORSDOF 4
ENDMDL
ENDMDL
