MODEL 2829
MODEL 1
REMARK VINA RESULT:    -6.732      0.000      0.000
REMARK INTER + INTRA:          -7.217
REMARK INTER:                  -7.125
REMARK INTRA:                  -0.092
REMARK UNBOUND:                -0.092
REMARK  Name = No_2829-gen_results/8p0m/2024-11-27-11-27-31/
REMARK  1 active torsions:
REMARK  status: ('A' for Active; 'I' for Inactive)
REMARK    1  A    between atoms: C_2  and  C_5
REMARK                            x       y       z     vdW  Elec       q    Type
REMARK                         _______ _______ _______ _____ _____    ______ ____
ROOT
ATOM      1  C   UNL A   1     -25.207   1.475  28.885  0.00  0.00    +0.009 A 
ATOM      2  C   UNL A   1     -24.659   1.956  28.124  0.00  0.00    +0.080 A 
ATOM      3  C   UNL A   1     -24.738   0.140  29.291  0.00  0.00    +0.035 A 
ATOM      4  C   UNL A   1     -23.522  -0.390  28.770  0.00  0.00    -0.015 A 
ATOM      5  C   UNL A   1     -22.897   0.420  27.845  0.00  0.00    -0.004 A 
ATOM      6  C   UNL A   1     -23.386   1.631  27.493  0.00  0.00    +0.006 A 
ATOM      7  C   UNL A   1     -23.038  -1.691  29.175  0.00  0.00    +0.053 C 
ATOM      8  C   UNL A   1     -23.841  -2.722  29.526  0.00  0.00    -0.015 A 
ATOM      9  C   UNL A   1     -24.178  -3.727  28.773  0.00  0.00    -0.004 A 
ATOM     10  C   UNL A   1     -25.072  -4.786  29.223  0.00  0.00    -0.000 A 
ATOM     11  C   UNL A   1     -26.380  -4.357  29.561  0.00  0.00    +0.000 A 
ATOM     12  C   UNL A   1     -26.428  -3.002  30.065  0.00  0.00    +0.003 A 
ATOM     13  C   UNL A   1     -25.213  -2.152  30.122  0.00  0.00    +0.035 A 
ATOM     14  C   UNL A   1     -25.618  -0.866  29.933  0.00  0.00    +0.195 C 
ATOM     15  O   UNL A   1     -26.499  -0.418  30.742  0.00  0.00    -0.287 OA
ENDROOT
BRANCH   2  16
ATOM     16  C   UNL A   1     -25.104   3.364  27.691  0.00  0.00    +0.388 C 
ATOM     17  O   UNL A   1     -25.399   3.729  26.711  0.00  0.00    -0.241 OA
ATOM     18  O   UNL A   1     -25.393   4.170  28.789  0.00  0.00    -0.241 OA
ENDBRANCH   2  16
TORSDOF 1
ENDMDL
ENDMDL
