REMARK  Name = No_2830-gen_results/8p0m/2024-11-27-11-27-31/
REMARK  2 active torsions:
REMARK  status: ('A' for Active; 'I' for Inactive)
REMARK    1  A    between atoms: N_15  and  C_16
REMARK    2  A    between atoms: C_16  and  C_19
REMARK                            x       y       z     vdW  Elec       q    Type
REMARK                         _______ _______ _______ _____ _____    ______ ____
ROOT
ATOM      1  C   UNL A   1     -28.016  -0.814  28.878  0.00  0.00    +0.052 A 
ATOM      2  C   UNL A   1     -27.064  -0.119  28.608  0.00  0.00    +0.015 A 
ATOM      3  C   UNL A   1     -25.792  -0.430  29.076  0.00  0.00    +0.001 A 
ATOM      4  C   UNL A   1     -25.576  -1.565  29.936  0.00  0.00    -0.000 A 
ATOM      5  C   UNL A   1     -26.735  -2.300  30.217  0.00  0.00    +0.001 A 
ATOM      6  C   UNL A   1     -27.918  -1.954  29.763  0.00  0.00    +0.043 A 
ATOM      7  C   UNL A   1     -29.155  -2.606  30.166  0.00  0.00    +0.262 C 
ATOM      8  N   UNL A   1     -29.581  -2.426  31.409  0.00  0.00    -0.276 N 
ATOM      9  C   UNL A   1     -29.482  -1.372  31.984  0.00  0.00    +0.064 A 
ATOM     10  C   UNL A   1     -29.608  -0.822  32.906  0.00  0.00    +0.016 A 
ATOM     11  C   UNL A   1     -29.400   0.561  33.349  0.00  0.00    +0.001 A 
ATOM     12  C   UNL A   1     -28.811   1.378  32.371  0.00  0.00    +0.001 A 
ATOM     13  C   UNL A   1     -28.494   0.834  31.203  0.00  0.00    +0.016 A 
ATOM     14  C   UNL A   1     -28.725  -0.470  30.972  0.00  0.00    +0.065 A 
ATOM     15  N   UNL A   1     -28.722  -0.744  29.695  0.00  0.00    -0.282 N 
ATOM     16  F   UNL A   1     -28.696  -4.044  30.188  0.00  0.00    -0.210 F 
ATOM     17  C   UNL A   1     -30.237  -3.511  32.252  0.00  0.00    +0.115 C 
ENDROOT
BRANCH  15  18
ATOM     18  C   UNL A   1     -30.118  -0.867  29.151  0.00  0.00    +0.122 C 
BRANCH  18  19
ATOM     19  C   UNL A   1     -30.457   0.342  28.458  0.00  0.00    -0.002 A 
ATOM     20  C   UNL A   1     -31.565   0.706  28.178  0.00  0.00    -0.003 A 
ATOM     21  C   UNL A   1     -31.872   1.703  27.242  0.00  0.00    -0.000 A 
ATOM     22  C   UNL A   1     -30.806   2.457  26.653  0.00  0.00    -0.000 A 
ATOM     23  C   UNL A   1     -29.540   2.063  26.949  0.00  0.00    -0.000 A 
ATOM     24  C   UNL A   1     -29.316   0.996  27.811  0.00  0.00    -0.003 A 
ENDBRANCH  18  19
ENDBRANCH  15  18
TORSDOF 2
