MODEL 2830
MODEL 1
REMARK VINA RESULT:    -7.961      0.000      0.000
REMARK INTER + INTRA:          -9.268
REMARK INTER:                  -8.891
REMARK INTRA:                  -0.376
REMARK UNBOUND:                -0.376
REMARK  Name = No_2830-gen_results/8p0m/2024-11-27-11-27-31/
REMARK  2 active torsions:
REMARK  status: ('A' for Active; 'I' for Inactive)
REMARK    1  A    between atoms: N_15  and  C_16
REMARK    2  A    between atoms: C_16  and  C_19
REMARK                            x       y       z     vdW  Elec       q    Type
REMARK                         _______ _______ _______ _____ _____    ______ ____
ROOT
ATOM      1  C   UNL A   1     -24.949  -1.989  28.676  0.00  0.00    +0.052 A 
ATOM      2  C   UNL A   1     -24.116  -2.807  28.362  0.00  0.00    +0.015 A 
ATOM      3  C   UNL A   1     -24.256  -4.145  28.714  0.00  0.00    +0.001 A 
ATOM      4  C   UNL A   1     -25.375  -4.590  29.503  0.00  0.00    -0.000 A 
ATOM      5  C   UNL A   1     -26.278  -3.574  29.842  0.00  0.00    +0.001 A 
ATOM      6  C   UNL A   1     -26.091  -2.320  29.499  0.00  0.00    +0.043 A 
ATOM      7  C   UNL A   1     -26.927  -1.226  29.969  0.00  0.00    +0.262 C 
ATOM      8  N   UNL A   1     -26.851  -0.885  31.249  0.00  0.00    -0.276 N 
ATOM      9  C   UNL A   1     -25.813  -0.883  31.860  0.00  0.00    +0.064 A 
ATOM     10  C   UNL A   1     -25.317  -0.759  32.813  0.00  0.00    +0.016 A 
ATOM     11  C   UNL A   1     -23.933  -0.807  33.298  0.00  0.00    +0.001 A 
ATOM     12  C   UNL A   1     -23.009  -1.191  32.314  0.00  0.00    +0.001 A 
ATOM     13  C   UNL A   1     -23.463  -1.481  31.102  0.00  0.00    +0.016 A 
ATOM     14  C   UNL A   1     -24.779  -1.418  30.832  0.00  0.00    +0.065 A 
ATOM     15  N   UNL A   1     -25.008  -1.351  29.548  0.00  0.00    -0.282 N 
ATOM     16  F   UNL A   1     -28.284  -1.883  29.891  0.00  0.00    -0.210 F 
ATOM     17  C   UNL A   1     -28.046  -0.462  32.092  0.00  0.00    +0.115 C 
ENDROOT
BRANCH  15  18
ATOM     18  C   UNL A   1     -25.313   0.054  29.111  0.00  0.00    +0.122 C 
BRANCH  18  19
ATOM     19  C   UNL A   1     -24.255   0.519  28.262  0.00  0.00    -0.002 A 
ATOM     20  C   UNL A   1     -23.159   0.852  28.620  0.00  0.00    -0.003 A 
ATOM     21  C   UNL A   1     -22.252   1.592  27.850  0.00  0.00    -0.000 A 
ATOM     22  C   UNL A   1     -22.569   1.877  26.482  0.00  0.00    -0.000 A 
ATOM     23  C   UNL A   1     -23.805   1.514  26.051  0.00  0.00    -0.000 A 
ATOM     24  C   UNL A   1     -24.691   0.871  26.907  0.00  0.00    -0.003 A 
ENDBRANCH  18  19
ENDBRANCH  15  18
TORSDOF 2
ENDMDL
ENDMDL
