REMARK  Name = outputs/IAG933/test6/raw/output_2831_IAG933_linker_design_.xyz
REMARK  8 active torsions:
REMARK  status: ('A' for Active; 'I' for Inactive)
REMARK    1  A    between atoms: C_1  and  C_2
REMARK    2  A    between atoms: C_1  and  C_8
REMARK    3  A    between atoms: C_1  and  N_38
REMARK    4  A    between atoms: C_13  and  N_28
REMARK    5  A    between atoms: C_14  and  C_15
REMARK    6  A    between atoms: C_21  and  O_22
REMARK    7  A    between atoms: O_22  and  C_23
REMARK    8  A    between atoms: C_23  and  C_24
REMARK                            x       y       z     vdW  Elec       q    Type
REMARK                         _______ _______ _______ _____ _____    ______ ____
ROOT
ATOM      1  N   UNL A   1     -24.895   1.236  27.425  0.00  0.00    -0.281 N 
ATOM      2  F   UNL A   1     -23.718   2.205  24.920  0.00  0.00    -0.199 F 
ATOM      3  N   UNL A   1     -20.312   0.247  28.699  0.00  0.00    +0.220 NA
ATOM      4  C   UNL A   1     -21.247   0.933  27.959  0.00  0.00    +0.453 C 
ATOM      5  C   UNL A   1     -25.343   0.678  28.736  0.00  0.00    +0.208 C 
ATOM      6  C   UNL A   1     -23.547   1.197  27.208  0.00  0.00    +0.126 C 
ATOM      7  N   UNL A   1     -20.845   1.765  26.999  0.00  0.00    -0.023 NA
ATOM      8  C   UNL A   1     -23.030   1.893  25.987  0.00  0.00    +0.203 C 
ATOM      9  C   UNL A   1     -22.682   0.634  28.171  0.00  0.00    +0.271 C 
ATOM     10  C   UNL A   1     -21.645   2.217  25.983  0.00  0.00    +0.267 C 
ATOM     11  N   UNL A   1     -24.484  -0.118  29.352  0.00  0.00    -0.096 NA
ATOM     12  O   UNL A   1     -23.230  -0.048  29.175  0.00  0.00    -0.390 OA
ENDROOT
BRANCH   1  13
ATOM     13  C   UNL A   1     -25.688   1.614  26.461  0.00  0.00    +0.145 C 
ATOM     14  C   UNL A   1     -26.250   2.920  26.395  0.00  0.00    +0.073 C 
ATOM     15  C   UNL A   1     -27.438   3.091  25.645  0.00  0.00    +0.104 C 
ATOM     16  N   UNL A   1     -28.075   2.089  25.003  0.00  0.00    -0.212 NA
ATOM     17  C   UNL A   1     -27.543   0.849  25.079  0.00  0.00    +0.236 C 
ATOM     18  C   UNL A   1     -26.354   0.576  25.777  0.00  0.00    +0.258 C 
ATOM     19  F   UNL A   1     -25.860  -0.681  25.795  0.00  0.00    -0.225 F 
BRANCH  14  20
ATOM     20  C   UNL A   1     -25.642   4.093  27.123  0.00  0.00    +0.264 C 
ATOM     21  N   UNL A   1     -25.614   5.252  26.449  0.00  0.00    -0.200 NA
ATOM     22  C   UNL A   1     -25.026   6.479  26.963  0.00  0.00    +0.139 C 
ATOM     23  O   UNL A   1     -25.143   3.966  28.243  0.00  0.00    -0.269 OA
ENDBRANCH  14  20
BRANCH  17  24
ATOM     24  O   UNL A   1     -28.193  -0.208  24.477  0.00  0.00    -0.459 OA
BRANCH  24  25
ATOM     25  C   UNL A   1     -29.460   0.005  23.866  0.00  0.00    +0.242 C 
BRANCH  25  26
ATOM     26  C   UNL A   1     -30.065  -1.377  23.573  0.00  0.00    +0.229 C 
ATOM     27  O   UNL A   1     -30.729  -1.878  24.721  0.00  0.00    -0.216 OA
ENDBRANCH  25  26
ENDBRANCH  24  25
ENDBRANCH  17  24
ENDBRANCH   1  13
BRANCH  11  28
ATOM     28  C   UNL A   1     -24.855  -1.012  30.143  0.00  0.00    +0.136 C 
BRANCH  28  29
ATOM     29  C   UNL A   1     -24.973  -2.505  29.788  0.00  0.00    -0.003 C 
ATOM     30  C   UNL A   1     -23.906  -3.173  29.146  0.00  0.00    -0.003 C 
ATOM     31  C   UNL A   1     -23.989  -4.549  28.853  0.00  0.00    -0.000 C 
ATOM     32  C   UNL A   1     -25.137  -5.280  29.205  0.00  0.00    -0.000 C 
ATOM     33  C   UNL A   1     -26.232  -4.611  29.784  0.00  0.00    -0.000 C 
ATOM     34  C   UNL A   1     -26.155  -3.232  30.065  0.00  0.00    -0.003 C 
ENDBRANCH  28  29
BRANCH  28  35
ATOM     35  C   UNL A   1     -25.387  -0.679  31.571  0.00  0.00    +0.095 C 
ATOM     36  C   UNL A   1     -25.189   0.773  32.028  0.00  0.00    +0.021 C 
ATOM     37  C   UNL A   1     -25.336   0.684  33.544  0.00  0.00    +0.020 C 
ATOM     38  C   UNL A   1     -24.829  -0.715  33.905  0.00  0.00    +0.089 C 
ATOM     39  N   UNL A   1     -24.758  -1.481  32.646  0.00  0.00    -0.218 NA
ENDBRANCH  28  35
ENDBRANCH  11  28
TORSDOF 8
