MODEL 2831
MODEL 1
REMARK VINA RESULT:    -5.430      0.000      0.000
REMARK INTER + INTRA:          -6.750
REMARK INTER:                  -6.382
REMARK INTRA:                  -0.369
REMARK UNBOUND:                -0.369
REMARK  Name = No_2831-gen_results/8p0m/2024-11-27-11-27-31/
REMARK  3 active torsions:
REMARK  status: ('A' for Active; 'I' for Inactive)
REMARK    1  A    between atoms: C_2  and  C_9
REMARK    2  A    between atoms: C_4  and  O_7
REMARK    3  A    between atoms: O_7  and  C_8
REMARK                            x       y       z     vdW  Elec       q    Type
REMARK                         _______ _______ _______ _____ _____    ______ ____
ROOT
ATOM      1  C   UNL A   1     -22.392  -0.059  28.812  0.00  0.00    +0.010 A 
ATOM      2  C   UNL A   1     -23.137   0.385  28.213  0.00  0.00    +0.080 A 
ATOM      3  C   UNL A   1     -22.802  -1.328  29.525  0.00  0.00    +0.038 A 
ATOM      4  C   UNL A   1     -24.059  -1.904  29.243  0.00  0.00    +0.145 A 
ATOM      5  C   UNL A   1     -24.479  -0.016  27.734  0.00  0.00    +0.010 A 
ATOM      6  C   UNL A   1     -24.888  -1.184  28.363  0.00  0.00    +0.038 A 
ENDROOT
BRANCH   2   7
ATOM      7  C   UNL A   1     -22.696   1.730  27.403  0.00  0.00    +0.388 C 
ATOM      8  O   UNL A   1     -21.570   1.691  27.180  0.00  0.00    -0.241 OA
ATOM      9  O   UNL A   1     -23.379   2.813  27.448  0.00  0.00    -0.241 OA
ENDBRANCH   2   7
BRANCH   4  10
ATOM     10  O   UNL A   1     -24.466  -2.982  29.873  0.00  0.00    -0.458 OA
BRANCH  10  11
ATOM     11  C   UNL A   1     -24.943  -4.018  29.340  0.00  0.00    +0.123 C 
ATOM     12  C   UNL A   1     -23.995  -4.751  28.399  0.00  0.00    +0.036 C 
ATOM     13  C   UNL A   1     -26.172  -4.619  29.651  0.00  0.00    +0.072 C 
ENDBRANCH  10  11
ENDBRANCH   4  10
TORSDOF 3
ENDMDL
ENDMDL
