REMARK  Name = No_2832-gen_results/8p0m/2024-11-27-11-27-31/
REMARK  2 active torsions:
REMARK  status: ('A' for Active; 'I' for Inactive)
REMARK    1  A    between atoms: C_3  and  C_7
REMARK    2  A    between atoms: C_8  and  C_9
REMARK                            x       y       z     vdW  Elec       q    Type
REMARK                         _______ _______ _______ _____ _____    ______ ____
ROOT
ATOM      1  C   UNL A   1     -27.459   0.493  26.770  0.00  0.00    -0.004 C 
ATOM      2  C   UNL A   1     -26.481   1.521  26.630  0.00  0.00    -0.022 C 
ATOM      3  C   UNL A   1     -27.117   2.734  25.979  0.00  0.00    +0.031 C 
ENDROOT
BRANCH   1   6
ATOM      4  C   UNL A   1     -28.016  -0.814  28.878  0.00  0.00    +0.011 A 
ATOM      5  C   UNL A   1     -28.469  -0.785  29.829  0.00  0.00    +0.058 A 
ATOM      6  C   UNL A   1     -28.182   0.428  28.113  0.00  0.00    +0.001 A 
ATOM      7  C   UNL A   1     -28.984   1.415  28.515  0.00  0.00    +0.000 A 
ATOM      8  C   UNL A   1     -29.380   0.138  30.461  0.00  0.00    +0.011 A 
ATOM      9  C   UNL A   1     -29.541   1.274  29.724  0.00  0.00    +0.001 A 
ATOM     10 CL   UNL A   1     -28.279  -2.304  30.882  0.00  0.00    -0.082 Cl
ENDBRANCH   1   6
BRANCH   2  11
ATOM     11  C   UNL A   1     -25.291   1.525  26.934  0.00  0.00    -0.004 A 
ATOM     12  C   UNL A   1     -24.396   2.650  26.821  0.00  0.00    +0.002 A 
ATOM     13  C   UNL A   1     -23.046   2.684  27.140  0.00  0.00    +0.030 A 
ATOM     14  C   UNL A   1     -22.462   1.491  27.663  0.00  0.00    +0.140 A 
ATOM     15  C   UNL A   1     -23.279   0.416  27.951  0.00  0.00    +0.030 A 
ATOM     16  C   UNL A   1     -24.605   0.383  27.584  0.00  0.00    +0.002 A 
ATOM     17  F   UNL A   1     -21.205   1.527  27.955  0.00  0.00    -0.204 F 
ENDBRANCH   2  11
TORSDOF 2
