MODEL 2833
MODEL 1
REMARK VINA RESULT:    -4.425      0.000      0.000
REMARK INTER + INTRA:          -4.425
REMARK INTER:                  -4.425
REMARK INTRA:                   0.000
REMARK UNBOUND:                 0.000
REMARK  Name = No_2833-gen_results/8p0m/2024-11-27-11-27-31/
REMARK  0 active torsions:
REMARK  status: ('A' for Active; 'I' for Inactive)
REMARK                            x       y       z     vdW  Elec       q    Type
REMARK                         _______ _______ _______ _____ _____    ______ ____
ROOT
ATOM      1  C   UNL A   1     -24.943  -5.172  28.983  0.00  0.00    +0.001 A 
ATOM      2  C   UNL A   1     -24.088  -4.335  28.807  0.00  0.00    +0.011 A 
ATOM      3  C   UNL A   1     -24.227  -3.000  29.184  0.00  0.00    +0.058 A 
ATOM      4  C   UNL A   1     -25.479  -2.557  29.768  0.00  0.00    +0.011 A 
ATOM      5  C   UNL A   1     -26.432  -3.587  29.934  0.00  0.00    +0.001 A 
ATOM      6  C   UNL A   1     -26.213  -4.817  29.542  0.00  0.00    +0.000 A 
ATOM      7 CL   UNL A   1     -23.047  -1.775  28.962  0.00  0.00    -0.082 Cl
ENDROOT
TORSDOF 0
ENDMDL
ENDMDL
