MODEL 2834
MODEL 1
REMARK VINA RESULT:    -4.425      0.000      0.000
REMARK INTER + INTRA:          -4.425
REMARK INTER:                  -4.425
REMARK INTRA:                   0.000
REMARK UNBOUND:                 0.000
REMARK  Name = No_2834-gen_results/8p0m/2024-11-27-11-27-31/
REMARK  0 active torsions:
REMARK  status: ('A' for Active; 'I' for Inactive)
REMARK                            x       y       z     vdW  Elec       q    Type
REMARK                         _______ _______ _______ _____ _____    ______ ____
ROOT
ATOM      1  C   UNL A   1     -26.497  -3.916  29.858  0.00  0.00    +0.001 A 
ATOM      2  C   UNL A   1     -26.106  -4.847  29.556  0.00  0.00    +0.000 A 
ATOM      3  C   UNL A   1     -25.589  -2.762  29.776  0.00  0.00    +0.007 A 
ATOM      4  C   UNL A   1     -24.300  -2.894  29.182  0.00  0.00    +0.035 A 
ATOM      5  C   UNL A   1     -23.951  -4.159  28.778  0.00  0.00    +0.007 A 
ATOM      6  C   UNL A   1     -24.816  -5.188  28.901  0.00  0.00    +0.001 A 
ATOM      7 BR   UNL A   1     -23.158  -1.453  29.047  0.00  0.00    -0.049 Br
ENDROOT
TORSDOF 0
ENDMDL
ENDMDL
