REMARK  Name = outputs/IAG933/test6/raw/output_2834_IAG933_linker_design_.xyz
REMARK  13 active torsions:
REMARK  status: ('A' for Active; 'I' for Inactive)
REMARK    1  A    between atoms: C_1  and  C_2
REMARK    2  A    between atoms: C_1  and  C_8
REMARK    3  A    between atoms: C_1  and  C_31
REMARK    4  A    between atoms: C_14  and  C_15
REMARK    5  A    between atoms: C_15  and  O_18
REMARK    6  A    between atoms: O_18  and  C_34
REMARK    7  A    between atoms: C_21  and  O_22
REMARK    8  A    between atoms: O_22  and  C_23
REMARK    9  A    between atoms: C_23  and  C_24
REMARK   10  A    between atoms: C_28  and  N_36
REMARK   11  A    between atoms: C_31  and  C_41
REMARK   12  A    between atoms: C_34  and  C_41
REMARK   13  A    between atoms: N_36  and  C_49
REMARK                            x       y       z     vdW  Elec       q    Type
REMARK                         _______ _______ _______ _____ _____    ______ ____
ROOT
ATOM      1  C   UNL A   1     -25.994   3.362  30.304  0.00  0.00    +0.106 C 
ATOM      2  C   UNL A   1     -25.297   2.880  29.190  0.00  0.00    +0.144 C 
ENDROOT
BRANCH   1   3
ATOM      3  N   UNL A   1     -26.536   4.696  30.372  0.00  0.00    -0.193 N 
ATOM      4  O   UNL A   1     -28.003   4.513  28.665  0.00  0.00    -0.222 OA
ATOM      5  O   UNL A   1     -26.893   6.252  28.711  0.00  0.00    -0.222 OA
ATOM      6  C   UNL A   1     -27.206   5.298  29.373  0.00  0.00    +0.453 C 
BRANCH   3  14
ATOM      7  C   UNL A   1     -26.362   4.743  32.967  0.00  0.00    +0.199 C 
ATOM      8  C   UNL A   1     -25.433   7.470  32.163  0.00  0.00    +0.208 C 
ATOM      9  C   UNL A   1     -24.811   4.394  33.122  0.00  0.00    +0.037 C 
ATOM     10  C   UNL A   1     -24.200   5.716  33.707  0.00  0.00    +0.007 C 
ATOM     11  O   UNL A   1     -27.123   3.690  33.012  0.00  0.00    -0.219 OA
ATOM     12  N   UNL A   1     -25.006   8.706  31.448  0.00  0.00    -0.100 NA
ATOM     13  C   UNL A   1     -24.116   6.804  32.663  0.00  0.00    +0.050 C 
ATOM     14  C   UNL A   1     -26.616   5.393  31.596  0.00  0.00    +0.233 C 
ATOM     15  O   UNL A   1     -26.441   6.808  31.353  0.00  0.00    -0.319 OA
ENDBRANCH   3  14
ENDBRANCH   1   3
BRANCH   2  16
ATOM     16  O   UNL A   1     -25.143   3.966  28.243  0.00  0.00    -0.439 OA
BRANCH  16  17
ATOM     17  C   UNL A   1     -25.642   4.093  27.123  0.00  0.00    +0.227 C 
ATOM     18  N   UNL A   1     -25.614   5.252  26.449  0.00  0.00    -0.235 NA
ATOM     19  C   UNL A   1     -25.026   6.479  26.963  0.00  0.00    +0.155 C 
BRANCH  17  21
ATOM     20  C   UNL A   1     -25.688   1.614  26.461  0.00  0.00    +0.041 C 
ATOM     21  C   UNL A   1     -26.250   2.920  26.395  0.00  0.00    +0.075 C 
ATOM     22  C   UNL A   1     -27.438   3.091  25.645  0.00  0.00    +0.107 C 
ATOM     23  N   UNL A   1     -28.075   2.089  25.003  0.00  0.00    -0.208 NA
ATOM     24  C   UNL A   1     -27.543   0.849  25.079  0.00  0.00    +0.253 C 
ATOM     25  C   UNL A   1     -26.354   0.576  25.777  0.00  0.00    +0.193 C 
ATOM     26  F   UNL A   1     -25.860  -0.681  25.795  0.00  0.00    -0.199 F 
BRANCH  24  27
ATOM     27  O   UNL A   1     -28.193  -0.208  24.477  0.00  0.00    -0.456 OA
BRANCH  27  28
ATOM     28  C   UNL A   1     -29.460   0.005  23.866  0.00  0.00    +0.243 C 
BRANCH  28  29
ATOM     29  C   UNL A   1     -30.065  -1.377  23.573  0.00  0.00    +0.229 C 
ATOM     30  O   UNL A   1     -30.729  -1.878  24.721  0.00  0.00    -0.216 OA
ENDBRANCH  28  29
ENDBRANCH  27  28
ENDBRANCH  24  27
ENDBRANCH  17  21
ENDBRANCH  16  17
ENDBRANCH   2  16
BRANCH   2  31
ATOM     31  C   UNL A   1     -25.135   1.289  29.098  0.00  0.00    +0.089 C 
BRANCH  31  34
ATOM     32  F   UNL A   1     -21.278   1.244  26.567  0.00  0.00    -0.182 F 
ATOM     33  C   UNL A   1     -20.522  -0.108  28.198  0.00  0.00    +0.095 C 
ATOM     34  C   UNL A   1     -24.142   0.118  29.508  0.00  0.00    -0.021 C 
ATOM     35  C   UNL A   1     -21.114   1.232  27.881  0.00  0.00    +0.343 C 
ATOM     36  F   UNL A   1     -20.162   2.086  28.122  0.00  0.00    -0.182 F 
ATOM     37  C   UNL A   1     -21.454  -0.659  29.355  0.00  0.00    +0.050 C 
ATOM     38  C   UNL A   1     -22.766   0.212  29.259  0.00  0.00    +0.041 C 
ATOM     39  N   UNL A   1     -22.244   1.404  28.558  0.00  0.00    -0.187 NA
BRANCH  34  40
ATOM     40  C   UNL A   1     -24.855  -1.012  30.143  0.00  0.00    +0.058 C 
BRANCH  40  41
ATOM     41  C   UNL A   1     -24.973  -2.505  29.788  0.00  0.00    -0.017 C 
ATOM     42  C   UNL A   1     -23.906  -3.173  29.146  0.00  0.00    -0.004 C 
ATOM     43  C   UNL A   1     -23.989  -4.549  28.853  0.00  0.00    -0.000 C 
ATOM     44  C   UNL A   1     -25.137  -5.280  29.205  0.00  0.00    -0.000 C 
ATOM     45  C   UNL A   1     -26.232  -4.611  29.784  0.00  0.00    -0.000 C 
ATOM     46  C   UNL A   1     -26.155  -3.232  30.065  0.00  0.00    -0.004 C 
ENDBRANCH  40  41
BRANCH  40  47
ATOM     47  C   UNL A   1     -25.387  -0.679  31.571  0.00  0.00    +0.081 C 
ATOM     48  C   UNL A   1     -25.189   0.773  32.028  0.00  0.00    +0.019 C 
ATOM     49  C   UNL A   1     -25.336   0.684  33.544  0.00  0.00    +0.020 C 
ATOM     50  C   UNL A   1     -24.829  -0.715  33.905  0.00  0.00    +0.089 C 
ATOM     51  N   UNL A   1     -24.758  -1.481  32.646  0.00  0.00    -0.219 NA
ENDBRANCH  40  47
ENDBRANCH  34  40
ENDBRANCH  31  34
ENDBRANCH   2  31
TORSDOF 13
