REMARK  Name = No_2835-gen_results/8p0m/2024-11-27-11-27-31/
REMARK  7 active torsions:
REMARK  status: ('A' for Active; 'I' for Inactive)
REMARK    1  A    between atoms: C_6  and  C_7
REMARK    2  A    between atoms: C_7  and  O_9
REMARK    3  A    between atoms: O_9  and  C_22
REMARK    4  A    between atoms: C_10  and  C_18
REMARK    5  A    between atoms: C_12  and  C_14
REMARK    6  A    between atoms: C_22  and  C_23
REMARK    7  A    between atoms: C_22  and  C_26
REMARK                            x       y       z     vdW  Elec       q    Type
REMARK                         _______ _______ _______ _____ _____    ______ ____
ROOT
ATOM      1  C   UNL A   1     -28.016  -0.814  28.878  0.00  0.00    +0.006 A 
ATOM      2  C   UNL A   1     -27.064  -0.119  28.608  0.00  0.00    +0.000 A 
ATOM      3  C   UNL A   1     -25.792  -0.430  29.076  0.00  0.00    +0.011 A 
ATOM      4  C   UNL A   1     -25.576  -1.565  29.936  0.00  0.00    +0.058 A 
ATOM      5  C   UNL A   1     -26.735  -2.300  30.217  0.00  0.00    +0.018 A 
ATOM      6  C   UNL A   1     -27.918  -1.954  29.763  0.00  0.00    +0.076 A 
ATOM      7  C   UNL A   1     -27.095   1.110  27.755  0.00  0.00    +0.021 A 
ATOM      8  C   UNL A   1     -26.199   1.441  26.917  0.00  0.00    +0.004 A 
ATOM      9  C   UNL A   1     -24.823   0.909  27.190  0.00  0.00    +0.055 A 
ATOM     10  C   UNL A   1     -24.616  -0.023  28.170  0.00  0.00    +0.005 A 
ATOM     11 CL   UNL A   1     -23.991  -2.020  30.348  0.00  0.00    -0.082 Cl
ENDROOT
BRANCH   9  12
ATOM     12  C   UNL A   1     -23.642   1.553  26.578  0.00  0.00    +0.265 C 
ATOM     13  N   UNL A   1     -22.524   1.669  27.270  0.00  0.00    -0.200 NA
ATOM     14  O   UNL A   1     -23.696   1.960  25.399  0.00  0.00    -0.268 OA
ATOM     15  C   UNL A   1     -22.392   1.395  28.656  0.00  0.00    +0.139 C 
ENDBRANCH   9  12
BRANCH   7  16
ATOM     16  C   UNL A   1     -28.475   1.746  27.639  0.00  0.00    +0.239 C 
ATOM     17 BR   UNL A   1     -28.928   2.192  26.840  0.00  0.00    -0.038 Br
ATOM     18  F   UNL A   1     -28.998   1.597  28.948  0.00  0.00    -0.220 F 
ENDBRANCH   7  16
BRANCH   6  19
ATOM     19  C   UNL A   1     -29.073  -2.784  30.178  0.00  0.00    +0.342 C 
ATOM     20  O   UNL A   1     -29.002  -3.985  30.235  0.00  0.00    -0.245 OA
BRANCH  19  21
ATOM     21  O   UNL A   1     -30.181  -2.190  30.460  0.00  0.00    -0.437 OA
BRANCH  21  22
ATOM     22  C   UNL A   1     -31.377  -2.840  30.453  0.00  0.00    +0.271 C 
BRANCH  22  23
ATOM     23  C   UNL A   1     -32.249  -2.026  31.514  0.00  0.00    +0.060 C 
ATOM     24  C   UNL A   1     -32.467  -0.714  31.456  0.00  0.00    +0.030 C 
ATOM     25  C   UNL A   1     -33.752  -0.287  31.355  0.00  0.00    -0.026 C 
ATOM     26  C   UNL A   1     -34.680  -0.597  32.117  0.00  0.00    -0.005 C 
ATOM     27  C   UNL A   1     -34.328  -1.032  33.388  0.00  0.00    -0.005 C 
ATOM     28  C   UNL A   1     -33.531  -2.251  33.576  0.00  0.00    -0.026 C 
ATOM     29  C   UNL A   1     -32.641  -2.813  32.667  0.00  0.00    +0.030 C 
ENDBRANCH  22  23
BRANCH  22  30
ATOM     30  C   UNL A   1     -32.086  -2.860  29.237  0.00  0.00    +0.404 C 
ATOM     31  O   UNL A   1     -31.937  -3.804  28.544  0.00  0.00    -0.242 OA
ATOM     32  O   UNL A   1     -32.672  -1.806  28.738  0.00  0.00    -0.242 OA
ENDBRANCH  22  30
ENDBRANCH  21  22
ENDBRANCH  19  21
ENDBRANCH   6  19
TORSDOF 7
