MODEL 2835
MODEL 1
REMARK VINA RESULT:    -6.577      0.000      0.000
REMARK INTER + INTRA:         -11.403
REMARK INTER:                  -9.269
REMARK INTRA:                  -2.135
REMARK UNBOUND:                -2.135
REMARK  Name = No_2835-gen_results/8p0m/2024-11-27-11-27-31/
REMARK  7 active torsions:
REMARK  status: ('A' for Active; 'I' for Inactive)
REMARK    1  A    between atoms: C_6  and  C_7
REMARK    2  A    between atoms: C_7  and  O_9
REMARK    3  A    between atoms: O_9  and  C_22
REMARK    4  A    between atoms: C_10  and  C_18
REMARK    5  A    between atoms: C_12  and  C_14
REMARK    6  A    between atoms: C_22  and  C_23
REMARK    7  A    between atoms: C_22  and  C_26
REMARK                            x       y       z     vdW  Elec       q    Type
REMARK                         _______ _______ _______ _____ _____    ______ ____
ROOT
ATOM      1  C   UNL A   1     -29.295 -10.954   9.121  0.00  0.00    +0.006 A 
ATOM      2  C   UNL A   1     -29.704  -9.955   9.666  0.00  0.00    +0.000 A 
ATOM      3  C   UNL A   1     -29.097  -8.722   9.454  0.00  0.00    +0.011 A 
ATOM      4  C   UNL A   1     -27.932  -8.604   8.614  0.00  0.00    +0.058 A 
ATOM      5  C   UNL A   1     -27.513  -9.812   8.043  0.00  0.00    +0.018 A 
ATOM      6  C   UNL A   1     -28.112 -10.955   8.289  0.00  0.00    +0.076 A 
ATOM      7  C   UNL A   1     -30.879  -9.883  10.589  0.00  0.00    +0.021 A 
ATOM      8  C   UNL A   1     -31.727  -8.937  10.621  0.00  0.00    +0.004 A 
ATOM      9  C   UNL A   1     -31.236  -7.605  10.136  0.00  0.00    +0.055 A 
ATOM     10  C   UNL A   1     -30.017  -7.490   9.526  0.00  0.00    +0.005 A 
ATOM     11 CL   UNL A   1     -27.320  -7.064   8.235  0.00  0.00    -0.082 Cl
ENDROOT
BRANCH   9  12
ATOM     12  C   UNL A   1     -31.944  -6.366  10.522  0.00  0.00    +0.265 C 
ATOM     13  N   UNL A   1     -32.989  -5.963   9.825  0.00  0.00    -0.200 NA
ATOM     14  O   UNL A   1     -31.569  -5.721  11.522  0.00  0.00    -0.268 OA
ATOM     15  C   UNL A   1     -33.406  -6.517   8.586  0.00  0.00    +0.139 C 
ENDBRANCH   9  12
BRANCH   7  16
ATOM     16  C   UNL A   1     -31.251 -11.220  11.220  0.00  0.00    +0.239 C 
ATOM     17 BR   UNL A   1     -30.896 -11.669  12.065  0.00  0.00    -0.038 Br
ATOM     18  F   UNL A   1     -32.219 -11.731  10.319  0.00  0.00    -0.220 F 
ENDBRANCH   7  16
BRANCH   6  19
ATOM     19  C   UNL A   1     -27.536 -12.170   7.667  0.00  0.00    +0.342 C 
ATOM     20  O   UNL A   1     -26.426 -12.178   7.200  0.00  0.00    -0.245 OA
BRANCH  19  21
ATOM     21  O   UNL A   1     -28.265 -13.232   7.613  0.00  0.00    -0.437 OA
BRANCH  21  22
ATOM     22  C   UNL A   1     -27.892 -14.400   8.204  0.00  0.00    +0.271 C 
BRANCH  22  23
ATOM     23  C   UNL A   1     -29.250 -14.942   8.845  0.00  0.00    +0.060 C 
ATOM     24  C   UNL A   1     -29.322 -15.962   9.697  0.00  0.00    +0.030 C 
ATOM     25  C   UNL A   1     -29.836 -15.725  10.931  0.00  0.00    -0.026 C 
ATOM     26  C   UNL A   1     -30.936 -15.205  11.170  0.00  0.00    -0.005 C 
ATOM     27  C   UNL A   1     -31.891 -15.270  10.164  0.00  0.00    -0.005 C 
ATOM     28  C   UNL A   1     -31.668 -14.621   8.866  0.00  0.00    -0.026 C 
ATOM     29  C   UNL A   1     -30.440 -14.339   8.276  0.00  0.00    +0.030 C 
ENDBRANCH  22  23
BRANCH  22  30
ATOM     30  C   UNL A   1     -27.381 -15.407   7.363  0.00  0.00    +0.404 C 
ATOM     31  O   UNL A   1     -26.452 -16.018   7.760  0.00  0.00    -0.242 OA
ATOM     32  O   UNL A   1     -27.708 -15.515   6.104  0.00  0.00    -0.242 OA
ENDBRANCH  22  30
ENDBRANCH  21  22
ENDBRANCH  19  21
ENDBRANCH   6  19
TORSDOF 7
ENDMDL
ENDMDL
