MODEL 2836
MODEL 1
REMARK VINA RESULT:    -6.292      0.000      0.000
REMARK INTER + INTRA:          -7.554
REMARK INTER:                  -7.028
REMARK INTRA:                  -0.526
REMARK UNBOUND:                -0.526
REMARK  Name = No_2836-gen_results/8p0m/2024-11-27-11-27-31/
REMARK  2 active torsions:
REMARK  status: ('A' for Active; 'I' for Inactive)
REMARK    1  A    between atoms: C_2  and  O_7
REMARK    2  A    between atoms: C_4  and  C_9
REMARK                            x       y       z     vdW  Elec       q    Type
REMARK                         _______ _______ _______ _____ _____    ______ ____
ROOT
ATOM      1  C   UNL A   1     -24.980   0.425  26.472  0.00  0.00    +0.037 A 
ATOM      2  C   UNL A   1     -24.078   0.946  26.632  0.00  0.00    +0.139 A 
ATOM      3  C   UNL A   1     -25.221  -0.753  27.389  0.00  0.00    -0.001 A 
ATOM      4  C   UNL A   1     -24.332  -0.990  28.458  0.00  0.00    -0.023 A 
ATOM      5  C   UNL A   1     -23.022   0.928  27.669  0.00  0.00    +0.037 A 
ATOM      6  C   UNL A   1     -23.214  -0.139  28.535  0.00  0.00    -0.001 A 
ENDROOT
BRANCH   4   7
ATOM      7  C   UNL A   1     -24.512  -2.117  29.347  0.00  0.00    +0.019 C 
ATOM      8  C   UNL A   1     -23.939  -3.352  28.863  0.00  0.00    +0.004 C 
ATOM      9  C   UNL A   1     -24.589  -4.563  29.228  0.00  0.00    +0.000 C 
ATOM     10  C   UNL A   1     -25.762  -4.667  29.269  0.00  0.00    +0.000 C 
ATOM     11  C   UNL A   1     -26.396  -3.500  29.957  0.00  0.00    +0.000 C 
ATOM     12  C   UNL A   1     -26.026  -2.370  29.477  0.00  0.00    +0.004 C 
ATOM     13  C   UNL A   1     -23.877  -1.803  30.760  0.00  0.00    +0.004 C 
ENDBRANCH   4   7
BRANCH   2  14
ATOM     14  O   UNL A   1     -23.837   2.092  25.743  0.00  0.00    -0.471 OA
ATOM     15  C   UNL A   1     -24.124   3.286  25.913  0.00  0.00    +0.253 C 
ENDBRANCH   2  14
TORSDOF 2
ENDMDL
ENDMDL
