REMARK  Name = outputs/IAG933/test6/raw/output_2836_IAG933_linker_design_.xyz
REMARK  17 active torsions:
REMARK  status: ('A' for Active; 'I' for Inactive)
REMARK    1  A    between atoms: C_1  and  C_2
REMARK    2  A    between atoms: C_1  and  C_8
REMARK    3  A    between atoms: C_1  and  C_43
REMARK    4  A    between atoms: C_13  and  N_39
REMARK    5  A    between atoms: C_14  and  C_15
REMARK    6  A    between atoms: C_21  and  O_22
REMARK    7  A    between atoms: O_22  and  C_23
REMARK    8  A    between atoms: C_23  and  C_24
REMARK    9  A    between atoms: C_28  and  N_37
REMARK   10  A    between atoms: C_28  and  C_44
REMARK   11  A    between atoms: C_30  and  N_37
REMARK   12  A    between atoms: C_30  and  C_40
REMARK   13  A    between atoms: C_33  and  C_40
REMARK   14  A    between atoms: C_33  and  C_43
REMARK   15  A    between atoms: C_34  and  N_39
REMARK   16  A    between atoms: C_38  and  C_44
REMARK   17  A    between atoms: N_39  and  C_43
REMARK                            x       y       z     vdW  Elec       q    Type
REMARK                         _______ _______ _______ _____ _____    ______ ____
ROOT
ATOM      1  C   UNL A   1     -25.252   0.110  29.019  0.00  0.00    +0.063 C 
ENDROOT
BRANCH   1   2
ATOM      2  C   UNL A   1     -24.855  -1.012  30.143  0.00  0.00    +0.053 C 
BRANCH   2   3
ATOM      3  C   UNL A   1     -24.973  -2.505  29.788  0.00  0.00    -0.020 C 
ATOM      4  C   UNL A   1     -23.906  -3.173  29.146  0.00  0.00    -0.004 C 
ATOM      5  C   UNL A   1     -23.989  -4.549  28.853  0.00  0.00    -0.000 C 
ATOM      6  C   UNL A   1     -25.137  -5.280  29.205  0.00  0.00    -0.000 C 
ATOM      7  C   UNL A   1     -26.232  -4.611  29.784  0.00  0.00    -0.000 C 
ATOM      8  C   UNL A   1     -26.155  -3.232  30.065  0.00  0.00    -0.004 C 
ENDBRANCH   2   3
BRANCH   2   9
ATOM      9  C   UNL A   1     -25.387  -0.679  31.571  0.00  0.00    +0.078 C 
ATOM     10  C   UNL A   1     -25.189   0.773  32.028  0.00  0.00    +0.019 C 
ATOM     11  C   UNL A   1     -25.336   0.684  33.544  0.00  0.00    +0.020 C 
ATOM     12  C   UNL A   1     -24.829  -0.715  33.905  0.00  0.00    +0.089 C 
ATOM     13  N   UNL A   1     -24.758  -1.481  32.646  0.00  0.00    -0.219 NA
ENDBRANCH   2   9
ENDBRANCH   1   2
BRANCH   1  14
ATOM     14  C   UNL A   1     -26.767  -0.119  28.881  0.00  0.00    +0.018 C 
BRANCH  14  15
ATOM     15  C   UNL A   1     -27.715   0.921  29.609  0.00  0.00    +0.021 C 
BRANCH  15  16
ATOM     16  C   UNL A   1     -29.151   0.298  29.980  0.00  0.00    +0.107 C 
BRANCH  16  18
ATOM     17  O   UNL A   1     -29.548  -0.473  32.255  0.00  0.00    -0.116 OA
ATOM     18  N   UNL A   1     -29.591  -0.805  31.034  0.00  0.00    -0.104 NA
BRANCH  18  19
ATOM     19  C   UNL A   1     -29.887  -2.374  30.740  0.00  0.00    +0.241 C 
ATOM     20  O   UNL A   1     -29.809  -2.997  32.002  0.00  0.00    -0.202 OA
BRANCH  19  21
ATOM     21  C   UNL A   1     -31.252  -2.566  30.096  0.00  0.00    +0.070 C 
ATOM     22  C   UNL A   1     -31.800  -1.243  29.591  0.00  0.00    +0.009 C 
BRANCH  21  25
ATOM     23  C   UNL A   1     -32.515  -3.413  28.189  0.00  0.00    -0.004 C 
ATOM     24  C   UNL A   1     -32.671  -4.330  27.148  0.00  0.00    -0.000 C 
ATOM     25  C   UNL A   1     -31.619  -3.763  29.288  0.00  0.00    -0.022 C 
ATOM     26  C   UNL A   1     -29.925  -5.173  30.321  0.00  0.00    +0.031 C 
ATOM     27  C   UNL A   1     -31.418  -6.008  28.422  0.00  0.00    -0.005 C 
ATOM     28  C   UNL A   1     -31.088  -5.020  29.337  0.00  0.00    -0.026 C 
ATOM     29  C   UNL A   1     -32.111  -5.630  27.250  0.00  0.00    -0.000 C 
ENDBRANCH  21  25
ENDBRANCH  19  21
ENDBRANCH  18  19
ENDBRANCH  16  18
ENDBRANCH  15  16
ENDBRANCH  14  15
ENDBRANCH   1  14
BRANCH   1  30
ATOM     30  N   UNL A   1     -24.850   1.021  27.574  0.00  0.00    -0.270 NA
BRANCH  30  31
ATOM     31  C   UNL A   1     -25.688   1.614  26.461  0.00  0.00    +0.128 C 
ATOM     32  C   UNL A   1     -26.250   2.920  26.395  0.00  0.00    +0.070 C 
ATOM     33  C   UNL A   1     -27.438   3.091  25.645  0.00  0.00    +0.103 C 
ATOM     34  N   UNL A   1     -28.075   2.089  25.003  0.00  0.00    -0.212 NA
ATOM     35  C   UNL A   1     -27.543   0.849  25.079  0.00  0.00    +0.235 C 
ATOM     36  C   UNL A   1     -26.354   0.576  25.777  0.00  0.00    +0.255 C 
ATOM     37  F   UNL A   1     -25.860  -0.681  25.795  0.00  0.00    -0.225 F 
BRANCH  32  38
ATOM     38  C   UNL A   1     -25.642   4.093  27.123  0.00  0.00    +0.264 C 
ATOM     39  N   UNL A   1     -25.614   5.252  26.449  0.00  0.00    -0.200 NA
ATOM     40  C   UNL A   1     -25.026   6.479  26.963  0.00  0.00    +0.139 C 
ATOM     41  O   UNL A   1     -25.143   3.966  28.243  0.00  0.00    -0.269 OA
ENDBRANCH  32  38
BRANCH  35  42
ATOM     42  O   UNL A   1     -28.193  -0.208  24.477  0.00  0.00    -0.459 OA
BRANCH  42  43
ATOM     43  C   UNL A   1     -29.460   0.005  23.866  0.00  0.00    +0.242 C 
BRANCH  43  44
ATOM     44  C   UNL A   1     -30.065  -1.377  23.573  0.00  0.00    +0.229 C 
ATOM     45  O   UNL A   1     -30.729  -1.878  24.721  0.00  0.00    -0.216 OA
ENDBRANCH  43  44
ENDBRANCH  42  43
ENDBRANCH  35  42
ENDBRANCH  30  31
BRANCH  30  47
ATOM     46  C   UNL A   1     -22.972   1.915  26.041  0.00  0.00    +0.017 C 
ATOM     47  C   UNL A   1     -23.337   1.010  27.291  0.00  0.00    +0.058 C 
ATOM     48  C   UNL A   1     -22.280   1.010  28.429  0.00  0.00    +0.017 C 
ENDBRANCH  30  47
ENDBRANCH   1  30
TORSDOF 17
