REMARK  Name = outputs/IAG933/test6/raw/output_2837_IAG933_linker_design_.xyz
REMARK  18 active torsions:
REMARK  status: ('A' for Active; 'I' for Inactive)
REMARK    1  A    between atoms: C_1  and  C_2
REMARK    2  A    between atoms: C_1  and  C_8
REMARK    3  A    between atoms: C_1  and  N_33
REMARK    4  A    between atoms: C_13  and  C_35
REMARK    5  A    between atoms: C_14  and  C_15
REMARK    6  A    between atoms: C_21  and  O_22
REMARK    7  A    between atoms: O_22  and  C_23
REMARK    8  A    between atoms: C_23  and  C_24
REMARK    9  A    between atoms: C_29  and  O_41
REMARK   10  A    between atoms: O_30  and  C_34
REMARK   11  A    between atoms: O_30  and  O_43
REMARK   12  A    between atoms: N_33  and  C_37
REMARK   13  A    between atoms: N_33  and  C_42
REMARK   14  A    between atoms: C_34  and  C_45
REMARK   15  A    between atoms: C_37  and  C_40
REMARK   16  A    between atoms: C_38  and  C_40
REMARK   17  A    between atoms: C_38  and  C_44
REMARK   18  A    between atoms: C_44  and  C_45
REMARK                            x       y       z     vdW  Elec       q    Type
REMARK                         _______ _______ _______ _____ _____    ______ ____
ROOT
ATOM      1  C   UNL A   1     -22.333   1.320  27.934  0.00  0.00    +0.161 C 
ATOM      2  C   UNL A   1     -23.180   1.762  26.943  0.00  0.00    +0.210 C 
ATOM      3  C   UNL A   1     -24.484   1.320  27.243  0.00  0.00    +0.052 C 
ATOM      4  C   UNL A   1     -23.053   0.723  28.876  0.00  0.00    +0.101 C 
ATOM      5  F   UNL A   1     -20.966   1.494  27.905  0.00  0.00    -0.205 F 
ATOM      6  C   UNL A   1     -24.366   0.630  28.391  0.00  0.00    +0.035 C 
ENDROOT
BRANCH   3   7
ATOM      7  C   UNL A   1     -25.688   1.614  26.461  0.00  0.00    +0.042 C 
ATOM      8  C   UNL A   1     -26.250   2.920  26.395  0.00  0.00    +0.077 C 
ATOM      9  C   UNL A   1     -27.438   3.091  25.645  0.00  0.00    +0.107 C 
ATOM     10  N   UNL A   1     -28.075   2.089  25.003  0.00  0.00    -0.208 NA
ATOM     11  C   UNL A   1     -27.543   0.849  25.079  0.00  0.00    +0.253 C 
ATOM     12  C   UNL A   1     -26.354   0.576  25.777  0.00  0.00    +0.193 C 
ATOM     13  F   UNL A   1     -25.860  -0.681  25.795  0.00  0.00    -0.199 F 
BRANCH   8  14
ATOM     14  C   UNL A   1     -25.642   4.093  27.123  0.00  0.00    +0.266 C 
ATOM     15  N   UNL A   1     -25.614   5.252  26.449  0.00  0.00    -0.200 NA
ATOM     16  C   UNL A   1     -25.026   6.479  26.963  0.00  0.00    +0.139 C 
ATOM     17  O   UNL A   1     -25.143   3.966  28.243  0.00  0.00    -0.268 OA
ENDBRANCH   8  14
BRANCH  11  18
ATOM     18  O   UNL A   1     -28.193  -0.208  24.477  0.00  0.00    -0.456 OA
BRANCH  18  19
ATOM     19  C   UNL A   1     -29.460   0.005  23.866  0.00  0.00    +0.243 C 
BRANCH  19  20
ATOM     20  C   UNL A   1     -30.065  -1.377  23.573  0.00  0.00    +0.229 C 
ATOM     21  O   UNL A   1     -30.729  -1.878  24.721  0.00  0.00    -0.216 OA
ENDBRANCH  19  20
ENDBRANCH  18  19
ENDBRANCH  11  18
ENDBRANCH   3   7
BRANCH   2  23
ATOM     22  O   UNL A   1     -21.508   2.146  25.341  0.00  0.00    +0.028 OA
ATOM     23  O   UNL A   1     -22.840   2.433  25.764  0.00  0.00    -0.301 OA
ENDBRANCH   2  23
BRANCH   6  24
ATOM     24  N   UNL A   1     -25.366  -0.169  29.062  0.00  0.00    -0.307 N 
BRANCH  24  25
ATOM     25  C   UNL A   1     -24.855  -1.012  30.143  0.00  0.00    +0.111 C 
BRANCH  25  26
ATOM     26  C   UNL A   1     -24.973  -2.505  29.788  0.00  0.00    -0.003 C 
ATOM     27  C   UNL A   1     -23.906  -3.173  29.146  0.00  0.00    -0.003 C 
ATOM     28  C   UNL A   1     -23.989  -4.549  28.853  0.00  0.00    -0.000 C 
ATOM     29  C   UNL A   1     -25.137  -5.280  29.205  0.00  0.00    -0.000 C 
ATOM     30  C   UNL A   1     -26.232  -4.611  29.784  0.00  0.00    -0.000 C 
ATOM     31  C   UNL A   1     -26.155  -3.232  30.065  0.00  0.00    -0.003 C 
ENDBRANCH  25  26
BRANCH  25  32
ATOM     32  C   UNL A   1     -25.387  -0.679  31.571  0.00  0.00    +0.095 C 
ATOM     33  C   UNL A   1     -25.189   0.773  32.028  0.00  0.00    +0.021 C 
ATOM     34  C   UNL A   1     -25.336   0.684  33.544  0.00  0.00    +0.020 C 
ATOM     35  C   UNL A   1     -24.829  -0.715  33.905  0.00  0.00    +0.089 C 
ATOM     36  N   UNL A   1     -24.758  -1.481  32.646  0.00  0.00    -0.217 NA
ENDBRANCH  25  32
ENDBRANCH  24  25
BRANCH  24  37
ATOM     37  C   UNL A   1     -26.752   0.122  28.934  0.00  0.00    +0.091 C 
BRANCH  37  38
ATOM     38  C   UNL A   1     -26.738   1.492  29.076  0.00  0.00    +0.021 C 
BRANCH  38  39
ATOM     39  C   UNL A   1     -27.765   2.438  29.656  0.00  0.00    +0.002 C 
BRANCH  39  40
ATOM     40  C   UNL A   1     -28.777   2.152  28.769  0.00  0.00    +0.003 C 
BRANCH  40  41
ATOM     41  C   UNL A   1     -29.499   0.696  28.942  0.00  0.00    +0.035 C 
BRANCH  41  42
ATOM     42  C   UNL A   1     -29.530   0.462  30.456  0.00  0.00    +0.182 C 
BRANCH  42  43
ATOM     43  O   UNL A   1     -29.805   1.655  31.289  0.00  0.00    -0.220 OA
BRANCH  43  45
ATOM     44  C   UNL A   1     -28.556   3.382  32.008  0.00  0.00    +0.217 C 
ATOM     45  O   UNL A   1     -29.727   2.820  31.280  0.00  0.00    -0.218 OA
ENDBRANCH  43  45
ENDBRANCH  42  43
ENDBRANCH  41  42
ENDBRANCH  40  41
ENDBRANCH  39  40
ENDBRANCH  38  39
ENDBRANCH  37  38
ENDBRANCH  24  37
ENDBRANCH   6  24
TORSDOF 18
