MODEL 2837
MODEL 1
REMARK VINA RESULT:    -6.151      0.000      0.000
REMARK INTER + INTRA:          -7.707
REMARK INTER:                  -7.230
REMARK INTRA:                  -0.477
REMARK UNBOUND:                -0.477
REMARK  Name = No_2837-gen_results/8p0m/2024-11-27-11-27-31/
REMARK  3 active torsions:
REMARK  status: ('A' for Active; 'I' for Inactive)
REMARK    1  A    between atoms: C_4  and  C_8
REMARK    2  A    between atoms: C_8  and  C_10
REMARK    3  A    between atoms: C_11  and  C_12
REMARK                            x       y       z     vdW  Elec       q    Type
REMARK                         _______ _______ _______ _____ _____    ______ ____
ROOT
ATOM      1  C   UNL A   1     -23.964  -4.530  28.595  0.00  0.00    +0.029 A 
ATOM      2  C   UNL A   1     -24.872  -4.983  28.879  0.00  0.00    +0.140 A 
ATOM      3  C   UNL A   1     -23.876  -3.070  28.763  0.00  0.00    -0.000 A 
ATOM      4  C   UNL A   1     -24.922  -2.351  29.412  0.00  0.00    -0.001 A 
ATOM      5  C   UNL A   1     -26.066  -4.485  29.615  0.00  0.00    +0.029 A 
ATOM      6  C   UNL A   1     -26.025  -3.133  29.782  0.00  0.00    -0.000 A 
ATOM      7  F   UNL A   1     -24.960  -6.414  28.731  0.00  0.00    -0.204 F 
ENDROOT
BRANCH   4   8
ATOM      8  C   UNL A   1     -24.870  -0.935  29.595  0.00  0.00    +0.136 C 
ATOM      9  N   UNL A   1     -25.249  -0.391  30.459  0.00  0.00    -0.123 NA
BRANCH   8  10
ATOM     10  C   UNL A   1     -24.255  -0.114  28.505  0.00  0.00    -0.003 C 
ATOM     11  C   UNL A   1     -25.043   0.261  27.460  0.00  0.00    -0.003 C 
BRANCH  11  12
ATOM     12  C   UNL A   1     -24.500   0.979  26.364  0.00  0.00    -0.005 C 
ATOM     13  C   UNL A   1     -24.706   0.466  25.050  0.00  0.00    -0.026 C 
ATOM     14  C   UNL A   1     -25.717  -0.455  24.861  0.00  0.00    +0.031 C 
ENDBRANCH  11  12
ENDBRANCH   8  10
ENDBRANCH   4   8
TORSDOF 3
ENDMDL
ENDMDL
