MODEL 2838
MODEL 1
REMARK VINA RESULT:    -7.642      0.000      0.000
REMARK INTER + INTRA:         -11.629
REMARK INTER:                  -9.876
REMARK INTRA:                  -1.752
REMARK UNBOUND:                -1.752
REMARK  Name = No_2838-gen_results/8p0m/2024-11-27-11-27-31/
REMARK  5 active torsions:
REMARK  status: ('A' for Active; 'I' for Inactive)
REMARK    1  A    between atoms: C_3  and  C_8
REMARK    2  A    between atoms: C_6  and  C_22
REMARK    3  A    between atoms: C_8  and  C_9
REMARK    4  A    between atoms: C_10  and  C_11
REMARK    5  A    between atoms: N_16  and  C_21
REMARK                            x       y       z     vdW  Elec       q    Type
REMARK                         _______ _______ _______ _____ _____    ______ ____
ROOT
ATOM      1  C   UNL A   1     -24.211   1.021  27.477  0.00  0.00    +0.002 A 
ATOM      2  C   UNL A   1     -24.188   1.144  26.176  0.00  0.00    -0.023 A 
ATOM      3  C   UNL A   1     -23.011   1.465  28.173  0.00  0.00    +0.136 A 
ATOM      4  C   UNL A   1     -23.114   1.554  25.357  0.00  0.00    -0.004 A 
ATOM      5  C   UNL A   1     -21.889   2.047  26.020  0.00  0.00    +0.002 A 
ATOM      6  C   UNL A   1     -21.896   1.958  27.422  0.00  0.00    +0.029 A 
ATOM      7  F   UNL A   1     -22.859   1.460  29.430  0.00  0.00    -0.204 F 
ENDROOT
BRANCH   2   8
ATOM      8  C   UNL A   1     -25.430   0.786  25.467  0.00  0.00    +0.042 C 
ATOM      9  C   UNL A   1     -25.634  -0.385  25.059  0.00  0.00    +0.008 C 
ATOM     10  C   UNL A   1     -26.895  -0.684  24.266  0.00  0.00    +0.022 C 
ATOM     11  C   UNL A   1     -27.852   0.324  24.419  0.00  0.00    +0.091 C 
ATOM     12  C   UNL A   1     -26.588   1.676  25.230  0.00  0.00    +0.095 C 
ATOM     13  N   UNL A   1     -27.608   1.414  24.590  0.00  0.00    -0.307 N 
BRANCH  13  14
ATOM     14  C   UNL A   1     -28.761   2.376  24.430  0.00  0.00    +0.048 A 
ATOM     15  C   UNL A   1     -29.742   2.045  23.825  0.00  0.00    +0.015 A 
ATOM     16  C   UNL A   1     -30.982   2.800  23.725  0.00  0.00    +0.001 A 
ATOM     17  C   UNL A   1     -30.966   4.000  24.464  0.00  0.00    +0.000 A 
ATOM     18  C   UNL A   1     -28.973   3.464  25.311  0.00  0.00    +0.015 A 
ATOM     19  C   UNL A   1     -30.017   4.251  25.336  0.00  0.00    +0.001 A 
ENDBRANCH  13  14
ENDBRANCH   2   8
BRANCH   1  20
ATOM     20  C   UNL A   1     -25.368   0.638  28.363  0.00  0.00    +0.037 C 
BRANCH  20  23
ATOM     21  O   UNL A   1     -24.814  -0.063  31.161  0.00  0.00    -0.273 OA
ATOM     22  C   UNL A   1     -25.465  -0.675  30.433  0.00  0.00    +0.241 C 
ATOM     23  C   UNL A   1     -25.234  -0.660  29.072  0.00  0.00    +0.083 C 
ATOM     24  N   UNL A   1     -26.404  -1.699  30.878  0.00  0.00    -0.205 NA
ATOM     25  C   UNL A   1     -24.740  -1.661  28.388  0.00  0.00    +0.016 C 
ATOM     26  C   UNL A   1     -25.351  -3.004  28.812  0.00  0.00    +0.044 C 
ATOM     27  C   UNL A   1     -25.996  -2.949  30.149  0.00  0.00    +0.119 C 
BRANCH  26  28
ATOM     28  C   UNL A   1     -24.261  -4.129  29.089  0.00  0.00    -0.025 C 
ATOM     29  C   UNL A   1     -24.549  -5.423  28.816  0.00  0.00    -0.005 C 
ENDBRANCH  26  28
ENDBRANCH  20  23
ENDBRANCH   1  20
TORSDOF 5
ENDMDL
ENDMDL
