REMARK  Name = outputs/IAG933/test6/raw/output_2839_IAG933_linker_design_.xyz
REMARK  12 active torsions:
REMARK  status: ('A' for Active; 'I' for Inactive)
REMARK    1  A    between atoms: C_1  and  C_2
REMARK    2  A    between atoms: C_1  and  C_8
REMARK    3  A    between atoms: C_9  and  C_46
REMARK    4  A    between atoms: C_13  and  C_44
REMARK    5  A    between atoms: C_14  and  C_15
REMARK    6  A    between atoms: C_21  and  O_22
REMARK    7  A    between atoms: O_22  and  C_23
REMARK    8  A    between atoms: C_23  and  C_24
REMARK    9  A    between atoms: C_28  and  N_30
REMARK   10  A    between atoms: C_35  and  C_43
REMARK   11  A    between atoms: C_35  and  C_46
REMARK   12  A    between atoms: C_39  and  C_46
REMARK                            x       y       z     vdW  Elec       q    Type
REMARK                         _______ _______ _______ _____ _____    ______ ____
ROOT
ATOM      1  C   UNL A   1     -24.737   1.862  31.016  0.00  0.00    +0.084 C 
ENDROOT
BRANCH   1   3
ATOM      2  C   UNL A   1     -25.387  -0.679  31.571  0.00  0.00    +0.078 C 
ATOM      3  C   UNL A   1     -25.189   0.773  32.028  0.00  0.00    +0.027 C 
ATOM      4  C   UNL A   1     -25.336   0.684  33.544  0.00  0.00    +0.021 C 
ATOM      5  C   UNL A   1     -24.829  -0.715  33.905  0.00  0.00    +0.089 C 
ATOM      6  N   UNL A   1     -24.758  -1.481  32.646  0.00  0.00    -0.219 NA
BRANCH   2   7
ATOM      7  C   UNL A   1     -24.855  -1.012  30.143  0.00  0.00    +0.044 C 
BRANCH   7   8
ATOM      8  C   UNL A   1     -24.973  -2.505  29.788  0.00  0.00    -0.021 C 
ATOM      9  C   UNL A   1     -23.906  -3.173  29.146  0.00  0.00    -0.004 C 
ATOM     10  C   UNL A   1     -23.989  -4.549  28.853  0.00  0.00    -0.000 C 
ATOM     11  C   UNL A   1     -25.137  -5.280  29.205  0.00  0.00    -0.000 C 
ATOM     12  C   UNL A   1     -26.232  -4.611  29.784  0.00  0.00    -0.000 C 
ATOM     13  C   UNL A   1     -26.155  -3.232  30.065  0.00  0.00    -0.004 C 
ENDBRANCH   7   8
ENDBRANCH   2   7
ENDBRANCH   1   3
BRANCH   1  16
ATOM     14  N   UNL A   1     -25.048   3.905  33.123  0.00  0.00    -0.182 NA
ATOM     15  O   UNL A   1     -25.848   3.320  30.774  0.00  0.00    -0.273 OA
ATOM     16  C   UNL A   1     -25.184   3.215  31.653  0.00  0.00    +0.245 C 
BRANCH  14  17
ATOM     17  C   UNL A   1     -25.396   5.173  33.135  0.00  0.00    +0.066 C 
ATOM     18  C   UNL A   1     -25.984   6.995  31.689  0.00  0.00    +0.025 C 
ATOM     19  C   UNL A   1     -25.831   8.051  32.769  0.00  0.00    +0.091 C 
ATOM     20  C   UNL A   1     -24.853   6.126  34.096  0.00  0.00    +0.074 C 
ATOM     21  N   UNL A   1     -25.225   7.554  34.050  0.00  0.00    -0.304 N 
ATOM     22  C   UNL A   1     -26.316   5.627  32.158  0.00  0.00    +0.046 C 
ATOM     23  C   UNL A   1     -24.676   6.753  30.912  0.00  0.00    +0.002 C 
ATOM     24  C   UNL A   1     -25.040   8.616  35.084  0.00  0.00    +0.112 C 
ENDBRANCH  14  17
ENDBRANCH   1  16
BRANCH   1  25
ATOM     25  C   UNL A   1     -23.517   1.551  30.174  0.00  0.00    +0.035 C 
BRANCH  25  30
ATOM     26  O   UNL A   1     -23.343   1.799  24.589  0.00  0.00    -0.287 OA
ATOM     27  C   UNL A   1     -23.232   1.738  25.904  0.00  0.00    +0.192 C 
ATOM     28  C   UNL A   1     -22.002   1.836  26.526  0.00  0.00    +0.041 C 
ATOM     29  C   UNL A   1     -21.897   1.623  27.891  0.00  0.00    -0.001 C 
ATOM     30  C   UNL A   1     -23.132   1.434  28.681  0.00  0.00    -0.022 C 
ATOM     31  C   UNL A   1     -24.344   1.490  26.736  0.00  0.00    +0.024 C 
ATOM     32  C   UNL A   1     -24.229   1.161  27.989  0.00  0.00    -0.005 C 
BRANCH  31  33
ATOM     33  C   UNL A   1     -25.688   1.614  26.461  0.00  0.00    +0.095 C 
ATOM     34  C   UNL A   1     -26.250   2.920  26.395  0.00  0.00    +0.059 C 
ATOM     35  C   UNL A   1     -27.438   3.091  25.645  0.00  0.00    +0.102 C 
ATOM     36  N   UNL A   1     -28.075   2.089  25.003  0.00  0.00    -0.212 NA
ATOM     37  C   UNL A   1     -27.543   0.849  25.079  0.00  0.00    +0.234 C 
ATOM     38  C   UNL A   1     -26.354   0.576  25.777  0.00  0.00    +0.244 C 
ATOM     39  F   UNL A   1     -25.860  -0.681  25.795  0.00  0.00    -0.227 F 
BRANCH  34  40
ATOM     40  C   UNL A   1     -25.642   4.093  27.123  0.00  0.00    +0.263 C 
ATOM     41  N   UNL A   1     -25.614   5.252  26.449  0.00  0.00    -0.200 NA
ATOM     42  C   UNL A   1     -25.026   6.479  26.963  0.00  0.00    +0.139 C 
ATOM     43  O   UNL A   1     -25.143   3.966  28.243  0.00  0.00    -0.269 OA
ENDBRANCH  34  40
BRANCH  37  44
ATOM     44  O   UNL A   1     -28.193  -0.208  24.477  0.00  0.00    -0.459 OA
BRANCH  44  45
ATOM     45  C   UNL A   1     -29.460   0.005  23.866  0.00  0.00    +0.242 C 
BRANCH  45  46
ATOM     46  C   UNL A   1     -30.065  -1.377  23.573  0.00  0.00    +0.229 C 
ATOM     47  O   UNL A   1     -30.729  -1.878  24.721  0.00  0.00    -0.216 OA
ENDBRANCH  45  46
ENDBRANCH  44  45
ENDBRANCH  37  44
ENDBRANCH  31  33
ENDBRANCH  25  30
ENDBRANCH   1  25
TORSDOF 12
