MODEL 283
MODEL 1
REMARK VINA RESULT:    -4.600      0.000      0.000
REMARK INTER + INTRA:          -4.600
REMARK INTER:                  -4.600
REMARK INTRA:                   0.000
REMARK UNBOUND:                 0.000
REMARK  Name = No_283-gen_results/8p0m/2024-11-27-11-27-31/
REMARK  0 active torsions:
REMARK  status: ('A' for Active; 'I' for Inactive)
REMARK                            x       y       z     vdW  Elec       q    Type
REMARK                         _______ _______ _______ _____ _____    ______ ____
ROOT
ATOM      1  C   UNL A   1     -10.163  -9.758  18.330  0.00  0.00    +0.030 A 
ATOM      2  C   UNL A   1      -9.181 -10.375  17.988  0.00  0.00    +0.140 A 
ATOM      3  C   UNL A   1      -8.051 -10.477  18.734  0.00  0.00    +0.030 A 
ATOM      4  C   UNL A   1      -8.013  -9.826  19.982  0.00  0.00    +0.002 A 
ATOM      5  C   UNL A   1     -10.229  -9.148  19.634  0.00  0.00    +0.002 A 
ATOM      6  C   UNL A   1      -9.110  -9.197  20.410  0.00  0.00    +0.000 A 
ATOM      7  F   UNL A   1      -9.143 -11.028  16.798  0.00  0.00    -0.204 F 
ENDROOT
TORSDOF 0
ENDMDL
ENDMDL
