REMARK  Name = outputs/IAG933/test6/raw/output_2840_IAG933_linker_design_.xyz
REMARK  7 active torsions:
REMARK  status: ('A' for Active; 'I' for Inactive)
REMARK    1  A    between atoms: C_1  and  C_2
REMARK    2  A    between atoms: C_13  and  N_36
REMARK    3  A    between atoms: C_14  and  C_15
REMARK    4  A    between atoms: C_21  and  O_22
REMARK    5  A    between atoms: O_22  and  C_23
REMARK    6  A    between atoms: C_23  and  C_24
REMARK    7  A    between atoms: C_32  and  C_38
REMARK                            x       y       z     vdW  Elec       q    Type
REMARK                         _______ _______ _______ _____ _____    ______ ____
ROOT
ATOM      1  C   UNL A   1     -24.855  -1.012  30.143  0.00  0.00    +0.201 C 
ATOM      2  C   UNL A   1     -25.387  -0.679  31.571  0.00  0.00    +0.121 C 
ATOM      3  C   UNL A   1     -25.189   0.773  32.028  0.00  0.00    +0.045 C 
ATOM      4  C   UNL A   1     -25.336   0.684  33.544  0.00  0.00    +0.022 C 
ATOM      5  C   UNL A   1     -24.829  -0.715  33.905  0.00  0.00    +0.089 C 
ATOM      6  N   UNL A   1     -24.758  -1.481  32.646  0.00  0.00    -0.215 NA
ATOM      7  C   UNL A   1     -22.393   1.038  28.127  0.00  0.00    +0.168 C 
ATOM      8  N   UNL A   1     -22.177  -0.700  29.925  0.00  0.00    +0.210 NA
ATOM      9  C   UNL A   1     -24.854   0.999  28.770  0.00  0.00    +0.328 C 
ATOM     10  C   UNL A   1     -25.726   1.695  30.933  0.00  0.00    +0.137 C 
ATOM     11  N   UNL A   1     -24.213  -0.104  29.137  0.00  0.00    -0.159 N 
ATOM     12  N   UNL A   1     -24.971   1.952  29.729  0.00  0.00    -0.152 NA
ATOM     13  C   UNL A   1     -22.794  -0.017  29.097  0.00  0.00    +0.377 C 
ATOM     14  N   UNL A   1     -24.643   1.288  27.389  0.00  0.00    -0.229 N 
ATOM     15  S   UNL A   1     -20.859   1.275  27.464  0.00  0.00    +0.107 S 
ATOM     16  C   UNL A   1     -23.334   1.245  27.104  0.00  0.00    +0.137 C 
ATOM     17  O   UNL A   1     -21.479   1.724  25.901  0.00  0.00    -0.389 OA
ATOM     18  F   UNL A   1     -23.406   1.429  24.696  0.00  0.00    -0.161 F 
ATOM     19  C   UNL A   1     -22.782   1.516  25.852  0.00  0.00    +0.309 C 
ENDROOT
BRANCH  14  20
ATOM     20  C   UNL A   1     -25.688   1.614  26.461  0.00  0.00    +0.094 C 
ATOM     21  C   UNL A   1     -26.250   2.920  26.395  0.00  0.00    +0.090 C 
ATOM     22  C   UNL A   1     -27.438   3.091  25.645  0.00  0.00    +0.108 C 
ATOM     23  N   UNL A   1     -28.075   2.089  25.003  0.00  0.00    -0.208 NA
ATOM     24  C   UNL A   1     -27.543   0.849  25.079  0.00  0.00    +0.255 C 
ATOM     25  C   UNL A   1     -26.354   0.576  25.777  0.00  0.00    +0.207 C 
ATOM     26  F   UNL A   1     -25.860  -0.681  25.795  0.00  0.00    -0.198 F 
BRANCH  21  27
ATOM     27  C   UNL A   1     -25.642   4.093  27.123  0.00  0.00    +0.268 C 
ATOM     28  N   UNL A   1     -25.614   5.252  26.449  0.00  0.00    -0.200 NA
ATOM     29  C   UNL A   1     -25.026   6.479  26.963  0.00  0.00    +0.139 C 
ATOM     30  O   UNL A   1     -25.143   3.966  28.243  0.00  0.00    -0.268 OA
ENDBRANCH  21  27
BRANCH  24  31
ATOM     31  O   UNL A   1     -28.193  -0.208  24.477  0.00  0.00    -0.456 OA
BRANCH  31  32
ATOM     32  C   UNL A   1     -29.460   0.005  23.866  0.00  0.00    +0.243 C 
BRANCH  32  33
ATOM     33  C   UNL A   1     -30.065  -1.377  23.573  0.00  0.00    +0.229 C 
ATOM     34  O   UNL A   1     -30.729  -1.878  24.721  0.00  0.00    -0.216 OA
ENDBRANCH  32  33
ENDBRANCH  31  32
ENDBRANCH  24  31
ENDBRANCH  14  20
BRANCH   1  35
ATOM     35  C   UNL A   1     -24.973  -2.505  29.788  0.00  0.00    +0.021 C 
ATOM     36  C   UNL A   1     -23.906  -3.173  29.146  0.00  0.00    -0.000 C 
ATOM     37  C   UNL A   1     -23.989  -4.549  28.853  0.00  0.00    -0.000 C 
ATOM     38  C   UNL A   1     -25.137  -5.280  29.205  0.00  0.00    -0.000 C 
ATOM     39  C   UNL A   1     -26.232  -4.611  29.784  0.00  0.00    -0.000 C 
ATOM     40  C   UNL A   1     -26.155  -3.232  30.065  0.00  0.00    -0.000 C 
ENDBRANCH   1  35
BRANCH  10  42
ATOM     41  O   UNL A   1     -27.853   1.120  30.020  0.00  0.00    -0.295 OA
ATOM     42  C   UNL A   1     -27.177   1.805  30.778  0.00  0.00    +0.167 C 
ATOM     43  C   UNL A   1     -27.884   2.900  31.548  0.00  0.00    +0.074 C 
ENDBRANCH  10  42
TORSDOF 7
