MODEL 2840
MODEL 1
REMARK VINA RESULT:    -8.837      0.000      0.000
REMARK INTER + INTRA:         -12.425
REMARK INTER:                 -11.420
REMARK INTRA:                  -1.005
REMARK UNBOUND:                -1.005
REMARK  Name = No_2840-gen_results/8p0m/2024-11-27-11-27-31/
REMARK  5 active torsions:
REMARK  status: ('A' for Active; 'I' for Inactive)
REMARK    1  A    between atoms: C_2  and  C_4
REMARK    2  A    between atoms: C_6  and  C_11
REMARK    3  A    between atoms: C_9  and  C_16
REMARK    4  A    between atoms: N_17  and  C_19
REMARK    5  A    between atoms: C_22  and  C_25
REMARK                            x       y       z     vdW  Elec       q    Type
REMARK                         _______ _______ _______ _____ _____    ______ ____
ROOT
ATOM      1  C   UNL A   1     -27.451   1.264  24.829  0.00  0.00    +0.056 A 
ATOM      2  C   UNL A   1     -26.992   0.218  24.330  0.00  0.00    +0.005 A 
ATOM      3  C   UNL A   1     -25.690  -0.351  24.799  0.00  0.00    +0.000 A 
ATOM      4  C   UNL A   1     -24.959   0.364  25.786  0.00  0.00    +0.005 A 
ATOM      5  C   UNL A   1     -25.514   1.565  26.225  0.00  0.00    +0.056 A 
ATOM      6  C   UNL A   1     -26.700   2.051  25.732  0.00  0.00    +0.009 A 
ENDROOT
BRANCH   1   8
ATOM      7  O   UNL A   1     -28.645   2.237  23.128  0.00  0.00    -0.268 OA
ATOM      8  C   UNL A   1     -28.790   1.792  24.176  0.00  0.00    +0.272 C 
ATOM      9  N   UNL A   1     -29.739   1.925  24.882  0.00  0.00    -0.133 NA
ATOM     10  C   UNL A   1     -30.896   2.423  24.479  0.00  0.00    +0.325 C 
ATOM     11  O   UNL A   1     -30.958   3.678  24.563  0.00  0.00    -0.263 OA
BRANCH  10  12
ATOM     12  C   UNL A   1     -31.942   1.605  24.023  0.00  0.00    +0.305 C 
ATOM     13  O   UNL A   1     -32.633   0.963  24.853  0.00  0.00    -0.265 OA
ATOM     14  N   UNL A   1     -32.307   1.583  22.711  0.00  0.00    -0.272 N 
ATOM     15  C   UNL A   1     -33.166   1.057  22.143  0.00  0.00    +0.094 C 
ATOM     16  C   UNL A   1     -33.348   1.290  20.892  0.00  0.00    +0.022 C 
ATOM     17  C   UNL A   1     -32.934   2.058  20.239  0.00  0.00    +0.004 C 
ATOM     18  C   UNL A   1     -31.804   2.889  20.789  0.00  0.00    +0.022 C 
ATOM     19  C   UNL A   1     -31.594   2.693  22.017  0.00  0.00    +0.094 C 
ENDBRANCH  10  12
ENDBRANCH   1   8
BRANCH   5  20
ATOM     20  C   UNL A   1     -24.723   2.348  27.182  0.00  0.00    +0.269 C 
ATOM     21  N   UNL A   1     -24.931   2.262  28.401  0.00  0.00    -0.175 NA
ATOM     22  O   UNL A   1     -23.822   3.195  26.782  0.00  0.00    -0.268 OA
BRANCH  21  23
ATOM     23  C   UNL A   1     -25.902   1.326  29.048  0.00  0.00    +0.074 A 
ATOM     24  C   UNL A   1     -26.351   1.666  30.090  0.00  0.00    +0.017 A 
ATOM     25  C   UNL A   1     -25.057   0.007  29.312  0.00  0.00    +0.017 A 
ATOM     26  C   UNL A   1     -25.532  -0.931  29.602  0.00  0.00    +0.001 A 
ATOM     27  C   UNL A   1     -26.554  -0.791  30.745  0.00  0.00    +0.000 A 
ATOM     28  C   UNL A   1     -27.170   0.503  30.775  0.00  0.00    +0.001 A 
BRANCH  26  29
ATOM     29  C   UNL A   1     -25.173  -2.368  29.408  0.00  0.00    +0.000 A 
ATOM     30  C   UNL A   1     -24.238  -2.840  28.892  0.00  0.00    +0.002 A 
ATOM     31  C   UNL A   1     -26.332  -3.250  29.832  0.00  0.00    +0.002 A 
ATOM     32  C   UNL A   1     -23.948  -4.238  28.590  0.00  0.00    +0.030 A 
ATOM     33  C   UNL A   1     -26.179  -4.669  29.610  0.00  0.00    +0.030 A 
ATOM     34  C   UNL A   1     -24.984  -5.130  28.987  0.00  0.00    +0.140 A 
ATOM     35  F   UNL A   1     -24.855  -6.428  28.796  0.00  0.00    -0.204 F 
ENDBRANCH  26  29
ENDBRANCH  21  23
ENDBRANCH   5  20
TORSDOF 5
ENDMDL
ENDMDL
