REMARK  Name = outputs/IAG933/test6/raw/output_2841_IAG933_linker_design_.xyz
REMARK  10 active torsions:
REMARK  status: ('A' for Active; 'I' for Inactive)
REMARK    1  A    between atoms: C_1  and  C_2
REMARK    2  A    between atoms: C_1  and  C_8
REMARK    3  A    between atoms: C_1  and  N_36
REMARK    4  A    between atoms: C_13  and  C_28
REMARK    5  A    between atoms: C_14  and  C_15
REMARK    6  A    between atoms: C_21  and  O_22
REMARK    7  A    between atoms: O_22  and  C_23
REMARK    8  A    between atoms: C_23  and  C_24
REMARK    9  A    between atoms: C_34  and  C_42
REMARK   10  A    between atoms: C_43  and  C_44
REMARK                            x       y       z     vdW  Elec       q    Type
REMARK                         _______ _______ _______ _____ _____    ______ ____
ROOT
ATOM      1  C   UNL A   1     -24.762   1.281  27.565  0.00  0.00    +0.107 C 
ATOM      2  C   UNL A   1     -21.128   1.510  27.888  0.00  0.00    +0.124 C 
ATOM      3  O   UNL A   1     -22.325  -0.262  29.807  0.00  0.00    -0.252 OA
ATOM      4  C   UNL A   1     -23.017   0.194  28.930  0.00  0.00    +0.313 C 
ATOM      5  C   UNL A   1     -25.747   0.805  28.683  0.00  0.00    +0.108 C 
ATOM      6  C   UNL A   1     -23.393   1.462  27.022  0.00  0.00    +0.234 C 
ATOM      7  N   UNL A   1     -24.506  -0.033  28.944  0.00  0.00    -0.258 N 
ATOM      8  N   UNL A   1     -22.478   0.962  27.898  0.00  0.00    -0.212 N 
ATOM      9  O   UNL A   1     -23.113   2.067  25.985  0.00  0.00    -0.274 OA
ENDROOT
BRANCH   1  10
ATOM     10  C   UNL A   1     -25.688   1.614  26.461  0.00  0.00    +0.081 C 
ATOM     11  C   UNL A   1     -26.250   2.920  26.395  0.00  0.00    +0.055 C 
ATOM     12  C   UNL A   1     -27.438   3.091  25.645  0.00  0.00    +0.102 C 
ATOM     13  N   UNL A   1     -28.075   2.089  25.003  0.00  0.00    -0.212 NA
ATOM     14  C   UNL A   1     -27.543   0.849  25.079  0.00  0.00    +0.234 C 
ATOM     15  C   UNL A   1     -26.354   0.576  25.777  0.00  0.00    +0.240 C 
ATOM     16  F   UNL A   1     -25.860  -0.681  25.795  0.00  0.00    -0.227 F 
BRANCH  11  17
ATOM     17  C   UNL A   1     -25.642   4.093  27.123  0.00  0.00    +0.263 C 
ATOM     18  N   UNL A   1     -25.614   5.252  26.449  0.00  0.00    -0.200 NA
ATOM     19  C   UNL A   1     -25.026   6.479  26.963  0.00  0.00    +0.139 C 
ATOM     20  O   UNL A   1     -25.143   3.966  28.243  0.00  0.00    -0.269 OA
ENDBRANCH  11  17
BRANCH  14  21
ATOM     21  O   UNL A   1     -28.193  -0.208  24.477  0.00  0.00    -0.459 OA
BRANCH  21  22
ATOM     22  C   UNL A   1     -29.460   0.005  23.866  0.00  0.00    +0.242 C 
BRANCH  22  23
ATOM     23  C   UNL A   1     -30.065  -1.377  23.573  0.00  0.00    +0.229 C 
ATOM     24  O   UNL A   1     -30.729  -1.878  24.721  0.00  0.00    -0.216 OA
ENDBRANCH  22  23
ENDBRANCH  21  22
ENDBRANCH  14  21
ENDBRANCH   1  10
BRANCH   5  25
ATOM     25  C   UNL A   1     -27.236  -0.029  28.877  0.00  0.00    -0.011 C 
ATOM     26  C   UNL A   1     -28.290   0.510  29.634  0.00  0.00    -0.029 C 
BRANCH  26  32
ATOM     27  O   UNL A   1     -26.820   4.880  31.910  0.00  0.00    -0.223 OA
ATOM     28  C   UNL A   1     -28.890   3.526  31.960  0.00  0.00    +0.033 C 
ATOM     29  C   UNL A   1     -27.756   4.073  31.254  0.00  0.00    +0.152 C 
ATOM     30  C   UNL A   1     -29.372   2.356  31.132  0.00  0.00    +0.007 C 
ATOM     31  C   UNL A   1     -27.237   2.967  30.429  0.00  0.00    +0.037 C 
ATOM     32  C   UNL A   1     -28.082   1.809  30.470  0.00  0.00    +0.024 C 
ENDBRANCH  26  32
ENDBRANCH   5  25
BRANCH   7  33
ATOM     33  C   UNL A   1     -24.855  -1.012  30.143  0.00  0.00    +0.116 C 
BRANCH  33  34
ATOM     34  C   UNL A   1     -24.973  -2.505  29.788  0.00  0.00    -0.003 C 
ATOM     35  C   UNL A   1     -23.906  -3.173  29.146  0.00  0.00    -0.003 C 
ATOM     36  C   UNL A   1     -23.989  -4.549  28.853  0.00  0.00    -0.000 C 
ATOM     37  C   UNL A   1     -25.137  -5.280  29.205  0.00  0.00    -0.000 C 
ATOM     38  C   UNL A   1     -26.232  -4.611  29.784  0.00  0.00    -0.000 C 
ATOM     39  C   UNL A   1     -26.155  -3.232  30.065  0.00  0.00    -0.003 C 
ENDBRANCH  33  34
BRANCH  33  40
ATOM     40  C   UNL A   1     -25.387  -0.679  31.571  0.00  0.00    +0.095 C 
ATOM     41  C   UNL A   1     -25.189   0.773  32.028  0.00  0.00    +0.021 C 
ATOM     42  C   UNL A   1     -25.336   0.684  33.544  0.00  0.00    +0.020 C 
ATOM     43  C   UNL A   1     -24.829  -0.715  33.905  0.00  0.00    +0.089 C 
ATOM     44  N   UNL A   1     -24.758  -1.481  32.646  0.00  0.00    -0.217 NA
ENDBRANCH  33  40
ENDBRANCH   7  33
TORSDOF 10
