MODEL 2842
MODEL 1
REMARK VINA RESULT:    -7.396      0.000      0.000
REMARK INTER + INTRA:          -7.829
REMARK INTER:                  -7.828
REMARK INTRA:                  -0.002
REMARK UNBOUND:                -0.002
REMARK  Name = No_2842-gen_results/8p0m/2024-11-27-11-27-31/
REMARK  1 active torsions:
REMARK  status: ('A' for Active; 'I' for Inactive)
REMARK    1  A    between atoms: C_5  and  C_16
REMARK                            x       y       z     vdW  Elec       q    Type
REMARK                         _______ _______ _______ _____ _____    ______ ____
ROOT
ATOM      1  C   UNL A   1     -30.772 -10.144  28.690  0.00  0.00    -0.008 C 
ATOM      2  C   UNL A   1     -30.073 -10.230  29.673  0.00  0.00    -0.040 C 
ATOM      3  C   UNL A   1     -29.259 -11.307  29.980  0.00  0.00    +0.045 C 
ATOM      4  C   UNL A   1     -29.224 -12.382  29.043  0.00  0.00    +0.039 C 
ATOM      5  C   UNL A   1     -29.883 -12.192  27.889  0.00  0.00    +0.032 C 
ATOM      6  C   UNL A   1     -30.591 -11.123  27.667  0.00  0.00    -0.000 C 
ATOM      7  C   UNL A   1     -28.516 -11.429  31.285  0.00  0.00    -0.022 A 
ATOM      8  C   UNL A   1     -29.023 -10.656  32.261  0.00  0.00    -0.019 A 
ATOM      9  C   UNL A   1     -28.338 -10.603  33.566  0.00  0.00    +0.053 A 
ATOM     10  C   UNL A   1     -27.462 -11.633  33.863  0.00  0.00    +0.004 A 
ATOM     11  C   UNL A   1     -27.563 -12.351  31.625  0.00  0.00    -0.004 A 
ATOM     12  C   UNL A   1     -26.906 -12.372  32.871  0.00  0.00    -0.000 A 
ATOM     13  C   UNL A   1     -28.891  -9.724  34.632  0.00  0.00    +0.275 C 
ATOM     14  N   UNL A   1     -29.968  -8.944  34.368  0.00  0.00    -0.234 NA
ATOM     15  O   UNL A   1     -28.410  -9.721  35.782  0.00  0.00    -0.266 OA
ATOM     16  C   UNL A   1     -30.602  -8.673  33.179  0.00  0.00    +0.133 C 
ATOM     17  C   UNL A   1     -30.226  -9.653  32.157  0.00  0.00    +0.051 C 
ATOM     18  C   UNL A   1     -30.513  -9.360  30.880  0.00  0.00    +0.029 C 
ENDROOT
BRANCH   5  19
ATOM     19  C   UNL A   1     -29.724 -13.411  26.986  0.00  0.00    +0.245 C 
ATOM     20  O   UNL A   1     -28.741 -13.722  26.403  0.00  0.00    -0.270 OA
ATOM     21  N   UNL A   1     -30.748 -14.341  27.108  0.00  0.00    -0.273 N 
ATOM     22  C   UNL A   1     -31.981 -14.168  27.799  0.00  0.00    +0.115 C 
ATOM     23  C   UNL A   1     -30.603 -15.544  26.261  0.00  0.00    +0.115 C 
ENDBRANCH   5  19
TORSDOF 1
ENDMDL
ENDMDL
