MODEL 2843
MODEL 1
REMARK VINA RESULT:    -6.243      0.000      0.000
REMARK INTER + INTRA:          -8.321
REMARK INTER:                  -7.702
REMARK INTRA:                  -0.618
REMARK UNBOUND:                -0.618
REMARK  Name = No_2843-gen_results/8p0m/2024-11-27-11-27-31/
REMARK  4 active torsions:
REMARK  status: ('A' for Active; 'I' for Inactive)
REMARK    1  A    between atoms: C_3  and  C_4
REMARK    2  A    between atoms: C_4  and  C_8
REMARK    3  A    between atoms: C_9  and  C_10
REMARK    4  A    between atoms: C_11  and  C_13
REMARK                            x       y       z     vdW  Elec       q    Type
REMARK                         _______ _______ _______ _____ _____    ______ ____
ROOT
ATOM      1  C   UNL A   1     -24.840  -1.184  29.619  0.00  0.00    +0.048 C 
ENDROOT
BRANCH   1   4
ATOM      2  C   UNL A   1     -23.844  -3.468  28.804  0.00  0.00    -0.004 A 
ATOM      3  C   UNL A   1     -24.097  -4.476  28.630  0.00  0.00    -0.000 A 
ATOM      4  C   UNL A   1     -24.884  -2.624  29.415  0.00  0.00    -0.018 A 
ATOM      5  C   UNL A   1     -25.254  -5.291  29.074  0.00  0.00    -0.000 A 
ATOM      6  C   UNL A   1     -26.280  -4.565  29.669  0.00  0.00    -0.000 A 
ATOM      7  C   UNL A   1     -26.140  -3.212  29.892  0.00  0.00    -0.004 A 
ENDBRANCH   1   4
BRANCH   1   8
ATOM      8  C   UNL A   1     -23.537  -0.540  29.386  0.00  0.00    -0.040 C 
ATOM      9  C   UNL A   1     -23.226  -0.049  28.370  0.00  0.00    -0.008 C 
ATOM     10  C   UNL A   1     -22.775  -0.294  30.643  0.00  0.00    +0.027 C 
BRANCH   9  11
ATOM     11  C   UNL A   1     -22.110   0.582  28.207  0.00  0.00    -0.003 C 
ATOM     12  C   UNL A   1     -21.984   1.835  27.482  0.00  0.00    +0.009 C 
BRANCH  12  13
ATOM     13  C   UNL A   1     -23.090   2.134  26.744  0.00  0.00    +0.208 C 
ATOM     14  O   UNL A   1     -22.980   2.202  25.399  0.00  0.00    -0.215 OA
ENDBRANCH  12  13
ENDBRANCH   9  11
ENDBRANCH   1   8
TORSDOF 4
ENDMDL
ENDMDL
