REMARK  Name = outputs/IAG933/test6/raw/output_2843_IAG933_linker_design_.xyz
REMARK  12 active torsions:
REMARK  status: ('A' for Active; 'I' for Inactive)
REMARK    1  A    between atoms: C_1  and  C_2
REMARK    2  A    between atoms: C_1  and  C_8
REMARK    3  A    between atoms: C_1  and  N_39
REMARK    4  A    between atoms: C_13  and  C_33
REMARK    5  A    between atoms: C_14  and  C_15
REMARK    6  A    between atoms: C_21  and  O_22
REMARK    7  A    between atoms: O_22  and  C_23
REMARK    8  A    between atoms: C_23  and  C_24
REMARK    9  A    between atoms: C_29  and  S_34
REMARK   10  A    between atoms: C_29  and  C_41
REMARK   11  A    between atoms: C_30  and  S_34
REMARK   12  A    between atoms: C_36  and  O_37
REMARK                            x       y       z     vdW  Elec       q    Type
REMARK                         _______ _______ _______ _____ _____    ______ ____
ROOT
ATOM      1  C   UNL A   1     -25.310   0.507  28.509  0.00  0.00    +0.087 A 
ATOM      2  N   UNL A   1     -22.118   0.093  29.765  0.00  0.00    -0.106 NA
ATOM      3  C   UNL A   1     -24.689   1.238  27.453  0.00  0.00    +0.043 A 
ATOM      4  C   UNL A   1     -23.417   1.093  27.664  0.00  0.00    +0.170 A 
ATOM      5  N   UNL A   1     -24.546  -0.176  29.247  0.00  0.00    -0.303 N 
ATOM      6  C   UNL A   1     -23.286   0.280  28.901  0.00  0.00    +0.186 A 
ENDROOT
BRANCH   3   7
ATOM      7  C   UNL A   1     -25.688   1.614  26.461  0.00  0.00    +0.097 C 
ATOM      8  C   UNL A   1     -26.250   2.920  26.395  0.00  0.00    +0.059 C 
ATOM      9  C   UNL A   1     -27.438   3.091  25.645  0.00  0.00    +0.102 C 
ATOM     10  N   UNL A   1     -28.075   2.089  25.003  0.00  0.00    -0.212 NA
ATOM     11  C   UNL A   1     -27.543   0.849  25.079  0.00  0.00    +0.234 C 
ATOM     12  C   UNL A   1     -26.354   0.576  25.777  0.00  0.00    +0.244 C 
ATOM     13  F   UNL A   1     -25.860  -0.681  25.795  0.00  0.00    -0.227 F 
BRANCH   8  14
ATOM     14  C   UNL A   1     -25.642   4.093  27.123  0.00  0.00    +0.263 C 
ATOM     15  N   UNL A   1     -25.614   5.252  26.449  0.00  0.00    -0.200 NA
ATOM     16  C   UNL A   1     -25.026   6.479  26.963  0.00  0.00    +0.139 C 
ATOM     17  O   UNL A   1     -25.143   3.966  28.243  0.00  0.00    -0.269 OA
ENDBRANCH   8  14
BRANCH  11  18
ATOM     18  O   UNL A   1     -28.193  -0.208  24.477  0.00  0.00    -0.459 OA
BRANCH  18  19
ATOM     19  C   UNL A   1     -29.460   0.005  23.866  0.00  0.00    +0.242 C 
BRANCH  19  20
ATOM     20  C   UNL A   1     -30.065  -1.377  23.573  0.00  0.00    +0.229 C 
ATOM     21  O   UNL A   1     -30.729  -1.878  24.721  0.00  0.00    -0.216 OA
ENDBRANCH  19  20
ENDBRANCH  18  19
ENDBRANCH  11  18
ENDBRANCH   3   7
BRANCH   4  22
ATOM     22  O   UNL A   1     -22.479   1.702  26.947  0.00  0.00    -0.469 OA
ATOM     23  C   UNL A   1     -21.120   1.609  27.435  0.00  0.00    +0.253 C 
ENDBRANCH   4  22
BRANCH   5  24
ATOM     24  C   UNL A   1     -24.855  -1.012  30.143  0.00  0.00    +0.126 C 
BRANCH  24  25
ATOM     25  C   UNL A   1     -24.973  -2.505  29.788  0.00  0.00    -0.000 C 
ATOM     26  C   UNL A   1     -23.906  -3.173  29.146  0.00  0.00    -0.002 C 
ATOM     27  C   UNL A   1     -23.989  -4.549  28.853  0.00  0.00    -0.000 C 
ATOM     28  C   UNL A   1     -25.137  -5.280  29.205  0.00  0.00    -0.000 C 
ATOM     29  C   UNL A   1     -26.232  -4.611  29.784  0.00  0.00    -0.000 C 
ATOM     30  C   UNL A   1     -26.155  -3.232  30.065  0.00  0.00    -0.002 C 
ENDBRANCH  24  25
BRANCH  24  31
ATOM     31  C   UNL A   1     -25.387  -0.679  31.571  0.00  0.00    +0.098 C 
ATOM     32  C   UNL A   1     -25.189   0.773  32.028  0.00  0.00    +0.021 C 
ATOM     33  C   UNL A   1     -25.336   0.684  33.544  0.00  0.00    +0.020 C 
ATOM     34  C   UNL A   1     -24.829  -0.715  33.905  0.00  0.00    +0.089 C 
ATOM     35  N   UNL A   1     -24.758  -1.481  32.646  0.00  0.00    -0.217 NA
ENDBRANCH  24  31
ENDBRANCH   5  24
BRANCH   1  36
ATOM     36  S   UNL A   1     -27.102   0.807  28.807  0.00  0.00    -0.089 S 
BRANCH  36  37
ATOM     37  C   UNL A   1     -28.863   0.206  28.083  0.00  0.00    +0.127 C 
BRANCH  37  42
ATOM     38  C   UNL A   1     -30.950  -2.822  29.606  0.00  0.00    +0.021 C 
ATOM     39  C   UNL A   1     -31.604  -2.097  28.611  0.00  0.00    +0.002 C 
ATOM     40  C   UNL A   1     -31.010  -0.923  28.200  0.00  0.00    +0.033 C 
ATOM     41  C   UNL A   1     -29.733  -2.440  30.108  0.00  0.00    +0.231 C 
ATOM     42  C   UNL A   1     -29.777  -0.637  28.740  0.00  0.00    +0.128 C 
ATOM     43  O   UNL A   1     -29.273  -1.262  29.845  0.00  0.00    -0.474 OA
ENDBRANCH  37  42
ENDBRANCH  36  37
ENDBRANCH   1  36
TORSDOF 12
