MODEL 2845
MODEL 1
REMARK VINA RESULT:    -4.203      0.000      0.000
REMARK INTER + INTRA:          -4.203
REMARK INTER:                  -4.203
REMARK INTRA:                   0.000
REMARK UNBOUND:                 0.000
REMARK  Name = No_2845-gen_results/8p0m/2024-11-27-11-27-31/
REMARK  0 active torsions:
REMARK  status: ('A' for Active; 'I' for Inactive)
REMARK                            x       y       z     vdW  Elec       q    Type
REMARK                         _______ _______ _______ _____ _____    ______ ____
ROOT
ATOM      1  C   UNL A   1     -26.200  -4.847  29.691  0.00  0.00    +0.000 A 
ATOM      2  C   UNL A   1     -26.258  -3.796  29.741  0.00  0.00    +0.000 A 
ATOM      3  C   UNL A   1     -25.026  -5.410  29.004  0.00  0.00    +0.000 A 
ATOM      4  C   UNL A   1     -23.968  -4.562  28.564  0.00  0.00    +0.000 A 
ATOM      5  C   UNL A   1     -25.290  -2.712  29.422  0.00  0.00    +0.000 A 
ATOM      6  C   UNL A   1     -24.192  -3.194  28.774  0.00  0.00    +0.000 A 
ENDROOT
TORSDOF 0
ENDMDL
ENDMDL
