MODEL 2846
MODEL 1
REMARK VINA RESULT:    -7.744      0.000      0.000
REMARK INTER + INTRA:         -10.889
REMARK INTER:                 -10.007
REMARK INTRA:                  -0.882
REMARK UNBOUND:                -0.882
REMARK  Name = No_2846-gen_results/8p0m/2024-11-27-11-27-31/
REMARK  5 active torsions:
REMARK  status: ('A' for Active; 'I' for Inactive)
REMARK    1  A    between atoms: C_2  and  C_3
REMARK    2  A    between atoms: C_2  and  C_9
REMARK    3  A    between atoms: C_9  and  C_15
REMARK    4  A    between atoms: C_15  and  C_16
REMARK    5  A    between atoms: C_21  and  C_23
REMARK                            x       y       z     vdW  Elec       q    Type
REMARK                         _______ _______ _______ _____ _____    ______ ____
ROOT
ATOM      1  C   UNL A   1     -24.924  -0.277  28.753  0.00  0.00    +0.031 C 
ATOM      2  C   UNL A   1     -24.790   0.075  27.697  0.00  0.00    +0.000 C 
ATOM      3  C   UNL A   1     -25.587  -0.302  26.549  0.00  0.00    -0.000 C 
ATOM      4  C   UNL A   1     -25.009   0.056  25.234  0.00  0.00    -0.000 C 
ATOM      5  C   UNL A   1     -24.133   1.135  25.305  0.00  0.00    -0.000 C 
ATOM      6  C   UNL A   1     -23.827   1.001  26.947  0.00  0.00    -0.000 C 
ENDROOT
BRANCH   1   8
ATOM      7 BR   UNL A   1     -27.509  -0.591  29.351  0.00  0.00    -0.072 Br
ATOM      8  C   UNL A   1     -26.011  -1.254  29.121  0.00  0.00    +0.104 C 
BRANCH   8   9
ATOM      9  C   UNL A   1     -25.697  -2.499  29.114  0.00  0.00    -0.008 A 
ATOM     10  C   UNL A   1     -24.329  -2.860  28.601  0.00  0.00    -0.003 A 
ATOM     11  C   UNL A   1     -23.964  -4.225  28.576  0.00  0.00    -0.000 A 
ATOM     12  C   UNL A   1     -24.848  -5.198  29.120  0.00  0.00    -0.000 A 
ATOM     13  C   UNL A   1     -26.075  -4.872  29.649  0.00  0.00    -0.000 A 
ATOM     14  C   UNL A   1     -26.454  -3.539  29.651  0.00  0.00    -0.003 A 
ENDBRANCH   8   9
ENDBRANCH   1   8
BRANCH   1  15
ATOM     15  C   UNL A   1     -24.160   0.269  29.901  0.00  0.00    +0.193 C 
ATOM     16  O   UNL A   1     -22.859   0.221  29.808  0.00  0.00    -0.287 OA
BRANCH  15  17
ATOM     17  C   UNL A   1     -24.708   1.102  30.897  0.00  0.00    +0.043 A 
ATOM     18  C   UNL A   1     -25.145   2.195  30.790  0.00  0.00    +0.003 A 
ATOM     19  C   UNL A   1     -25.742   2.923  31.872  0.00  0.00    +0.000 A 
ATOM     20  C   UNL A   1     -25.699   2.325  33.138  0.00  0.00    -0.000 A 
ATOM     21  C   UNL A   1     -25.174   1.064  33.333  0.00  0.00    +0.004 A 
ATOM     22  C   UNL A   1     -24.665   0.375  32.262  0.00  0.00    +0.074 A 
BRANCH  22  23
ATOM     23  C   UNL A   1     -24.131  -0.944  32.509  0.00  0.00    +0.419 C 
ATOM     24  F   UNL A   1     -24.603  -1.805  31.787  0.00  0.00    -0.166 F 
ATOM     25  F   UNL A   1     -24.335  -1.306  33.795  0.00  0.00    -0.166 F 
ATOM     26  F   UNL A   1     -22.767  -0.853  32.388  0.00  0.00    -0.166 F 
ENDBRANCH  22  23
ENDBRANCH  15  17
ENDBRANCH   1  15
TORSDOF 5
ENDMDL
ENDMDL
