MODEL 2847
MODEL 1
REMARK VINA RESULT:    -5.968      0.000      0.000
REMARK INTER + INTRA:          -6.354
REMARK INTER:                  -6.317
REMARK INTRA:                  -0.036
REMARK UNBOUND:                -0.036
REMARK  Name = No_2847-gen_results/8p0m/2024-11-27-11-27-31/
REMARK  1 active torsions:
REMARK  status: ('A' for Active; 'I' for Inactive)
REMARK    1  A    between atoms: C_8  and  C_11
REMARK                            x       y       z     vdW  Elec       q    Type
REMARK                         _______ _______ _______ _____ _____    ______ ____
ROOT
ATOM      1  C   UNL A   1     -29.906 -11.513  27.899  0.00  0.00    +0.000 A 
ATOM      2  C   UNL A   1     -29.103 -11.964  28.683  0.00  0.00    +0.000 A 
ATOM      3  C   UNL A   1     -28.966 -11.508  29.994  0.00  0.00    +0.000 A 
ATOM      4  C   UNL A   1     -29.780 -10.395  30.443  0.00  0.00    +0.000 A 
ATOM      5  C   UNL A   1     -30.687  -9.915  29.471  0.00  0.00    +0.000 A 
ATOM      6  C   UNL A   1     -30.739 -10.404  28.258  0.00  0.00    +0.000 A 
ATOM      7  C   UNL A   1     -28.014 -12.021  31.014  0.00  0.00    +0.002 A 
ATOM      8  C   UNL A   1     -28.010 -11.643  32.270  0.00  0.00    +0.021 A 
ATOM      9  C   UNL A   1     -29.000 -10.617  32.640  0.00  0.00    +0.002 A 
ATOM     10  C   UNL A   1     -29.818 -10.007  31.788  0.00  0.00    +0.000 A 
ENDROOT
BRANCH   8  11
ATOM     11  C   UNL A   1     -27.137 -12.160  33.303  0.00  0.00    +0.122 C 
ATOM     12  N   UNL A   1     -27.590 -12.354  34.536  0.00  0.00    -0.146 NA
ENDBRANCH   8  11
TORSDOF 1
ENDMDL
ENDMDL
