MODEL 2848
MODEL 1
REMARK VINA RESULT:    -6.994      0.000      0.000
REMARK INTER + INTRA:          -8.612
REMARK INTER:                  -8.221
REMARK INTRA:                  -0.391
REMARK UNBOUND:                -0.391
REMARK  Name = No_2848-gen_results/8p0m/2024-11-27-11-27-31/
REMARK  3 active torsions:
REMARK  status: ('A' for Active; 'I' for Inactive)
REMARK    1  A    between atoms: C_1  and  C_2
REMARK    2  A    between atoms: C_3  and  C_16
REMARK    3  A    between atoms: C_5  and  C_10
REMARK                            x       y       z     vdW  Elec       q    Type
REMARK                         _______ _______ _______ _____ _____    ______ ____
ROOT
ATOM      1  C   UNL A   1     -24.399  -0.855  28.057  0.00  0.00    +0.006 A 
ATOM      2  C   UNL A   1     -23.290  -0.063  28.303  0.00  0.00    +0.080 A 
ATOM      3  C   UNL A   1     -22.898   1.111  27.561  0.00  0.00    +0.013 A 
ATOM      4  C   UNL A   1     -23.697   1.518  26.467  0.00  0.00    +0.080 A 
ATOM      5  C   UNL A   1     -24.847   0.747  26.158  0.00  0.00    +0.007 A 
ATOM      6  C   UNL A   1     -25.151  -0.328  26.936  0.00  0.00    +0.000 A 
ENDROOT
BRANCH   1   7
ATOM      7  C   UNL A   1     -24.747  -1.795  28.734  0.00  0.00    +0.000 A 
ATOM      8  C   UNL A   1     -24.307  -3.124  28.229  0.00  0.00    +0.000 A 
ATOM      9  C   UNL A   1     -24.771  -4.336  28.910  0.00  0.00    +0.000 A 
ATOM     10  C   UNL A   1     -25.562  -4.245  29.708  0.00  0.00    +0.000 A 
ATOM     11  C   UNL A   1     -26.451  -3.288  29.986  0.00  0.00    +0.000 A 
ATOM     12  C   UNL A   1     -26.141  -2.064  29.351  0.00  0.00    +0.000 A 
ENDBRANCH   1   7
BRANCH   4  13
ATOM     13  C   UNL A   1     -23.365   2.683  25.651  0.00  0.00    +0.388 C 
ATOM     14  O   UNL A   1     -22.414   2.564  24.853  0.00  0.00    -0.241 OA
ATOM     15  O   UNL A   1     -24.204   3.695  25.646  0.00  0.00    -0.241 OA
ENDBRANCH   4  13
BRANCH   2  16
ATOM     16  C   UNL A   1     -22.438  -0.450  29.436  0.00  0.00    +0.388 C 
ATOM     17  O   UNL A   1     -22.648  -0.116  30.385  0.00  0.00    -0.241 OA
ATOM     18  O   UNL A   1     -21.404  -1.196  29.129  0.00  0.00    -0.241 OA
ENDBRANCH   2  16
TORSDOF 3
ENDMDL
ENDMDL
