REMARK  Name = outputs/IAG933/test6/raw/output_2849_IAG933_linker_design_.xyz
REMARK  11 active torsions:
REMARK  status: ('A' for Active; 'I' for Inactive)
REMARK    1  A    between atoms: C_1  and  C_2
REMARK    2  A    between atoms: C_1  and  C_8
REMARK    3  A    between atoms: C_1  and  C_30
REMARK    4  A    between atoms: C_13  and  C_40
REMARK    5  A    between atoms: C_14  and  C_15
REMARK    6  A    between atoms: C_21  and  O_22
REMARK    7  A    between atoms: O_22  and  C_23
REMARK    8  A    between atoms: C_23  and  C_24
REMARK    9  A    between atoms: C_30  and  C_32
REMARK   10  A    between atoms: C_30  and  C_38
REMARK   11  A    between atoms: C_38  and  C_39
REMARK                            x       y       z     vdW  Elec       q    Type
REMARK                         _______ _______ _______ _____ _____    ______ ____
ROOT
ATOM      1  O   UNL A   1     -22.383   0.134  30.038  0.00  0.00    -0.220 OA
ATOM      2  O   UNL A   1     -21.233   1.936  27.016  0.00  0.00    -0.324 OA
ATOM      3  C   UNL A   1     -23.305   1.267  26.831  0.00  0.00    +0.152 C 
ATOM      4  C   UNL A   1     -24.130   0.259  28.365  0.00  0.00    +0.040 C 
ATOM      5  C   UNL A   1     -22.892   0.725  28.973  0.00  0.00    +0.182 C 
ATOM      6  C   UNL A   1     -21.623   2.067  25.641  0.00  0.00    +0.294 C 
ATOM      7  C   UNL A   1     -24.472   1.362  27.258  0.00  0.00    +0.057 C 
ATOM      8  C   UNL A   1     -22.403   1.875  27.865  0.00  0.00    +0.175 C 
ATOM      9  O   UNL A   1     -23.027   2.095  25.708  0.00  0.00    -0.326 OA
ENDROOT
BRANCH   7  10
ATOM     10  C   UNL A   1     -25.688   1.614  26.461  0.00  0.00    +0.018 C 
ATOM     11  C   UNL A   1     -26.250   2.920  26.395  0.00  0.00    +0.073 C 
ATOM     12  C   UNL A   1     -27.438   3.091  25.645  0.00  0.00    +0.106 C 
ATOM     13  N   UNL A   1     -28.075   2.089  25.003  0.00  0.00    -0.208 NA
ATOM     14  C   UNL A   1     -27.543   0.849  25.079  0.00  0.00    +0.253 C 
ATOM     15  C   UNL A   1     -26.354   0.576  25.777  0.00  0.00    +0.189 C 
ATOM     16  F   UNL A   1     -25.860  -0.681  25.795  0.00  0.00    -0.200 F 
BRANCH  11  17
ATOM     17  C   UNL A   1     -25.642   4.093  27.123  0.00  0.00    +0.266 C 
ATOM     18  N   UNL A   1     -25.614   5.252  26.449  0.00  0.00    -0.200 NA
ATOM     19  C   UNL A   1     -25.026   6.479  26.963  0.00  0.00    +0.139 C 
ATOM     20  O   UNL A   1     -25.143   3.966  28.243  0.00  0.00    -0.268 OA
ENDBRANCH  11  17
BRANCH  14  21
ATOM     21  O   UNL A   1     -28.193  -0.208  24.477  0.00  0.00    -0.456 OA
BRANCH  21  22
ATOM     22  C   UNL A   1     -29.460   0.005  23.866  0.00  0.00    +0.243 C 
BRANCH  22  23
ATOM     23  C   UNL A   1     -30.065  -1.377  23.573  0.00  0.00    +0.229 C 
ATOM     24  O   UNL A   1     -30.729  -1.878  24.721  0.00  0.00    -0.216 OA
ENDBRANCH  22  23
ENDBRANCH  21  22
ENDBRANCH  14  21
ENDBRANCH   7  10
BRANCH   4  25
ATOM     25  C   UNL A   1     -25.372   0.055  29.168  0.00  0.00    +0.013 C 
BRANCH  25  26
ATOM     26  C   UNL A   1     -24.855  -1.012  30.143  0.00  0.00    +0.039 C 
BRANCH  26  27
ATOM     27  C   UNL A   1     -24.973  -2.505  29.788  0.00  0.00    -0.021 C 
ATOM     28  C   UNL A   1     -23.906  -3.173  29.146  0.00  0.00    -0.004 C 
ATOM     29  C   UNL A   1     -23.989  -4.549  28.853  0.00  0.00    -0.000 C 
ATOM     30  C   UNL A   1     -25.137  -5.280  29.205  0.00  0.00    -0.000 C 
ATOM     31  C   UNL A   1     -26.232  -4.611  29.784  0.00  0.00    -0.000 C 
ATOM     32  C   UNL A   1     -26.155  -3.232  30.065  0.00  0.00    -0.004 C 
ENDBRANCH  26  27
BRANCH  26  33
ATOM     33  C   UNL A   1     -25.387  -0.679  31.571  0.00  0.00    +0.077 C 
ATOM     34  C   UNL A   1     -25.189   0.773  32.028  0.00  0.00    +0.019 C 
ATOM     35  C   UNL A   1     -25.336   0.684  33.544  0.00  0.00    +0.020 C 
ATOM     36  C   UNL A   1     -24.829  -0.715  33.905  0.00  0.00    +0.089 C 
ATOM     37  N   UNL A   1     -24.758  -1.481  32.646  0.00  0.00    -0.219 NA
ENDBRANCH  26  33
ENDBRANCH  25  26
BRANCH  25  38
ATOM     38  C   UNL A   1     -26.677   0.479  28.895  0.00  0.00    +0.027 C 
BRANCH  38  42
ATOM     39  C   UNL A   1     -27.035   2.535  30.466  0.00  0.00    -0.004 C 
ATOM     40  C   UNL A   1     -29.770   2.132  30.111  0.00  0.00    -0.000 C 
ATOM     41  C   UNL A   1     -29.320   2.943  31.141  0.00  0.00    -0.000 C 
ATOM     42  C   UNL A   1     -27.516   1.544  29.605  0.00  0.00    -0.022 C 
ATOM     43  C   UNL A   1     -28.866   1.452  29.318  0.00  0.00    -0.004 C 
ATOM     44  C   UNL A   1     -27.953   3.179  31.286  0.00  0.00    -0.000 C 
ENDBRANCH  38  42
ENDBRANCH  25  38
ENDBRANCH   4  25
TORSDOF 11
