MODEL 2849
MODEL 1
REMARK VINA RESULT:    -7.151      0.000      0.000
REMARK INTER + INTRA:          -8.448
REMARK INTER:                  -7.987
REMARK INTRA:                  -0.461
REMARK UNBOUND:                -0.461
REMARK  Name = No_2849-gen_results/8p0m/2024-11-27-11-27-31/
REMARK  2 active torsions:
REMARK  status: ('A' for Active; 'I' for Inactive)
REMARK    1  A    between atoms: C_2  and  C_7
REMARK    2  A    between atoms: C_6  and  C_13
REMARK                            x       y       z     vdW  Elec       q    Type
REMARK                         _______ _______ _______ _____ _____    ______ ____
ROOT
ATOM      1  C   UNL A   1     -28.530 -11.550  31.075  0.00  0.00    +0.007 A 
ATOM      2  C   UNL A   1     -29.350 -10.865  30.508  0.00  0.00    +0.000 A 
ATOM      3  C   UNL A   1     -30.005  -9.832  31.171  0.00  0.00    +0.000 A 
ATOM      4  C   UNL A   1     -29.761  -9.575  32.567  0.00  0.00    +0.000 A 
ATOM      5  C   UNL A   1     -28.816 -10.429  33.150  0.00  0.00    +0.007 A 
ATOM      6  C   UNL A   1     -28.237 -11.402  32.484  0.00  0.00    +0.080 A 
ENDROOT
BRANCH   2   7
ATOM      7  C   UNL A   1     -29.746 -11.005  29.081  0.00  0.00    +0.000 A 
ATOM      8  C   UNL A   1     -30.541 -10.356  28.420  0.00  0.00    +0.000 A 
ATOM      9  C   UNL A   1     -30.768 -10.500  26.976  0.00  0.00    +0.000 A 
ATOM     10  C   UNL A   1     -30.022 -11.496  26.314  0.00  0.00    +0.000 A 
ATOM     11  C   UNL A   1     -28.970 -12.004  28.308  0.00  0.00    +0.000 A 
ATOM     12  C   UNL A   1     -29.139 -12.205  27.017  0.00  0.00    +0.000 A 
ENDBRANCH   2   7
BRANCH   6  13
ATOM     13  C   UNL A   1     -27.323 -12.274  33.256  0.00  0.00    +0.388 C 
ATOM     14  O   UNL A   1     -27.322 -12.365  34.490  0.00  0.00    -0.241 OA
ATOM     15  O   UNL A   1     -26.425 -12.938  32.598  0.00  0.00    -0.241 OA
ENDBRANCH   6  13
TORSDOF 2
ENDMDL
ENDMDL
