MODEL 284
MODEL 1
REMARK VINA RESULT:    -7.453      0.000      0.000
REMARK INTER + INTRA:         -12.011
REMARK INTER:                 -10.502
REMARK INTRA:                  -1.509
REMARK UNBOUND:                -1.509
REMARK  Name = No_284-gen_results/8p0m/2024-11-27-11-27-31/
REMARK  7 active torsions:
REMARK  status: ('A' for Active; 'I' for Inactive)
REMARK    1  A    between atoms: C_5  and  C_11
REMARK    2  A    between atoms: C_8  and  O_14
REMARK    3  A    between atoms: C_10  and  C_21
REMARK    4  A    between atoms: O_14  and  C_15
REMARK    5  A    between atoms: C_15  and  C_16
REMARK    6  A    between atoms: C_21  and  C_22
REMARK    7  A    between atoms: C_21  and  C_28
REMARK                            x       y       z     vdW  Elec       q    Type
REMARK                         _______ _______ _______ _____ _____    ______ ____
ROOT
ATOM      1  C   UNL A   1     -10.668   1.600  34.173  0.00  0.00    +0.038 A 
ATOM      2  C   UNL A   1     -11.656   1.920  34.792  0.00  0.00    +0.003 A 
ATOM      3  C   UNL A   1     -11.714   1.986  36.146  0.00  0.00    -0.003 A 
ATOM      4  C   UNL A   1     -12.914   2.377  36.919  0.00  0.00    +0.006 A 
ATOM      5  C   UNL A   1     -14.083   2.730  36.167  0.00  0.00    +0.080 A 
ATOM      6  C   UNL A   1     -13.960   2.718  34.759  0.00  0.00    +0.007 A 
ATOM      7  C   UNL A   1     -12.812   2.343  34.111  0.00  0.00    +0.000 A 
ATOM      8  C   UNL A   1      -9.732   0.770  34.792  0.00  0.00    +0.149 A 
ATOM      9  C   UNL A   1      -9.684   0.713  36.186  0.00  0.00    +0.034 A 
ATOM     10  C   UNL A   1     -10.767   1.200  36.900  0.00  0.00    -0.011 A 
ENDROOT
BRANCH   5  11
ATOM     11  C   UNL A   1     -15.271   3.293  36.764  0.00  0.00    +0.388 C 
ATOM     12  O   UNL A   1     -15.555   3.538  37.804  0.00  0.00    -0.241 OA
ATOM     13  O   UNL A   1     -16.140   3.736  35.739  0.00  0.00    -0.241 OA
ENDBRANCH   5  11
BRANCH   8  14
ATOM     14  O   UNL A   1      -8.578   0.421  34.112  0.00  0.00    -0.418 OA
BRANCH  14  15
ATOM     15  C   UNL A   1      -7.382   1.021  34.540  0.00  0.00    +0.402 C 
ATOM     16  O   UNL A   1      -7.249   2.231  34.470  0.00  0.00    -0.239 OA
BRANCH  15  17
ATOM     17  C   UNL A   1      -6.438   0.077  34.893  0.00  0.00    +0.341 C 
ATOM     18  O   UNL A   1      -5.338   0.310  35.032  0.00  0.00    -0.261 OA
ATOM     19  N   UNL A   1      -6.744  -1.274  34.492  0.00  0.00    -0.194 NA
ATOM     20  C   UNL A   1      -5.874  -2.354  34.615  0.00  0.00    +0.139 C 
ENDBRANCH  15  17
ENDBRANCH  14  15
ENDBRANCH   8  14
BRANCH  10  21
ATOM     21  C   UNL A   1     -10.830   1.067  38.364  0.00  0.00    +0.066 C 
BRANCH  21  22
ATOM     22  C   UNL A   1     -11.336  -0.051  38.914  0.00  0.00    -0.014 A 
ATOM     23  C   UNL A   1     -11.907  -0.200  40.037  0.00  0.00    -0.004 A 
ATOM     24  C   UNL A   1     -12.440  -1.451  40.510  0.00  0.00    -0.000 A 
ATOM     25  C   UNL A   1     -12.365  -2.578  39.701  0.00  0.00    -0.000 A 
ATOM     26  C   UNL A   1     -11.456  -1.273  38.021  0.00  0.00    -0.004 A 
ATOM     27  C   UNL A   1     -11.907  -2.484  38.426  0.00  0.00    -0.000 A 
ENDBRANCH  21  22
BRANCH  21  28
ATOM     28  C   UNL A   1     -10.525   2.235  39.123  0.00  0.00    -0.022 C 
ATOM     29  C   UNL A   1      -9.589   3.126  38.681  0.00  0.00    -0.030 C 
ATOM     30  C   UNL A   1      -9.080   4.016  39.177  0.00  0.00    +0.030 C 
ENDBRANCH  21  28
ENDBRANCH  10  21
TORSDOF 7
ENDMDL
ENDMDL
