REMARK  Name = No_285-gen_results/8p0m/2024-11-27-11-27-31/
REMARK  3 active torsions:
REMARK  status: ('A' for Active; 'I' for Inactive)
REMARK    1  A    between atoms: C_4  and  C_8
REMARK    2  A    between atoms: C_8  and  C_10
REMARK    3  A    between atoms: C_11  and  C_12
REMARK                            x       y       z     vdW  Elec       q    Type
REMARK                         _______ _______ _______ _____ _____    ______ ____
ROOT
ATOM      1  C   UNL A   1     -28.016  -0.814  28.878  0.00  0.00    +0.029 A 
ATOM      2  C   UNL A   1     -28.469  -0.785  29.829  0.00  0.00    +0.140 A 
ATOM      3  C   UNL A   1     -26.546  -0.876  28.850  0.00  0.00    -0.001 A 
ATOM      4  C   UNL A   1     -25.804  -1.032  30.057  0.00  0.00    -0.003 A 
ATOM      5  C   UNL A   1     -27.944  -0.987  31.207  0.00  0.00    +0.029 A 
ATOM      6  C   UNL A   1     -26.582  -1.039  31.223  0.00  0.00    -0.001 A 
ATOM      7  F   UNL A   1     -29.909  -0.740  29.864  0.00  0.00    -0.204 F 
ENDROOT
BRANCH   4   8
ATOM      8  C   UNL A   1     -24.389  -0.983  29.875  0.00  0.00    +0.124 C 
ATOM      9 CL   UNL A   1     -23.550  -2.136  30.435  0.00  0.00    -0.105 Cl
BRANCH   8  10
ATOM     10  C   UNL A   1     -23.716   0.155  29.333  0.00  0.00    -0.006 C 
ATOM     11  C   UNL A   1     -22.504   0.030  28.740  0.00  0.00    -0.003 C 
BRANCH  11  12
ATOM     12  C   UNL A   1     -21.909   1.168  28.076  0.00  0.00    -0.005 C 
ATOM     13  C   UNL A   1     -22.765   2.249  27.722  0.00  0.00    -0.026 C 
ATOM     14  C   UNL A   1     -24.036   2.289  28.280  0.00  0.00    +0.031 C 
ENDBRANCH  11  12
ENDBRANCH   8  10
ENDBRANCH   4   8
TORSDOF 3
