MODEL 2850
MODEL 1
REMARK VINA RESULT:    -6.718      0.000      0.000
REMARK INTER + INTRA:          -8.092
REMARK INTER:                  -7.897
REMARK INTRA:                  -0.195
REMARK UNBOUND:                -0.195
REMARK  Name = No_2850-gen_results/8p0m/2024-11-27-11-27-31/
REMARK  3 active torsions:
REMARK  status: ('A' for Active; 'I' for Inactive)
REMARK    1  A    between atoms: C_10  and  C_11
REMARK    2  A    between atoms: C_11  and  N_19
REMARK    3  A    between atoms: N_19  and  C_20
REMARK                            x       y       z     vdW  Elec       q    Type
REMARK                         _______ _______ _______ _____ _____    ______ ____
ROOT
ATOM      1  C   UNL A   1     -22.388   0.069  28.565  0.00  0.00    -0.000 C 
ATOM      2  C   UNL A   1     -23.484  -0.376  28.815  0.00  0.00    -0.004 A 
ATOM      3  C   UNL A   1     -24.406   0.268  29.617  0.00  0.00    -0.018 A 
ATOM      4  C   UNL A   1     -25.367  -0.451  30.323  0.00  0.00    +0.000 A 
ATOM      5  C   UNL A   1     -25.606  -1.867  30.084  0.00  0.00    +0.051 A 
ATOM      6  C   UNL A   1     -24.698  -2.496  29.217  0.00  0.00    -0.016 A 
ATOM      7  C   UNL A   1     -23.670  -1.773  28.693  0.00  0.00    -0.004 A 
ATOM      8  C   UNL A   1     -22.425   1.300  27.718  0.00  0.00    -0.001 C 
ATOM      9  C   UNL A   1     -23.582   1.791  27.505  0.00  0.00    -0.006 C 
ATOM     10  C   UNL A   1     -24.579   2.192  28.420  0.00  0.00    -0.018 C 
ATOM     11  C   UNL A   1     -24.998   1.354  29.453  0.00  0.00    +0.050 C 
ATOM     12  C   UNL A   1     -24.878  -3.994  29.038  0.00  0.00    +0.044 C 
ATOM     13  C   UNL A   1     -23.976  -4.710  28.526  0.00  0.00    +0.006 C 
ATOM     14  C   UNL A   1     -26.127  -4.527  29.581  0.00  0.00    +0.120 C 
ATOM     15  N   UNL A   1     -27.147  -3.852  29.880  0.00  0.00    -0.201 NA
ATOM     16  C   UNL A   1     -26.943  -2.455  30.325  0.00  0.00    +0.265 C 
ATOM     17  O   UNL A   1     -27.890  -1.850  30.847  0.00  0.00    -0.268 OA
ENDROOT
BRANCH  10  18
ATOM     18  C   UNL A   1     -25.386   3.303  28.127  0.00  0.00    +0.135 C 
BRANCH  18  19
ATOM     19  N   UNL A   1     -25.056   4.459  28.025  0.00  0.00    -0.232 NA
BRANCH  19  20
ATOM     20  C   UNL A   1     -25.291   5.444  27.724  0.00  0.00    +0.081 C 
ATOM     21  C   UNL A   1     -26.527   5.977  27.140  0.00  0.00    +0.019 C 
ENDBRANCH  19  20
ENDBRANCH  18  19
ENDBRANCH  10  18
TORSDOF 3
ENDMDL
ENDMDL
