MODEL 2851
MODEL 1
REMARK VINA RESULT:    -5.258      0.000      0.000
REMARK INTER + INTRA:          -5.736
REMARK INTER:                  -5.566
REMARK INTRA:                  -0.171
REMARK UNBOUND:                -0.171
REMARK  Name = No_2851-gen_results/8p0m/2024-11-27-11-27-31/
REMARK  1 active torsions:
REMARK  status: ('A' for Active; 'I' for Inactive)
REMARK    1  A    between atoms: C_5  and  C_7
REMARK                            x       y       z     vdW  Elec       q    Type
REMARK                         _______ _______ _______ _____ _____    ______ ____
ROOT
ATOM      1  C   UNL A   1     -24.537  -5.099  28.913  0.00  0.00    -0.000 A 
ATOM      2  C   UNL A   1     -25.669  -5.138  29.336  0.00  0.00    -0.000 A 
ATOM      3  C   UNL A   1     -26.357  -4.027  29.784  0.00  0.00    -0.000 A 
ATOM      4  C   UNL A   1     -25.707  -2.763  29.704  0.00  0.00    +0.004 A 
ATOM      5  C   UNL A   1     -24.512  -2.748  29.068  0.00  0.00    +0.071 A 
ATOM      6  C   UNL A   1     -23.946  -3.858  28.634  0.00  0.00    +0.004 A 
ENDROOT
BRANCH   5   7
ATOM      7  C   UNL A   1     -23.866  -1.422  28.969  0.00  0.00    +0.419 C 
ATOM      8  F   UNL A   1     -24.047  -0.668  29.865  0.00  0.00    -0.166 F 
ATOM      9  F   UNL A   1     -22.496  -1.692  28.928  0.00  0.00    -0.166 F 
ATOM     10  F   UNL A   1     -24.203  -0.814  27.822  0.00  0.00    -0.166 F 
ENDBRANCH   5   7
TORSDOF 1
ENDMDL
ENDMDL
