MODEL 2852
MODEL 1
REMARK VINA RESULT:    -6.995      0.000      0.000
REMARK INTER + INTRA:          -6.995
REMARK INTER:                  -6.995
REMARK INTRA:                   0.000
REMARK UNBOUND:                 0.000
REMARK  Name = No_2852-gen_results/8p0m/2024-11-27-11-27-31/
REMARK  0 active torsions:
REMARK  status: ('A' for Active; 'I' for Inactive)
REMARK                            x       y       z     vdW  Elec       q    Type
REMARK                         _______ _______ _______ _____ _____    ______ ____
ROOT
ATOM      1  C   UNL A   1     -24.688   0.981  26.363  0.00  0.00    -0.000 A 
ATOM      2  C   UNL A   1     -24.253   1.835  25.924  0.00  0.00    -0.000 A 
ATOM      3  C   UNL A   1     -23.926   0.345  27.399  0.00  0.00    -0.000 A 
ATOM      4  C   UNL A   1     -24.517  -0.727  28.227  0.00  0.00    -0.000 A 
ATOM      5  C   UNL A   1     -23.770  -1.618  28.908  0.00  0.00    -0.000 A 
ATOM      6  C   UNL A   1     -23.325   2.295  26.000  0.00  0.00    -0.000 A 
ATOM      7  C   UNL A   1     -22.351   1.917  26.900  0.00  0.00    -0.000 A 
ATOM      8  C   UNL A   1     -22.708   0.864  27.730  0.00  0.00    -0.004 A 
ATOM      9  C   UNL A   1     -25.938  -0.789  28.513  0.00  0.00    -0.000 A 
ATOM     10  C   UNL A   1     -26.462  -1.729  29.405  0.00  0.00    -0.000 A 
ATOM     11  C   UNL A   1     -24.289  -2.696  29.691  0.00  0.00    -0.000 A 
ATOM     12  C   UNL A   1     -25.691  -2.688  29.939  0.00  0.00    -0.000 A 
ATOM     13  C   UNL A   1     -21.822   0.320  28.730  0.00  0.00    -0.022 A 
ATOM     14  C   UNL A   1     -22.261  -1.061  29.242  0.00  0.00    -0.004 A 
ATOM     15  C   UNL A   1     -20.412   0.097  28.276  0.00  0.00    +0.031 C 
ENDROOT
TORSDOF 0
ENDMDL
ENDMDL
