MODEL 2853
MODEL 1
REMARK VINA RESULT:    -6.770      0.000      0.000
REMARK INTER + INTRA:          -8.426
REMARK INTER:                  -7.958
REMARK INTRA:                  -0.468
REMARK UNBOUND:                -0.468
REMARK  Name = No_2853-gen_results/8p0m/2024-11-27-11-27-31/
REMARK  3 active torsions:
REMARK  status: ('A' for Active; 'I' for Inactive)
REMARK    1  A    between atoms: C_2  and  C_8
REMARK    2  A    between atoms: C_10  and  N_14
REMARK    3  A    between atoms: N_14  and  C_15
REMARK                            x       y       z     vdW  Elec       q    Type
REMARK                         _______ _______ _______ _____ _____    ______ ____
ROOT
ATOM      1  C   UNL A   1     -24.617  -2.467  28.851  0.00  0.00    +0.001 A 
ATOM      2  C   UNL A   1     -25.759  -2.478  29.487  0.00  0.00    +0.017 A 
ATOM      3  C   UNL A   1     -26.473  -3.678  29.794  0.00  0.00    +0.070 A 
ATOM      4  C   UNL A   1     -25.847  -4.861  29.583  0.00  0.00    +0.017 A 
ATOM      5  C   UNL A   1     -24.620  -4.917  28.925  0.00  0.00    +0.001 A 
ATOM      6  C   UNL A   1     -23.955  -3.710  28.605  0.00  0.00    +0.000 A 
ENDROOT
BRANCH   1   8
ATOM      7  C   UNL A   1     -24.247  -0.311  27.795  0.00  0.00    +0.002 A 
ATOM      8  C   UNL A   1     -23.826  -1.158  28.548  0.00  0.00    +0.000 A 
ATOM      9  C   UNL A   1     -22.557  -1.135  29.092  0.00  0.00    +0.002 A 
ATOM     10  C   UNL A   1     -21.717  -0.031  28.777  0.00  0.00    +0.030 A 
ATOM     11  C   UNL A   1     -22.290   0.972  28.072  0.00  0.00    +0.140 A 
ATOM     12  C   UNL A   1     -23.528   0.882  27.625  0.00  0.00    +0.030 A 
ATOM     13  F   UNL A   1     -21.538   2.033  27.808  0.00  0.00    -0.204 F 
ENDBRANCH   1   8
BRANCH   3  14
ATOM     14  N   UNL A   1     -27.696  -3.593  30.385  0.00  0.00    -0.211 NA
BRANCH  14  15
ATOM     15  C   UNL A   1     -28.616  -4.644  30.383  0.00  0.00    +0.086 C 
ATOM     16  C   UNL A   1     -29.152  -5.107  31.566  0.00  0.00    +0.019 C 
ENDBRANCH  14  15
ENDBRANCH   3  14
TORSDOF 3
ENDMDL
ENDMDL
