MODEL 2854
MODEL 1
REMARK VINA RESULT:    -5.313      0.000      0.000
REMARK INTER + INTRA:          -5.313
REMARK INTER:                  -5.313
REMARK INTRA:                   0.000
REMARK UNBOUND:                 0.000
REMARK  Name = No_2854-gen_results/8p0m/2024-11-27-11-27-31/
REMARK  0 active torsions:
REMARK  status: ('A' for Active; 'I' for Inactive)
REMARK                            x       y       z     vdW  Elec       q    Type
REMARK                         _______ _______ _______ _____ _____    ______ ____
ROOT
ATOM      1  C   UNL A   1     -10.215 -10.314  16.969  0.00  0.00    +0.125 C 
ATOM      2  C   UNL A   1      -9.753 -10.097  18.065  0.00  0.00    +0.030 C 
ATOM      3  C   UNL A   1     -10.372  -9.360  19.060  0.00  0.00    +0.033 C 
ATOM      4  C   UNL A   1      -9.811  -9.017  20.345  0.00  0.00    +0.005 C 
ATOM      5  C   UNL A   1      -8.506  -9.468  20.655  0.00  0.00    +0.001 C 
ATOM      6  C   UNL A   1      -7.816 -10.233  19.679  0.00  0.00    +0.005 C 
ATOM      7  C   UNL A   1      -8.419 -10.479  18.484  0.00  0.00    +0.033 C 
ATOM      8  O   UNL A   1     -11.412 -10.594  16.934  0.00  0.00    -0.232 OA
ENDROOT
TORSDOF 0
ENDMDL
ENDMDL
