MODEL 2855
MODEL 1
REMARK VINA RESULT:    -4.292      0.000      0.000
REMARK INTER + INTRA:          -4.292
REMARK INTER:                  -4.292
REMARK INTRA:                   0.000
REMARK UNBOUND:                 0.000
REMARK  Name = No_2855-gen_results/8p0m/2024-11-27-11-27-31/
REMARK  0 active torsions:
REMARK  status: ('A' for Active; 'I' for Inactive)
REMARK                            x       y       z     vdW  Elec       q    Type
REMARK                         _______ _______ _______ _____ _____    ______ ____
ROOT
ATOM      1 CL   UNL A   1     -25.223  -1.176  29.974  0.00  0.00    -0.082 Cl
ATOM      2  C   UNL A   1     -25.295  -2.590  29.701  0.00  0.00    +0.058 A 
ATOM      3  C   UNL A   1     -26.148  -3.364  29.915  0.00  0.00    +0.011 A 
ATOM      4  C   UNL A   1     -26.132  -4.795  29.646  0.00  0.00    +0.001 A 
ATOM      5  C   UNL A   1     -25.002  -5.288  28.945  0.00  0.00    +0.000 A 
ATOM      6  C   UNL A   1     -24.023  -4.414  28.653  0.00  0.00    +0.001 A 
ATOM      7  C   UNL A   1     -24.124  -3.124  28.952  0.00  0.00    +0.011 A 
ENDROOT
TORSDOF 0
ENDMDL
ENDMDL
