MODEL 2856
MODEL 1
REMARK VINA RESULT:    -8.401      0.000      0.000
REMARK INTER + INTRA:         -11.044
REMARK INTER:                  -9.875
REMARK INTRA:                  -1.169
REMARK UNBOUND:                -1.169
REMARK  Name = No_2856-gen_results/8p0m/2024-11-27-11-27-31/
REMARK  3 active torsions:
REMARK  status: ('A' for Active; 'I' for Inactive)
REMARK    1  A    between atoms: C_3  and  C_4
REMARK    2  A    between atoms: C_8  and  C_19
REMARK    3  A    between atoms: C_10  and  C_11
REMARK                            x       y       z     vdW  Elec       q    Type
REMARK                         _______ _______ _______ _____ _____    ______ ____
ROOT
ATOM      1  C   UNL A   1     -24.270  -0.112  28.006  0.00  0.00    +0.001 A 
ATOM      2  C   UNL A   1     -23.847  -1.203  28.655  0.00  0.00    +0.000 A 
ATOM      3  C   UNL A   1     -22.495  -1.208  29.015  0.00  0.00    +0.000 A 
ATOM      4  C   UNL A   1     -23.482   0.964  28.165  0.00  0.00    +0.000 A 
ATOM      5  C   UNL A   1     -21.588  -0.141  28.843  0.00  0.00    +0.000 A 
ATOM      6  C   UNL A   1     -22.113   0.917  28.293  0.00  0.00    +0.000 A 
ENDROOT
BRANCH   1   9
ATOM      7  C   UNL A   1     -26.703   0.496  28.674  0.00  0.00    +0.012 A 
ATOM      8  C   UNL A   1     -27.659   0.656  28.262  0.00  0.00    +0.058 A 
ATOM      9  C   UNL A   1     -25.705   0.073  27.692  0.00  0.00    +0.011 A 
ATOM     10  C   UNL A   1     -28.032   0.646  27.216  0.00  0.00    +0.012 A 
ATOM     11  C   UNL A   1     -27.326   0.299  26.046  0.00  0.00    +0.012 A 
ATOM     12  C   UNL A   1     -26.043   0.056  26.328  0.00  0.00    +0.058 A 
ATOM     13 CL   UNL A   1     -24.958  -0.439  25.077  0.00  0.00    -0.082 Cl
ATOM     14 CL   UNL A   1     -28.924   1.155  29.582  0.00  0.00    -0.082 Cl
ENDBRANCH   1   9
BRANCH   4  15
ATOM     15  C   UNL A   1     -24.018   2.311  27.511  0.00  0.00    +0.000 A 
ATOM     16  C   UNL A   1     -23.727   2.583  26.175  0.00  0.00    +0.000 A 
ATOM     17  C   UNL A   1     -24.945   3.148  28.195  0.00  0.00    +0.000 A 
ATOM     18  C   UNL A   1     -25.451   4.276  27.578  0.00  0.00    +0.000 A 
ATOM     19  C   UNL A   1     -24.147   3.786  25.596  0.00  0.00    +0.000 A 
ATOM     20  C   UNL A   1     -24.996   4.666  26.348  0.00  0.00    +0.000 A 
ENDBRANCH   4  15
BRANCH   2  21
ATOM     21  C   UNL A   1     -24.677  -2.401  28.892  0.00  0.00    +0.000 A 
ATOM     22  C   UNL A   1     -24.241  -3.582  28.589  0.00  0.00    +0.000 A 
ATOM     23  C   UNL A   1     -24.955  -4.775  28.863  0.00  0.00    +0.000 A 
ATOM     24  C   UNL A   1     -26.138  -4.673  29.606  0.00  0.00    +0.000 A 
ATOM     25  C   UNL A   1     -26.618  -3.427  30.019  0.00  0.00    +0.000 A 
ATOM     26  C   UNL A   1     -25.909  -2.270  29.709  0.00  0.00    +0.000 A 
ENDBRANCH   2  21
TORSDOF 3
ENDMDL
ENDMDL
