MODEL 2857
MODEL 1
REMARK VINA RESULT:    -5.207      0.000      0.000
REMARK INTER + INTRA:          -5.207
REMARK INTER:                  -5.207
REMARK INTRA:                   0.000
REMARK UNBOUND:                 0.000
REMARK  Name = No_2857-gen_results/8p0m/2024-11-27-11-27-31/
REMARK  0 active torsions:
REMARK  status: ('A' for Active; 'I' for Inactive)
REMARK                            x       y       z     vdW  Elec       q    Type
REMARK                         _______ _______ _______ _____ _____    ______ ____
ROOT
ATOM      1  C   UNL A   1     -25.696  -1.316  30.204  0.00  0.00    +0.099 A 
ATOM      2  C   UNL A   1     -25.490  -2.435  29.797  0.00  0.00    +0.019 A 
ATOM      3  C   UNL A   1     -26.355  -3.493  29.999  0.00  0.00    +0.002 A 
ATOM      4  C   UNL A   1     -26.119  -4.868  29.599  0.00  0.00    +0.000 A 
ATOM      5  C   UNL A   1     -24.913  -5.184  28.934  0.00  0.00    +0.000 A 
ATOM      6  C   UNL A   1     -23.996  -4.092  28.729  0.00  0.00    +0.000 A 
ATOM      7  C   UNL A   1     -24.226  -2.803  29.150  0.00  0.00    +0.003 A 
ATOM      8  N   UNL A   1     -24.707  -0.302  29.944  0.00  0.00    -0.242 NA
ATOM      9  C   UNL A   1     -23.454  -0.608  29.526  0.00  0.00    +0.099 A 
ATOM     10  C   UNL A   1     -23.196  -1.882  29.055  0.00  0.00    +0.021 A 
ENDROOT
TORSDOF 0
ENDMDL
ENDMDL
