MODEL 2858
MODEL 1
REMARK VINA RESULT:    -5.260      0.000      0.000
REMARK INTER + INTRA:          -5.629
REMARK INTER:                  -5.568
REMARK INTRA:                  -0.061
REMARK UNBOUND:                -0.061
REMARK  Name = No_2858-gen_results/8p0m/2024-11-27-11-27-31/
REMARK  1 active torsions:
REMARK  status: ('A' for Active; 'I' for Inactive)
REMARK    1  A    between atoms: C_2  and  C_3
REMARK                            x       y       z     vdW  Elec       q    Type
REMARK                         _______ _______ _______ _____ _____    ______ ____
ROOT
ATOM      1  C   UNL A   1     -24.295  -2.628  29.206  0.00  0.00    +0.055 A 
ATOM      2  C   UNL A   1     -25.676  -2.460  29.489  0.00  0.00    +0.005 A 
ATOM      3  C   UNL A   1     -24.004  -3.984  28.786  0.00  0.00    +0.005 A 
ATOM      4  C   UNL A   1     -26.496  -3.525  29.911  0.00  0.00    +0.000 A 
ATOM      5  C   UNL A   1     -24.858  -5.085  29.057  0.00  0.00    +0.000 A 
ATOM      6  C   UNL A   1     -26.160  -4.825  29.558  0.00  0.00    +0.000 A 
ENDROOT
BRANCH   1   8
ATOM      7  O   UNL A   1     -22.310  -1.677  28.982  0.00  0.00    -0.268 OA
ATOM      8  C   UNL A   1     -23.454  -1.588  28.868  0.00  0.00    +0.265 C 
ATOM      9  N   UNL A   1     -24.120  -0.441  28.224  0.00  0.00    -0.200 NA
ATOM     10  C   UNL A   1     -23.265   0.633  27.784  0.00  0.00    +0.139 C 
ENDBRANCH   1   8
TORSDOF 1
ENDMDL
ENDMDL
