MODEL 285
MODEL 1
REMARK VINA RESULT:    -6.446      0.000      0.000
REMARK INTER + INTRA:          -7.993
REMARK INTER:                  -7.577
REMARK INTRA:                  -0.416
REMARK UNBOUND:                -0.416
REMARK  Name = No_285-gen_results/8p0m/2024-11-27-11-27-31/
REMARK  3 active torsions:
REMARK  status: ('A' for Active; 'I' for Inactive)
REMARK    1  A    between atoms: C_4  and  C_8
REMARK    2  A    between atoms: C_8  and  C_10
REMARK    3  A    between atoms: C_11  and  C_12
REMARK                            x       y       z     vdW  Elec       q    Type
REMARK                         _______ _______ _______ _____ _____    ______ ____
ROOT
ATOM      1  C   UNL A   1     -23.849   1.476  25.805  0.00  0.00    +0.029 A 
ATOM      2  C   UNL A   1     -22.876   1.875  25.874  0.00  0.00    +0.140 A 
ATOM      3  C   UNL A   1     -24.279   0.591  26.900  0.00  0.00    -0.001 A 
ATOM      4  C   UNL A   1     -23.458   0.413  28.051  0.00  0.00    -0.003 A 
ATOM      5  C   UNL A   1     -21.865   1.893  26.967  0.00  0.00    +0.029 A 
ATOM      6  C   UNL A   1     -22.224   1.074  27.996  0.00  0.00    -0.001 A 
ATOM      7  F   UNL A   1     -22.455   2.755  24.814  0.00  0.00    -0.204 F 
ENDROOT
BRANCH   4   8
ATOM      8  C   UNL A   1     -23.968  -0.544  28.980  0.00  0.00    +0.124 C 
ATOM      9 CL   UNL A   1     -24.819  -0.033  30.147  0.00  0.00    -0.105 Cl
BRANCH   8  10
ATOM     10  C   UNL A   1     -23.597  -1.924  28.954  0.00  0.00    -0.006 C 
ATOM     11  C   UNL A   1     -24.509  -2.884  28.669  0.00  0.00    -0.003 C 
BRANCH  11  12
ATOM     12  C   UNL A   1     -24.081  -4.256  28.510  0.00  0.00    -0.005 C 
ATOM     13  C   UNL A   1     -24.853  -5.268  29.148  0.00  0.00    -0.026 C 
ATOM     14  C   UNL A   1     -26.111  -4.928  29.628  0.00  0.00    +0.031 C 
ENDBRANCH  11  12
ENDBRANCH   8  10
ENDBRANCH   4   8
TORSDOF 3
ENDMDL
ENDMDL
