REMARK  Name = No_286-gen_results/8p0m/2024-11-27-11-27-31/
REMARK  4 active torsions:
REMARK  status: ('A' for Active; 'I' for Inactive)
REMARK    1  A    between atoms: C_2  and  N_7
REMARK    2  A    between atoms: N_7  and  C_8
REMARK    3  A    between atoms: N_7  and  C_14
REMARK    4  A    between atoms: C_14  and  C_16
REMARK                            x       y       z     vdW  Elec       q    Type
REMARK                         _______ _______ _______ _____ _____    ______ ____
ROOT
ATOM      1  N   UNL A   1     -27.129   1.036  27.814  0.00  0.00    -0.267 N 
ENDROOT
BRANCH   1   3
ATOM      2  C   UNL A   1     -28.016  -0.814  28.878  0.00  0.00    +0.035 A 
ATOM      3  C   UNL A   1     -27.064  -0.119  28.608  0.00  0.00    +0.136 A 
ATOM      4  N   UNL A   1     -25.818  -0.343  29.049  0.00  0.00    -0.229 NA
ATOM      5  C   UNL A   1     -25.607  -1.441  29.893  0.00  0.00    +0.100 A 
ATOM      6  C   UNL A   1     -26.676  -2.219  30.236  0.00  0.00    +0.021 A 
ATOM      7  C   UNL A   1     -27.863  -1.932  29.767  0.00  0.00    +0.004 A 
ENDBRANCH   1   3
BRANCH   1   8
ATOM      8  C   UNL A   1     -26.134   1.904  27.728  0.00  0.00    +0.053 A 
ATOM      9  C   UNL A   1     -25.950   2.994  27.883  0.00  0.00    +0.015 A 
ATOM     10  C   UNL A   1     -24.770   3.863  27.631  0.00  0.00    +0.001 A 
ATOM     11  C   UNL A   1     -23.680   3.150  27.143  0.00  0.00    +0.000 A 
ATOM     12  C   UNL A   1     -24.814   1.364  27.033  0.00  0.00    +0.015 A 
ATOM     13  C   UNL A   1     -23.752   1.952  26.798  0.00  0.00    +0.001 A 
ENDBRANCH   1   8
BRANCH   1  14
ATOM     14  C   UNL A   1     -28.319   1.333  27.101  0.00  0.00    +0.143 C 
ATOM     15  C   UNL A   1     -29.272   2.119  27.753  0.00  0.00    +0.030 C 
BRANCH  14  16
ATOM     16  C   UNL A   1     -28.509   0.902  25.823  0.00  0.00    +0.227 C 
ATOM     17  O   UNL A   1     -27.509   0.464  25.137  0.00  0.00    -0.286 OA
ENDBRANCH  14  16
ENDBRANCH   1  14
TORSDOF 4
