MODEL 2860
MODEL 1
REMARK VINA RESULT:    -5.555      0.000      0.000
REMARK INTER + INTRA:          -6.431
REMARK INTER:                  -6.204
REMARK INTRA:                  -0.227
REMARK UNBOUND:                -0.227
REMARK  Name = No_2860-gen_results/8p0m/2024-11-27-11-27-31/
REMARK  2 active torsions:
REMARK  status: ('A' for Active; 'I' for Inactive)
REMARK    1  A    between atoms: C_2  and  C_3
REMARK    2  A    between atoms: C_3  and  C_6
REMARK                            x       y       z     vdW  Elec       q    Type
REMARK                         _______ _______ _______ _____ _____    ______ ____
ROOT
ATOM      1  C   UNL A   1     -24.066  -2.610  28.961  0.00  0.00    +0.020 A 
ATOM      2  C   UNL A   1     -23.934  -3.693  28.628  0.00  0.00    -0.001 A 
ATOM      3  C   UNL A   1     -24.475  -4.908  29.040  0.00  0.00    -0.000 A 
ATOM      4  C   UNL A   1     -25.519  -2.615  29.458  0.00  0.00    -0.001 A 
ATOM      5  C   UNL A   1     -26.282  -3.675  29.798  0.00  0.00    -0.000 A 
ATOM      6  C   UNL A   1     -25.786  -4.908  29.473  0.00  0.00    -0.000 A 
ENDROOT
BRANCH   1   7
ATOM      7  C   UNL A   1     -23.415  -1.238  28.931  0.00  0.00    +0.273 C 
ATOM      8  F   UNL A   1     -24.184  -0.372  28.423  0.00  0.00    -0.221 F 
BRANCH   7  10
ATOM      9  O   UNL A   1     -21.383  -1.136  28.916  0.00  0.00    -0.256 OA
ATOM     10  C   UNL A   1     -22.459  -1.099  29.312  0.00  0.00    +0.347 C 
ATOM     11  F   UNL A   1     -22.424  -0.756  30.771  0.00  0.00    -0.160 F 
ENDBRANCH   7  10
ENDBRANCH   1   7
TORSDOF 2
ENDMDL
ENDMDL
