MODEL 2861
MODEL 1
REMARK VINA RESULT:    -6.845      0.000      0.000
REMARK INTER + INTRA:          -7.140
REMARK INTER:                  -7.245
REMARK INTRA:                   0.106
REMARK UNBOUND:                 0.106
REMARK  Name = No_2861-gen_results/8p0m/2024-11-27-11-27-31/
REMARK  1 active torsions:
REMARK  status: ('A' for Active; 'I' for Inactive)
REMARK    1  A    between atoms: C_3  and  C_4
REMARK                            x       y       z     vdW  Elec       q    Type
REMARK                         _______ _______ _______ _____ _____    ______ ____
ROOT
ATOM      1  C   UNL A   1     -25.015  -1.142  29.148  0.00  0.00    +0.249 C 
ATOM      2  N   UNL A   1     -23.909  -0.500  28.814  0.00  0.00    -0.276 N 
ATOM      3  C   UNL A   1     -24.043   0.611  27.971  0.00  0.00    +0.094 C 
ATOM      4  C   UNL A   1     -22.726   1.169  27.495  0.00  0.00    +0.022 C 
ATOM      5  C   UNL A   1     -22.715  -0.719  29.445  0.00  0.00    +0.094 C 
ATOM      6  C   UNL A   1     -21.474  -0.256  28.919  0.00  0.00    +0.022 C 
ATOM      7  C   UNL A   1     -21.535   0.858  28.008  0.00  0.00    +0.004 C 
ATOM      8  O   UNL A   1     -26.006  -0.510  29.562  0.00  0.00    -0.270 OA
ENDROOT
BRANCH   1  11
ATOM      9  C   UNL A   1     -23.952  -3.390  28.512  0.00  0.00    +0.004 A 
ATOM     10  C   UNL A   1     -24.023  -4.439  28.572  0.00  0.00    +0.000 A 
ATOM     11  C   UNL A   1     -25.010  -2.625  29.052  0.00  0.00    +0.054 A 
ATOM     12  C   UNL A   1     -25.074  -5.312  29.125  0.00  0.00    +0.000 A 
ATOM     13  C   UNL A   1     -26.155  -4.625  29.675  0.00  0.00    +0.000 A 
ATOM     14  C   UNL A   1     -26.134  -3.267  29.697  0.00  0.00    +0.004 A 
ENDBRANCH   1  11
TORSDOF 1
ENDMDL
ENDMDL
