MODEL 2862
MODEL 1
REMARK VINA RESULT:    -6.836      0.000      0.000
REMARK INTER + INTRA:          -7.932
REMARK INTER:                  -7.635
REMARK INTRA:                  -0.297
REMARK UNBOUND:                -0.297
REMARK  Name = No_2862-gen_results/8p0m/2024-11-27-11-27-31/
REMARK  2 active torsions:
REMARK  status: ('A' for Active; 'I' for Inactive)
REMARK    1  A    between atoms: C_3  and  C_11
REMARK    2  A    between atoms: C_7  and  C_8
REMARK                            x       y       z     vdW  Elec       q    Type
REMARK                         _______ _______ _______ _____ _____    ______ ____
ROOT
ATOM      1  O   UNL A   1     -23.423  -1.334  31.255  0.00  0.00    -0.273 OA
ATOM      2  C   UNL A   1     -23.507  -0.795  30.145  0.00  0.00    +0.245 C 
ATOM      3  C   UNL A   1     -24.187  -1.236  29.153  0.00  0.00    +0.101 C 
ATOM      4  N   UNL A   1     -23.204   0.602  30.046  0.00  0.00    -0.205 NA
ATOM      5  C   UNL A   1     -24.267  -0.624  27.839  0.00  0.00    +0.021 C 
ATOM      6  C   UNL A   1     -23.262   1.340  28.832  0.00  0.00    +0.121 C 
ATOM      7  C   UNL A   1     -23.547   0.863  27.883  0.00  0.00    +0.089 C 
ENDROOT
BRANCH   3   8
ATOM      8  C   UNL A   1     -24.667  -2.618  29.175  0.00  0.00    -0.014 A 
ATOM      9  C   UNL A   1     -23.847  -3.514  28.655  0.00  0.00    -0.004 A 
ATOM     10  C   UNL A   1     -24.218  -4.921  28.630  0.00  0.00    -0.000 A 
ATOM     11  C   UNL A   1     -25.444  -5.243  29.157  0.00  0.00    -0.000 A 
ATOM     12  C   UNL A   1     -26.258  -4.282  29.725  0.00  0.00    -0.000 A 
ATOM     13  C   UNL A   1     -25.873  -2.956  29.795  0.00  0.00    -0.004 A 
ENDBRANCH   3   8
BRANCH   7  14
ATOM     14  C   UNL A   1     -23.626   1.501  26.503  0.00  0.00    +0.320 C 
ATOM     15  F   UNL A   1     -23.051   2.553  26.316  0.00  0.00    -0.198 F 
ATOM     16  F   UNL A   1     -24.269   0.973  25.603  0.00  0.00    -0.198 F 
ENDBRANCH   7  14
TORSDOF 2
ENDMDL
ENDMDL
