REMARK  Name = outputs/IAG933/test6/raw/output_2862_IAG933_linker_design_.xyz
REMARK  9 active torsions:
REMARK  status: ('A' for Active; 'I' for Inactive)
REMARK    1  A    between atoms: C_1  and  C_2
REMARK    2  A    between atoms: C_13  and  C_30
REMARK    3  A    between atoms: C_14  and  C_15
REMARK    4  A    between atoms: C_21  and  O_22
REMARK    5  A    between atoms: O_22  and  C_23
REMARK    6  A    between atoms: C_23  and  C_24
REMARK    7  A    between atoms: C_29  and  C_31
REMARK    8  A    between atoms: O_32  and  C_35
REMARK    9  A    between atoms: O_34  and  C_37
REMARK                            x       y       z     vdW  Elec       q    Type
REMARK                         _______ _______ _______ _____ _____    ______ ____
ROOT
ATOM      1  C   UNL A   1     -21.422   1.288  27.710  0.00  0.00    +0.003 C 
ATOM      2  C   UNL A   1     -24.235   1.312  26.866  0.00  0.00    +0.016 C 
ATOM      3  C   UNL A   1     -23.818   0.662  28.120  0.00  0.00    -0.007 C 
ATOM      4  C   UNL A   1     -22.448   0.758  28.562  0.00  0.00    -0.003 C 
ATOM      5  C   UNL A   1     -23.124   1.655  25.972  0.00  0.00    +0.135 C 
ATOM      6  C   UNL A   1     -21.766   1.728  26.427  0.00  0.00    +0.037 C 
ENDROOT
BRANCH   3  13
ATOM      7  C   UNL A   1     -24.855  -1.012  30.143  0.00  0.00    +0.059 C 
ATOM      8  C   UNL A   1     -25.387  -0.679  31.571  0.00  0.00    +0.082 C 
ATOM      9  C   UNL A   1     -25.189   0.773  32.028  0.00  0.00    +0.062 C 
ATOM     10  C   UNL A   1     -25.336   0.684  33.544  0.00  0.00    +0.024 C 
ATOM     11  C   UNL A   1     -24.829  -0.715  33.905  0.00  0.00    +0.089 C 
ATOM     12  N   UNL A   1     -24.758  -1.481  32.646  0.00  0.00    -0.219 NA
ATOM     13  C   UNL A   1     -24.778   0.002  29.013  0.00  0.00    +0.102 C 
ATOM     14  C   UNL A   1     -25.343   1.698  30.812  0.00  0.00    +0.191 C 
ATOM     15  N   UNL A   1     -25.466   1.163  29.448  0.00  0.00    -0.189 NA
BRANCH   7  16
ATOM     16  C   UNL A   1     -24.973  -2.505  29.788  0.00  0.00    -0.019 C 
ATOM     17  C   UNL A   1     -23.906  -3.173  29.146  0.00  0.00    -0.004 C 
ATOM     18  C   UNL A   1     -23.989  -4.549  28.853  0.00  0.00    -0.000 C 
ATOM     19  C   UNL A   1     -25.137  -5.280  29.205  0.00  0.00    -0.000 C 
ATOM     20  C   UNL A   1     -26.232  -4.611  29.784  0.00  0.00    -0.000 C 
ATOM     21  C   UNL A   1     -26.155  -3.232  30.065  0.00  0.00    -0.004 C 
ENDBRANCH   7  16
BRANCH  14  22
ATOM     22  O   UNL A   1     -24.262   2.683  31.145  0.00  0.00    -0.337 OA
ATOM     23  C   UNL A   1     -24.881   3.552  32.184  0.00  0.00    +0.176 C 
ENDBRANCH  14  22
ENDBRANCH   3  13
BRANCH   2  24
ATOM     24  C   UNL A   1     -25.688   1.614  26.461  0.00  0.00    +0.095 C 
ATOM     25  C   UNL A   1     -26.250   2.920  26.395  0.00  0.00    +0.059 C 
ATOM     26  C   UNL A   1     -27.438   3.091  25.645  0.00  0.00    +0.102 C 
ATOM     27  N   UNL A   1     -28.075   2.089  25.003  0.00  0.00    -0.212 NA
ATOM     28  C   UNL A   1     -27.543   0.849  25.079  0.00  0.00    +0.234 C 
ATOM     29  C   UNL A   1     -26.354   0.576  25.777  0.00  0.00    +0.244 C 
ATOM     30  F   UNL A   1     -25.860  -0.681  25.795  0.00  0.00    -0.227 F 
BRANCH  25  31
ATOM     31  C   UNL A   1     -25.642   4.093  27.123  0.00  0.00    +0.263 C 
ATOM     32  N   UNL A   1     -25.614   5.252  26.449  0.00  0.00    -0.200 NA
ATOM     33  C   UNL A   1     -25.026   6.479  26.963  0.00  0.00    +0.139 C 
ATOM     34  O   UNL A   1     -25.143   3.966  28.243  0.00  0.00    -0.269 OA
ENDBRANCH  25  31
BRANCH  28  35
ATOM     35  O   UNL A   1     -28.193  -0.208  24.477  0.00  0.00    -0.459 OA
BRANCH  35  36
ATOM     36  C   UNL A   1     -29.460   0.005  23.866  0.00  0.00    +0.242 C 
BRANCH  36  37
ATOM     37  C   UNL A   1     -30.065  -1.377  23.573  0.00  0.00    +0.229 C 
ATOM     38  O   UNL A   1     -30.729  -1.878  24.721  0.00  0.00    -0.216 OA
ENDBRANCH  36  37
ENDBRANCH  35  36
ENDBRANCH  28  35
ENDBRANCH   2  24
BRANCH   5  39
ATOM     39  O   UNL A   1     -23.341   1.983  24.659  0.00  0.00    -0.472 OA
ATOM     40  C   UNL A   1     -23.003   1.019  23.674  0.00  0.00    +0.253 C 
ENDBRANCH   5  39
TORSDOF 9
