REMARK  Name = No_2863-gen_results/8p0m/2024-11-27-11-27-31/
REMARK  3 active torsions:
REMARK  status: ('A' for Active; 'I' for Inactive)
REMARK    1  A    between atoms: C_2  and  N_7
REMARK    2  A    between atoms: N_7  and  C_8
REMARK    3  A    between atoms: N_7  and  C_14
REMARK                            x       y       z     vdW  Elec       q    Type
REMARK                         _______ _______ _______ _____ _____    ______ ____
ROOT
ATOM      1  N   UNL A   1     -29.944  -0.683  29.685  0.00  0.00    -0.265 N 
ENDROOT
BRANCH   1   3
ATOM      2  C   UNL A   1     -28.016  -0.814  28.878  0.00  0.00    +0.015 A 
ATOM      3  C   UNL A   1     -28.469  -0.785  29.829  0.00  0.00    +0.056 A 
ATOM      4  C   UNL A   1     -26.546  -0.876  28.850  0.00  0.00    +0.001 A 
ATOM      5  C   UNL A   1     -25.804  -1.032  30.057  0.00  0.00    +0.000 A 
ATOM      6  C   UNL A   1     -27.944  -0.987  31.207  0.00  0.00    +0.015 A 
ATOM      7  C   UNL A   1     -26.582  -1.039  31.223  0.00  0.00    +0.001 A 
ENDBRANCH   1   3
BRANCH   1   8
ATOM      8  C   UNL A   1     -30.788  -1.398  30.279  0.00  0.00    +0.056 A 
ATOM      9  C   UNL A   1     -31.499  -2.098  29.957  0.00  0.00    +0.015 A 
ATOM     10  C   UNL A   1     -32.428  -2.993  30.721  0.00  0.00    +0.001 A 
ATOM     11  C   UNL A   1     -32.323  -2.839  32.105  0.00  0.00    +0.000 A 
ATOM     12  C   UNL A   1     -31.419  -2.020  32.651  0.00  0.00    +0.001 A 
ATOM     13  C   UNL A   1     -30.568  -1.287  31.865  0.00  0.00    +0.015 A 
ENDBRANCH   1   8
BRANCH   1  14
ATOM     14  C   UNL A   1     -30.411   0.259  28.772  0.00  0.00    +0.065 C 
ATOM     15  C   UNL A   1     -30.611  -0.090  27.522  0.00  0.00    -0.009 C 
ATOM     16  C   UNL A   1     -31.112   0.829  26.620  0.00  0.00    +0.032 C 
ENDBRANCH   1  14
TORSDOF 3
