MODEL 2863
MODEL 1
REMARK VINA RESULT:    -6.921      0.000      0.000
REMARK INTER + INTRA:          -8.812
REMARK INTER:                  -8.135
REMARK INTRA:                  -0.677
REMARK UNBOUND:                -0.677
REMARK  Name = No_2863-gen_results/8p0m/2024-11-27-11-27-31/
REMARK  3 active torsions:
REMARK  status: ('A' for Active; 'I' for Inactive)
REMARK    1  A    between atoms: C_2  and  N_7
REMARK    2  A    between atoms: N_7  and  C_8
REMARK    3  A    between atoms: N_7  and  C_14
REMARK                            x       y       z     vdW  Elec       q    Type
REMARK                         _______ _______ _______ _____ _____    ______ ____
ROOT
ATOM      1  N   UNL A   1     -24.153  -1.531  29.802  0.00  0.00    -0.265 N 
ENDROOT
BRANCH   1   3
ATOM      2  C   UNL A   1     -24.002   0.038  28.423  0.00  0.00    +0.015 A 
ATOM      3  C   UNL A   1     -23.364  -0.526  29.044  0.00  0.00    +0.056 A 
ATOM      4  C   UNL A   1     -23.374   1.107  27.631  0.00  0.00    +0.001 A 
ATOM      5  C   UNL A   1     -21.957   1.259  27.613  0.00  0.00    +0.000 A 
ATOM      6  C   UNL A   1     -21.883  -0.609  29.165  0.00  0.00    +0.015 A 
ATOM      7  C   UNL A   1     -21.265   0.374  28.451  0.00  0.00    +0.001 A 
ENDBRANCH   1   3
BRANCH   1   8
ATOM      8  C   UNL A   1     -24.390  -2.707  29.430  0.00  0.00    +0.056 A 
ATOM      9  C   UNL A   1     -23.818  -3.444  28.952  0.00  0.00    +0.015 A 
ATOM     10  C   UNL A   1     -24.126  -4.871  28.607  0.00  0.00    +0.001 A 
ATOM     11  C   UNL A   1     -25.413  -5.261  28.984  0.00  0.00    +0.000 A 
ATOM     12  C   UNL A   1     -26.227  -4.436  29.649  0.00  0.00    +0.001 A 
ATOM     13  C   UNL A   1     -25.828  -3.165  29.975  0.00  0.00    +0.015 A 
ENDBRANCH   1   8
BRANCH   1  14
ATOM     14  C   UNL A   1     -24.710  -1.099  31.002  0.00  0.00    +0.065 C 
ATOM     15  C   UNL A   1     -23.965  -1.041  32.082  0.00  0.00    -0.009 C 
ATOM     16  C   UNL A   1     -24.502  -0.576  33.267  0.00  0.00    +0.032 C 
ENDBRANCH   1  14
TORSDOF 3
ENDMDL
ENDMDL
