MODEL 2864
MODEL 1
REMARK VINA RESULT:    -5.392      0.000      0.000
REMARK INTER + INTRA:          -5.885
REMARK INTER:                  -5.707
REMARK INTRA:                  -0.179
REMARK UNBOUND:                -0.179
REMARK  Name = No_2864-gen_results/8p0m/2024-11-27-11-27-31/
REMARK  1 active torsions:
REMARK  status: ('A' for Active; 'I' for Inactive)
REMARK    1  A    between atoms: C_2  and  C_8
REMARK                            x       y       z     vdW  Elec       q    Type
REMARK                         _______ _______ _______ _____ _____    ______ ____
ROOT
ATOM      1  C   UNL A   1     -24.081  -2.873  29.385  0.00  0.00    -0.043 C 
ATOM      2  C   UNL A   1     -23.409  -2.205  28.925  0.00  0.00    +0.036 C 
ATOM      3  C   UNL A   1     -25.429  -2.406  29.547  0.00  0.00    +0.022 C 
ATOM      4  C   UNL A   1     -26.502  -3.321  29.986  0.00  0.00    +0.004 C 
ATOM      5  C   UNL A   1     -26.407  -4.689  29.667  0.00  0.00    +0.001 C 
ATOM      6  C   UNL A   1     -25.209  -5.178  29.108  0.00  0.00    +0.004 C 
ATOM      7  C   UNL A   1     -24.176  -4.351  28.862  0.00  0.00    +0.022 C 
ENDROOT
BRANCH   2   8
ATOM      8  C   UNL A   1     -23.333  -0.913  28.984  0.00  0.00    +0.340 C 
ATOM      9  F   UNL A   1     -23.579  -0.369  27.814  0.00  0.00    -0.193 F 
ATOM     10  F   UNL A   1     -22.095  -0.410  29.383  0.00  0.00    -0.193 F 
ENDBRANCH   2   8
TORSDOF 1
ENDMDL
ENDMDL
