REMARK  Name = No_2865-gen_results/8p0m/2024-11-27-11-27-31/
REMARK  3 active torsions:
REMARK  status: ('A' for Active; 'I' for Inactive)
REMARK    1  A    between atoms: C_3  and  C_7
REMARK    2  A    between atoms: C_8  and  C_19
REMARK    3  A    between atoms: C_10  and  C_11
REMARK                            x       y       z     vdW  Elec       q    Type
REMARK                         _______ _______ _______ _____ _____    ______ ____
ROOT
ATOM      1  C   UNL A   1     -26.399   0.295  27.228  0.00  0.00    -0.004 A 
ATOM      2  C   UNL A   1     -26.902   0.728  26.213  0.00  0.00    -0.022 A 
ATOM      3  C   UNL A   1     -26.175   0.636  24.926  0.00  0.00    -0.004 A 
ATOM      4  C   UNL A   1     -25.077  -0.207  27.239  0.00  0.00    -0.000 A 
ATOM      5  C   UNL A   1     -24.810   0.242  24.985  0.00  0.00    -0.000 A 
ATOM      6  C   UNL A   1     -24.291  -0.101  26.151  0.00  0.00    -0.000 A 
ENDROOT
BRANCH   2   7
ATOM      7  C   UNL A   1     -28.333   1.144  25.979  0.00  0.00    +0.027 C 
ATOM      8  C   UNL A   1     -28.583   2.457  26.240  0.00  0.00    +0.005 C 
ATOM      9  C   UNL A   1     -29.341   0.209  25.788  0.00  0.00    +0.037 C 
ATOM     10  C   UNL A   1     -30.687   0.510  26.105  0.00  0.00    +0.031 C 
ATOM     11  C   UNL A   1     -31.621  -0.366  25.881  0.00  0.00    +0.125 C 
ATOM     12  C   UNL A   1     -31.021   1.742  26.816  0.00  0.00    +0.033 C 
ATOM     13  C   UNL A   1     -29.974   2.783  26.797  0.00  0.00    +0.005 C 
ATOM     14  O   UNL A   1     -32.506  -0.125  25.134  0.00  0.00    -0.232 OA
ENDBRANCH   2   7
BRANCH   1  17
ATOM     15  C   UNL A   1     -28.016  -0.814  28.878  0.00  0.00    -0.000 A 
ATOM     16  C   UNL A   1     -28.469  -0.785  29.829  0.00  0.00    -0.000 A 
ATOM     17  C   UNL A   1     -27.136   0.236  28.535  0.00  0.00    -0.000 A 
ATOM     18  C   UNL A   1     -26.875   1.282  29.398  0.00  0.00    -0.000 A 
ATOM     19  C   UNL A   1     -28.361   0.199  30.924  0.00  0.00    -0.000 A 
ATOM     20  C   UNL A   1     -27.528   1.223  30.636  0.00  0.00    -0.000 A 
ENDBRANCH   1  17
BRANCH   4  21
ATOM     21  C   UNL A   1     -24.466  -0.675  28.569  0.00  0.00    -0.000 A 
ATOM     22  C   UNL A   1     -24.078  -1.586  29.145  0.00  0.00    -0.000 A 
ATOM     23  C   UNL A   1     -23.440  -1.609  30.401  0.00  0.00    -0.000 A 
ATOM     24  C   UNL A   1     -23.524  -0.371  31.137  0.00  0.00    +0.000 A 
ATOM     25  C   UNL A   1     -24.270   0.693  29.457  0.00  0.00    -0.000 A 
ATOM     26  C   UNL A   1     -23.744   0.713  30.623  0.00  0.00    -0.000 A 
ENDBRANCH   4  21
TORSDOF 3
