MODEL 2865
MODEL 1
REMARK VINA RESULT:    -7.360      0.000      0.000
REMARK INTER + INTRA:         -11.112
REMARK INTER:                  -8.651
REMARK INTRA:                  -2.461
REMARK UNBOUND:                -2.461
REMARK  Name = No_2865-gen_results/8p0m/2024-11-27-11-27-31/
REMARK  3 active torsions:
REMARK  status: ('A' for Active; 'I' for Inactive)
REMARK    1  A    between atoms: C_3  and  C_7
REMARK    2  A    between atoms: C_8  and  C_19
REMARK    3  A    between atoms: C_10  and  C_11
REMARK                            x       y       z     vdW  Elec       q    Type
REMARK                         _______ _______ _______ _____ _____    ______ ____
ROOT
ATOM      1  C   UNL A   1     -29.755  -8.833   9.506  0.00  0.00    -0.004 A 
ATOM      2  C   UNL A   1     -30.592  -9.380  10.192  0.00  0.00    -0.022 A 
ATOM      3  C   UNL A   1     -31.749  -8.611  10.707  0.00  0.00    -0.004 A 
ATOM      4  C   UNL A   1     -29.794  -7.439   9.267  0.00  0.00    -0.000 A 
ATOM      5  C   UNL A   1     -31.700  -7.198  10.556  0.00  0.00    -0.000 A 
ATOM      6  C   UNL A   1     -30.689  -6.657   9.900  0.00  0.00    -0.000 A 
ENDROOT
BRANCH   2   7
ATOM      7  C   UNL A   1     -30.802 -10.857  10.416  0.00  0.00    +0.027 C 
ATOM      8  C   UNL A   1     -31.777 -11.407   9.641  0.00  0.00    +0.005 C 
ATOM      9  C   UNL A   1     -30.244 -11.514  11.504  0.00  0.00    +0.037 C 
ATOM     10  C   UNL A   1     -30.832 -12.690  12.028  0.00  0.00    +0.031 C 
ATOM     11  C   UNL A   1     -30.271 -13.312  13.022  0.00  0.00    +0.125 C 
ATOM     12  C   UNL A   1     -32.142 -13.134  11.558  0.00  0.00    +0.033 C 
ATOM     13  C   UNL A   1     -32.582 -12.548  10.276  0.00  0.00    +0.005 C 
ATOM     14  O   UNL A   1     -29.896 -14.428  12.900  0.00  0.00    -0.232 OA
ENDBRANCH   2   7
BRANCH   1  17
ATOM     15  C   UNL A   1     -27.408  -9.862   9.485  0.00  0.00    -0.000 A 
ATOM     16  C   UNL A   1     -26.689 -10.417   8.951  0.00  0.00    -0.000 A 
ATOM     17  C   UNL A   1     -28.635  -9.582   8.844  0.00  0.00    -0.000 A 
ATOM     18  C   UNL A   1     -28.898 -10.003   7.555  0.00  0.00    -0.000 A 
ATOM     19  C   UNL A   1     -26.718 -10.981   7.587  0.00  0.00    -0.000 A 
ATOM     20  C   UNL A   1     -27.876 -10.735   6.937  0.00  0.00    -0.000 A 
ENDBRANCH   1  17
BRANCH   4  21
ATOM     21  C   UNL A   1     -28.666  -6.789   8.451  0.00  0.00    -0.000 A 
ATOM     22  C   UNL A   1     -27.567  -6.467   8.475  0.00  0.00    -0.000 A 
ATOM     23  C   UNL A   1     -26.789  -5.964   7.414  0.00  0.00    -0.000 A 
ATOM     24  C   UNL A   1     -27.545  -5.583   6.246  0.00  0.00    +0.000 A 
ATOM     25  C   UNL A   1     -29.317  -6.503   6.970  0.00  0.00    -0.000 A 
ATOM     26  C   UNL A   1     -28.663  -6.000   5.993  0.00  0.00    -0.000 A 
ENDBRANCH   4  21
TORSDOF 3
ENDMDL
ENDMDL
