MODEL 2866
MODEL 1
REMARK VINA RESULT:    -6.511      0.000      0.000
REMARK INTER + INTRA:          -6.413
REMARK INTER:                  -6.891
REMARK INTRA:                   0.478
REMARK UNBOUND:                 0.478
REMARK  Name = No_2866-gen_results/8p0m/2024-11-27-11-27-31/
REMARK  1 active torsions:
REMARK  status: ('A' for Active; 'I' for Inactive)
REMARK    1  A    between atoms: C_5  and  N_8
REMARK                            x       y       z     vdW  Elec       q    Type
REMARK                         _______ _______ _______ _____ _____    ______ ____
ROOT
ATOM      1  C   UNL A   1     -23.560   0.642  27.580  0.00  0.00    +0.049 A 
ATOM      2  C   UNL A   1     -24.076  -0.220  27.897  0.00  0.00    +0.105 A 
ATOM      3  C   UNL A   1     -22.252   0.846  28.072  0.00  0.00    +0.142 A 
ATOM      4  C   UNL A   1     -21.656  -0.037  28.950  0.00  0.00    +0.031 A 
ATOM      5  C   UNL A   1     -23.674  -1.308  28.811  0.00  0.00    +0.065 A 
ATOM      6  C   UNL A   1     -22.427  -1.150  29.306  0.00  0.00    +0.018 A 
ATOM      7  F   UNL A   1     -21.511   1.905  27.689  0.00  0.00    -0.204 F 
ATOM      8  N   UNL A   1     -25.430  -0.801  27.449  0.00  0.00    -0.127 NA
ENDROOT
BRANCH   5   9
ATOM      9  N   UNL A   1     -24.478  -2.400  29.131  0.00  0.00    -0.306 N 
ATOM     10  C   UNL A   1     -25.470  -2.500  29.643  0.00  0.00    +0.091 C 
ATOM     11  C   UNL A   1     -26.122  -3.763  29.845  0.00  0.00    +0.021 C 
ATOM     12  C   UNL A   1     -23.940  -3.731  28.615  0.00  0.00    +0.091 C 
ATOM     13  C   UNL A   1     -24.465  -4.930  28.772  0.00  0.00    +0.021 C 
ATOM     14  C   UNL A   1     -25.645  -4.941  29.469  0.00  0.00    +0.004 C 
ENDBRANCH   5   9
TORSDOF 1
ENDMDL
ENDMDL
