MODEL 2867
MODEL 1
REMARK VINA RESULT:    -7.831      0.000      0.000
REMARK INTER + INTRA:          -4.969
REMARK INTER:                  -8.289
REMARK INTRA:                   3.320
REMARK UNBOUND:                 3.320
REMARK  Name = No_2867-gen_results/8p0m/2024-11-27-11-27-31/
REMARK  2 active torsions:
REMARK  status: ('A' for Active; 'I' for Inactive)
REMARK    1  A    between atoms: N_3  and  C_8
REMARK    2  A    between atoms: C_14  and  C_19
REMARK                            x       y       z     vdW  Elec       q    Type
REMARK                         _______ _______ _______ _____ _____    ______ ____
ROOT
ATOM      1  C   UNL A   1     -25.384  -0.653  27.370  0.00  0.00    +0.016 A 
ATOM      2  C   UNL A   1     -24.755  -0.510  28.392  0.00  0.00    +0.065 A 
ATOM      3  N   UNL A   1     -24.719  -1.402  29.341  0.00  0.00    -0.286 N 
ATOM      4  C   UNL A   1     -25.296   0.444  26.378  0.00  0.00    +0.001 A 
ATOM      5  C   UNL A   1     -24.737   1.662  26.720  0.00  0.00    +0.001 A 
ATOM      6  C   UNL A   1     -24.186   1.870  27.961  0.00  0.00    +0.016 A 
ATOM      7  C   UNL A   1     -24.173   0.763  28.856  0.00  0.00    +0.062 A 
ATOM      8  C   UNL A   1     -25.046  -0.634  30.706  0.00  0.00    +0.095 C 
ATOM      9  N   UNL A   1     -24.091   0.931  30.195  0.00  0.00    -0.305 N 
ATOM     10  C   UNL A   1     -23.615   1.729  31.123  0.00  0.00    +0.112 C 
ATOM     11  C   UNL A   1     -24.764   1.456  30.761  0.00  0.00    +0.090 C 
ATOM     12  C   UNL A   1     -25.181   2.658  29.965  0.00  0.00    +0.023 C 
ATOM     13  C   UNL A   1     -26.306  -0.588  31.141  0.00  0.00    +0.109 C 
ATOM     14  C   UNL A   1     -25.650   1.276  31.884  0.00  0.00    +0.108 C 
ATOM     15  N   UNL A   1     -26.552   0.401  31.889  0.00  0.00    -0.215 NA
ENDROOT
BRANCH   3  16
ATOM     16  C   UNL A   1     -24.783  -2.639  29.208  0.00  0.00    +0.052 A 
ATOM     17  C   UNL A   1     -23.829  -3.277  28.710  0.00  0.00    +0.015 A 
ATOM     18  C   UNL A   1     -26.039  -3.307  29.659  0.00  0.00    +0.015 A 
ATOM     19  C   UNL A   1     -23.933  -4.783  28.549  0.00  0.00    +0.001 A 
ATOM     20  C   UNL A   1     -26.173  -4.724  29.569  0.00  0.00    +0.001 A 
ATOM     21  C   UNL A   1     -25.075  -5.451  29.061  0.00  0.00    +0.000 A 
ENDBRANCH   3  16
BRANCH   8  22
ATOM     22  C   UNL A   1     -24.045  -1.286  31.752  0.00  0.00    +0.022 C 
ATOM     23  C   UNL A   1     -24.502  -1.286  31.425  0.00  0.00    +0.002 C 
ENDBRANCH   8  22
TORSDOF 2
ENDMDL
ENDMDL
