MODEL 2868
MODEL 1
REMARK VINA RESULT:    -8.284      0.000      0.000
REMARK INTER + INTRA:          -8.284
REMARK INTER:                  -8.284
REMARK INTRA:                   0.000
REMARK UNBOUND:                 0.000
REMARK  Name = No_2868-gen_results/8p0m/2024-11-27-11-27-31/
REMARK  0 active torsions:
REMARK  status: ('A' for Active; 'I' for Inactive)
REMARK                            x       y       z     vdW  Elec       q    Type
REMARK                         _______ _______ _______ _____ _____    ______ ____
ROOT
ATOM      1  C   UNL A   1     -27.104   0.901  26.637  0.00  0.00    +0.044 A 
ATOM      2  C   UNL A   1     -27.348   0.365  25.763  0.00  0.00    +0.141 A 
ATOM      3  C   UNL A   1     -25.692   1.282  26.802  0.00  0.00    +0.050 A 
ATOM      4  C   UNL A   1     -24.751   1.051  25.756  0.00  0.00    -0.004 A 
ATOM      5  C   UNL A   1     -25.231   0.396  24.650  0.00  0.00    -0.000 A 
ATOM      6  C   UNL A   1     -26.532   0.046  24.562  0.00  0.00    +0.029 A 
ATOM      7  C   UNL A   1     -23.369   1.433  25.893  0.00  0.00    +0.055 C 
ATOM      8  C   UNL A   1     -22.833   1.890  26.957  0.00  0.00    -0.004 A 
ATOM      9  C   UNL A   1     -21.531   1.604  27.345  0.00  0.00    -0.003 A 
ATOM     10  C   UNL A   1     -21.063   0.876  28.099  0.00  0.00    -0.001 A 
ATOM     11  C   UNL A   1     -21.923   0.082  28.947  0.00  0.00    -0.003 A 
ATOM     12  C   UNL A   1     -23.168   0.422  29.251  0.00  0.00    -0.006 A 
ATOM     13  C   UNL A   1     -23.764   1.854  28.098  0.00  0.00    +0.044 A 
ATOM     14  N   UNL A   1     -24.961   1.580  27.995  0.00  0.00    -0.285 N 
ATOM     15  C   UNL A   1     -25.839   1.724  29.221  0.00  0.00    +0.099 C 
ATOM     16  C   UNL A   1     -25.269   2.351  30.293  0.00  0.00    +0.025 C 
ATOM     17  C   UNL A   1     -26.310   0.346  29.730  0.00  0.00    -0.008 A 
ATOM     18  C   UNL A   1     -27.675   0.068  29.668  0.00  0.00    -0.003 A 
ATOM     19  C   UNL A   1     -28.116  -1.141  30.170  0.00  0.00    -0.000 A 
ATOM     20  C   UNL A   1     -27.208  -2.090  30.707  0.00  0.00    -0.000 A 
ATOM     21  C   UNL A   1     -25.858  -1.737  30.824  0.00  0.00    -0.004 A 
ATOM     22  C   UNL A   1     -25.447  -0.557  30.385  0.00  0.00    -0.021 A 
ATOM     23  C   UNL A   1     -23.923   0.111  30.328  0.00  0.00    +0.039 C 
ATOM     24  C   UNL A   1     -23.870   0.973  31.496  0.00  0.00    +0.008 C 
ATOM     25  C   UNL A   1     -24.773   1.963  31.368  0.00  0.00    +0.003 C 
ATOM     26  F   UNL A   1     -28.720  -0.027  25.583  0.00  0.00    -0.204 F 
ATOM     27  C   UNL A   1     -23.033  -1.352  30.801  0.00  0.00    +0.009 C 
ENDROOT
TORSDOF 0
ENDMDL
ENDMDL
