REMARK  Name = outputs/IAG933/test6/raw/output_2868_IAG933_linker_design_.xyz
REMARK  13 active torsions:
REMARK  status: ('A' for Active; 'I' for Inactive)
REMARK    1  A    between atoms: C_1  and  C_2
REMARK    2  A    between atoms: C_1  and  C_8
REMARK    3  A    between atoms: C_9  and  C_31
REMARK    4  A    between atoms: C_14  and  C_15
REMARK    5  A    between atoms: C_15  and  O_18
REMARK    6  A    between atoms: O_18  and  C_45
REMARK    7  A    between atoms: C_21  and  O_22
REMARK    8  A    between atoms: O_22  and  C_23
REMARK    9  A    between atoms: C_23  and  C_24
REMARK   10  A    between atoms: C_31  and  C_32
REMARK   11  A    between atoms: C_31  and  C_37
REMARK   12  A    between atoms: N_38  and  C_40
REMARK   13  A    between atoms: C_41  and  C_47
REMARK                            x       y       z     vdW  Elec       q    Type
REMARK                         _______ _______ _______ _____ _____    ______ ____
ROOT
ATOM      1  N   UNL A   1     -26.591   3.714  32.245  0.00  0.00    -0.184 NA
ATOM      2  C   UNL A   1     -26.788   3.896  30.405  0.00  0.00    +0.135 C 
ATOM      3  N   UNL A   1     -26.712   5.172  30.289  0.00  0.00    -0.214 NA
ATOM      4  F   UNL A   1     -26.448   5.042  34.017  0.00  0.00    -0.214 F 
ATOM      5  C   UNL A   1     -26.062   3.130  31.320  0.00  0.00    +0.099 C 
ATOM      6  C   UNL A   1     -26.078   5.751  31.552  0.00  0.00    +0.208 C 
ATOM      7  C   UNL A   1     -26.354   4.790  29.332  0.00  0.00    +0.247 C 
ATOM      8  C   UNL A   1     -26.447   4.952  32.750  0.00  0.00    +0.270 C 
ENDROOT
BRANCH   6   9
ATOM      9  N   UNL A   1     -25.900   7.130  31.944  0.00  0.00    -0.161 N 
ATOM     10  N   UNL A   1     -25.585   8.084  34.060  0.00  0.00    -0.098 NA
ATOM     11  N   UNL A   1     -26.804   8.008  31.298  0.00  0.00    -0.012 NA
ATOM     12  C   UNL A   1     -25.178   7.291  33.174  0.00  0.00    +0.314 C 
ATOM     13  F   UNL A   1     -24.088   6.621  33.496  0.00  0.00    -0.163 F 
ENDBRANCH   6   9
BRANCH   7  14
ATOM     14  O   UNL A   1     -25.143   3.966  28.243  0.00  0.00    -0.446 OA
BRANCH  14  15
ATOM     15  C   UNL A   1     -25.642   4.093  27.123  0.00  0.00    +0.223 C 
ATOM     16  N   UNL A   1     -25.614   5.252  26.449  0.00  0.00    -0.236 NA
ATOM     17  C   UNL A   1     -25.026   6.479  26.963  0.00  0.00    +0.155 C 
BRANCH  15  19
ATOM     18  C   UNL A   1     -25.688   1.614  26.461  0.00  0.00    +0.041 C 
ATOM     19  C   UNL A   1     -26.250   2.920  26.395  0.00  0.00    +0.074 C 
ATOM     20  C   UNL A   1     -27.438   3.091  25.645  0.00  0.00    +0.107 C 
ATOM     21  N   UNL A   1     -28.075   2.089  25.003  0.00  0.00    -0.208 NA
ATOM     22  C   UNL A   1     -27.543   0.849  25.079  0.00  0.00    +0.253 C 
ATOM     23  C   UNL A   1     -26.354   0.576  25.777  0.00  0.00    +0.193 C 
ATOM     24  F   UNL A   1     -25.860  -0.681  25.795  0.00  0.00    -0.199 F 
BRANCH  22  25
ATOM     25  O   UNL A   1     -28.193  -0.208  24.477  0.00  0.00    -0.456 OA
BRANCH  25  26
ATOM     26  C   UNL A   1     -29.460   0.005  23.866  0.00  0.00    +0.243 C 
BRANCH  26  27
ATOM     27  C   UNL A   1     -30.065  -1.377  23.573  0.00  0.00    +0.229 C 
ATOM     28  O   UNL A   1     -30.729  -1.878  24.721  0.00  0.00    -0.216 OA
ENDBRANCH  26  27
ENDBRANCH  25  26
ENDBRANCH  22  25
ENDBRANCH  15  19
ENDBRANCH  14  15
ENDBRANCH   7  14
BRANCH   5  29
ATOM     29  C   UNL A   1     -25.197   1.941  31.199  0.00  0.00    +0.041 C 
BRANCH  29  31
ATOM     30  C   UNL A   1     -25.387  -0.679  31.571  0.00  0.00    +0.077 C 
ATOM     31  C   UNL A   1     -25.189   0.773  32.028  0.00  0.00    +0.023 C 
ATOM     32  C   UNL A   1     -25.336   0.684  33.544  0.00  0.00    +0.021 C 
ATOM     33  C   UNL A   1     -24.829  -0.715  33.905  0.00  0.00    +0.089 C 
ATOM     34  N   UNL A   1     -24.758  -1.481  32.646  0.00  0.00    -0.219 NA
BRANCH  30  35
ATOM     35  C   UNL A   1     -24.855  -1.012  30.143  0.00  0.00    +0.044 C 
BRANCH  35  36
ATOM     36  C   UNL A   1     -24.973  -2.505  29.788  0.00  0.00    -0.021 C 
ATOM     37  C   UNL A   1     -23.906  -3.173  29.146  0.00  0.00    -0.004 C 
ATOM     38  C   UNL A   1     -23.989  -4.549  28.853  0.00  0.00    -0.000 C 
ATOM     39  C   UNL A   1     -25.137  -5.280  29.205  0.00  0.00    -0.000 C 
ATOM     40  C   UNL A   1     -26.232  -4.611  29.784  0.00  0.00    -0.000 C 
ATOM     41  C   UNL A   1     -26.155  -3.232  30.065  0.00  0.00    -0.004 C 
ENDBRANCH  35  36
ENDBRANCH  30  35
ENDBRANCH  29  31
BRANCH  29  42
ATOM     42  C   UNL A   1     -24.391   1.745  30.016  0.00  0.00    -0.028 C 
ATOM     43  C   UNL A   1     -22.981   2.003  29.572  0.00  0.00    -0.014 C 
BRANCH  43  48
ATOM     44  C   UNL A   1     -22.871   1.716  26.977  0.00  0.00    +0.023 C 
ATOM     45  N   UNL A   1     -21.196   1.080  28.441  0.00  0.00    -0.215 NA
ATOM     46  C   UNL A   1     -20.661   2.140  27.588  0.00  0.00    +0.089 C 
ATOM     47  C   UNL A   1     -21.583   2.094  26.396  0.00  0.00    +0.021 C 
ATOM     48  C   UNL A   1     -22.524   1.229  28.285  0.00  0.00    +0.094 C 
ENDBRANCH  43  48
ENDBRANCH  29  42
ENDBRANCH   5  29
TORSDOF 13
