MODEL 2869
MODEL 1
REMARK VINA RESULT:    -6.941      0.000      0.000
REMARK INTER + INTRA:         -11.628
REMARK INTER:                 -10.187
REMARK INTRA:                  -1.440
REMARK UNBOUND:                -1.440
REMARK  Name = No_2869-gen_results/8p0m/2024-11-27-11-27-31/
REMARK  8 active torsions:
REMARK  status: ('A' for Active; 'I' for Inactive)
REMARK    1  A    between atoms: C_1  and  O_9
REMARK    2  A    between atoms: C_5  and  O_7
REMARK    3  A    between atoms: O_7  and  C_11
REMARK    4  A    between atoms: O_9  and  C_18
REMARK    5  A    between atoms: C_11  and  C_13
REMARK    6  A    between atoms: C_13  and  C_14
REMARK    7  A    between atoms: C_18  and  C_19
REMARK    8  A    between atoms: C_19  and  C_20
REMARK                            x       y       z     vdW  Elec       q    Type
REMARK                         _______ _______ _______ _____ _____    ______ ____
ROOT
ATOM      1  C   UNL A   1     -23.872   0.474  30.197  0.00  0.00    +0.170 A 
ATOM      2  C   UNL A   1     -22.769   0.041  29.957  0.00  0.00    +0.184 A 
ATOM      3  C   UNL A   1     -21.971   0.435  28.896  0.00  0.00    +0.087 A 
ATOM      4  C   UNL A   1     -22.486   1.453  28.041  0.00  0.00    +0.026 A 
ATOM      5  C   UNL A   1     -23.650   2.018  28.423  0.00  0.00    +0.148 A 
ATOM      6  C   UNL A   1     -24.298   1.619  29.519  0.00  0.00    +0.076 A 
ATOM      7  F   UNL A   1     -22.226  -1.027  30.689  0.00  0.00    -0.200 F 
ATOM      8  C   UNL A   1     -21.630   1.848  26.890  0.00  0.00    +0.035 C 
ATOM      9 CL   UNL A   1     -20.487  -0.433  28.481  0.00  0.00    -0.080 Cl
ENDROOT
BRANCH   5  10
ATOM     10  O   UNL A   1     -24.098   3.042  27.641  0.00  0.00    -0.424 OA
BRANCH  10  11
ATOM     11  C   UNL A   1     -25.170   3.233  27.180  0.00  0.00    +0.326 C 
ATOM     12  O   UNL A   1     -26.141   3.767  27.927  0.00  0.00    -0.249 OA
BRANCH  11  13
ATOM     13  C   UNL A   1     -25.426   2.818  26.020  0.00  0.00    +0.136 C 
BRANCH  13  14
ATOM     14  C   UNL A   1     -25.766   1.528  25.870  0.00  0.00    -0.019 C 
ATOM     15  C   UNL A   1     -25.159   0.817  25.102  0.00  0.00    -0.030 C 
ATOM     16  C   UNL A   1     -25.625  -0.687  24.862  0.00  0.00    +0.030 C 
ENDBRANCH  13  14
ENDBRANCH  11  13
ENDBRANCH  10  11
ENDBRANCH   5  10
BRANCH   1  17
ATOM     17  O   UNL A   1     -24.607   0.063  31.316  0.00  0.00    -0.473 OA
BRANCH  17  18
ATOM     18  C   UNL A   1     -25.359  -0.915  31.474  0.00  0.00    +0.210 C 
BRANCH  18  19
ATOM     19  C   UNL A   1     -26.069  -1.382  30.466  0.00  0.00    +0.074 C 
BRANCH  19  20
ATOM     20  C   UNL A   1     -25.811  -2.514  29.891  0.00  0.00    -0.018 A 
ATOM     21  C   UNL A   1     -24.572  -2.871  29.249  0.00  0.00    -0.004 A 
ATOM     22  C   UNL A   1     -24.172  -4.177  28.866  0.00  0.00    -0.000 A 
ATOM     23  C   UNL A   1     -25.155  -5.189  29.032  0.00  0.00    -0.000 A 
ATOM     24  C   UNL A   1     -26.387  -4.890  29.653  0.00  0.00    -0.000 A 
ATOM     25  C   UNL A   1     -26.647  -3.630  30.112  0.00  0.00    -0.004 A 
ENDBRANCH  19  20
ENDBRANCH  18  19
ENDBRANCH  17  18
ENDBRANCH   1  17
TORSDOF 8
ENDMDL
ENDMDL
