MODEL 286
MODEL 1
REMARK VINA RESULT:    -6.378      0.000      0.000
REMARK INTER + INTRA:          -8.639
REMARK INTER:                  -7.869
REMARK INTRA:                  -0.770
REMARK UNBOUND:                -0.770
REMARK  Name = No_286-gen_results/8p0m/2024-11-27-11-27-31/
REMARK  4 active torsions:
REMARK  status: ('A' for Active; 'I' for Inactive)
REMARK    1  A    between atoms: C_2  and  N_7
REMARK    2  A    between atoms: N_7  and  C_8
REMARK    3  A    between atoms: N_7  and  C_14
REMARK    4  A    between atoms: C_14  and  C_16
REMARK                            x       y       z     vdW  Elec       q    Type
REMARK                         _______ _______ _______ _____ _____    ______ ____
ROOT
ATOM      1  N   UNL A   1     -24.301  -1.239  29.599  0.00  0.00    -0.267 N 
ENDROOT
BRANCH   1   3
ATOM      2  C   UNL A   1     -24.843  -0.176  27.620  0.00  0.00    +0.035 A 
ATOM      3  C   UNL A   1     -24.102  -0.311  28.566  0.00  0.00    +0.136 A 
ATOM      4  N   UNL A   1     -22.975   0.392  28.747  0.00  0.00    -0.229 NA
ATOM      5  C   UNL A   1     -22.621   1.330  27.768  0.00  0.00    +0.100 A 
ATOM      6  C   UNL A   1     -23.428   1.473  26.676  0.00  0.00    +0.021 A 
ATOM      7  C   UNL A   1     -24.510   0.746  26.570  0.00  0.00    +0.004 A 
ENDBRANCH   1   3
BRANCH   1   8
ATOM      8  C   UNL A   1     -24.395  -2.541  29.385  0.00  0.00    +0.053 A 
ATOM      9  C   UNL A   1     -23.828  -3.356  28.874  0.00  0.00    +0.015 A 
ATOM     10  C   UNL A   1     -24.130  -4.789  28.621  0.00  0.00    +0.001 A 
ATOM     11  C   UNL A   1     -25.346  -5.181  29.171  0.00  0.00    +0.000 A 
ATOM     12  C   UNL A   1     -25.785  -3.199  29.778  0.00  0.00    +0.015 A 
ATOM     13  C   UNL A   1     -26.158  -4.373  29.666  0.00  0.00    +0.001 A 
ENDBRANCH   1   8
BRANCH   1  14
ATOM     14  C   UNL A   1     -24.458  -0.783  30.933  0.00  0.00    +0.143 C 
ATOM     15  C   UNL A   1     -25.535   0.068  31.192  0.00  0.00    +0.030 C 
BRANCH  14  16
ATOM     16  C   UNL A   1     -23.618  -1.186  31.927  0.00  0.00    +0.227 C 
ATOM     17  O   UNL A   1     -22.370  -0.867  31.883  0.00  0.00    -0.286 OA
ENDBRANCH  14  16
ENDBRANCH   1  14
TORSDOF 4
ENDMDL
ENDMDL
