REMARK  Name = No_287-gen_results/8p0m/2024-11-27-11-27-31/
REMARK  1 active torsions:
REMARK  status: ('A' for Active; 'I' for Inactive)
REMARK    1  A    between atoms: C_6  and  N_8
REMARK                            x       y       z     vdW  Elec       q    Type
REMARK                         _______ _______ _______ _____ _____    ______ ____
ROOT
ATOM      1  C   UNL A   1     -28.016  -0.814  28.878  0.00  0.00    +0.031 A 
ATOM      2  C   UNL A   1     -27.064  -0.119  28.608  0.00  0.00    +0.140 A 
ATOM      3  C   UNL A   1     -26.876   1.133  28.913  0.00  0.00    +0.031 A 
ATOM      4  C   UNL A   1     -27.901   1.807  29.644  0.00  0.00    +0.021 A 
ATOM      5  C   UNL A   1     -29.046  -0.232  29.718  0.00  0.00    +0.021 A 
ATOM      6  C   UNL A   1     -28.940   1.052  30.060  0.00  0.00    +0.081 A 
ATOM      7  F   UNL A   1     -26.021  -0.677  27.877  0.00  0.00    -0.204 F 
ENDROOT
BRANCH   6   8
ATOM      8  N   UNL A   1     -29.961   1.633  30.824  0.00  0.00    -0.248 NA
ATOM      9  C   UNL A   1     -30.930   1.324  31.164  0.00  0.00    +0.073 C 
ATOM     10  C   UNL A   1     -31.884   2.136  32.006  0.00  0.00    +0.053 C 
ENDBRANCH   6   8
TORSDOF 1
