MODEL 2870
MODEL 1
REMARK VINA RESULT:    -7.476      0.000      0.000
REMARK INTER + INTRA:         -14.005
REMARK INTER:                 -10.972
REMARK INTRA:                  -3.033
REMARK UNBOUND:                -3.033
REMARK  Name = No_2870-gen_results/8p0m/2024-11-27-11-27-31/
REMARK  8 active torsions:
REMARK  status: ('A' for Active; 'I' for Inactive)
REMARK    1  A    between atoms: C_5  and  C_11
REMARK    2  A    between atoms: C_10  and  C_29
REMARK    3  A    between atoms: N_12  and  C_14
REMARK    4  A    between atoms: N_20  and  C_21
REMARK    5  A    between atoms: C_22  and  C_23
REMARK    6  A    between atoms: C_29  and  O_31
REMARK    7  A    between atoms: O_31  and  C_33
REMARK    8  A    between atoms: C_33  and  C_34
REMARK                            x       y       z     vdW  Elec       q    Type
REMARK                         _______ _______ _______ _____ _____    ______ ____
ROOT
ATOM      1  C   UNL A   1     -29.832 -14.646  12.213  0.00  0.00    +0.270 C 
ATOM      2  N   UNL A   1     -29.732 -13.602  12.811  0.00  0.00    -0.155 NA
ATOM      3  O   UNL A   1     -29.680 -15.753  13.097  0.00  0.00    -0.268 OA
ENDROOT
BRANCH   1   8
ATOM      4  C   UNL A   1     -30.952 -16.312   7.036  0.00  0.00    +0.000 A 
ATOM      5  C   UNL A   1     -30.659 -16.007   8.169  0.00  0.00    +0.000 A 
ATOM      6  C   UNL A   1     -29.406 -16.107   8.681  0.00  0.00    +0.006 A 
ATOM      7  C   UNL A   1     -29.030 -15.736  10.064  0.00  0.00    +0.005 A 
ATOM      8  C   UNL A   1     -30.071 -15.214  10.901  0.00  0.00    +0.055 A 
ATOM      9  C   UNL A   1     -31.344 -15.057  10.309  0.00  0.00    +0.005 A 
ATOM     10  C   UNL A   1     -31.619 -15.424   9.017  0.00  0.00    +0.000 A 
ATOM     11  C   UNL A   1     -30.179 -17.274   6.384  0.00  0.00    +0.000 A 
ATOM     12  C   UNL A   1     -28.970 -17.570   6.819  0.00  0.00    +0.006 A 
ATOM     13  C   UNL A   1     -28.560 -17.084   8.080  0.00  0.00    +0.076 A 
BRANCH  13  14
ATOM     14  C   UNL A   1     -27.188 -17.403   8.621  0.00  0.00    +0.341 C 
ATOM     15  O   UNL A   1     -26.420 -16.481   8.686  0.00  0.00    -0.245 OA
BRANCH  14  16
ATOM     16  O   UNL A   1     -26.966 -18.602   9.021  0.00  0.00    -0.444 OA
BRANCH  16  17
ATOM     17  C   UNL A   1     -26.020 -19.253   8.709  0.00  0.00    +0.226 C 
BRANCH  17  18
ATOM     18  C   UNL A   1     -26.207 -20.166   7.625  0.00  0.00    +0.142 C 
ATOM     19 CL   UNL A   1     -27.711 -20.746   7.394  0.00  0.00    -0.110 Cl
ENDBRANCH  17  18
ENDBRANCH  16  17
ENDBRANCH  14  16
ENDBRANCH  13  14
ENDBRANCH   1   8
BRANCH   2  20
ATOM     20  C   UNL A   1     -29.930 -12.372  12.079  0.00  0.00    +0.179 A 
ATOM     21  C   UNL A   1     -31.154 -11.636  12.285  0.00  0.00    +0.158 A 
ATOM     22  N   UNL A   1     -29.175 -12.102  11.015  0.00  0.00    -0.192 NA
ATOM     23  C   UNL A   1     -29.464 -11.085  10.178  0.00  0.00    +0.261 A 
ATOM     24  N   UNL A   1     -31.419 -10.611  11.473  0.00  0.00    -0.141 NA
ATOM     25  N   UNL A   1     -30.532 -10.334  10.443  0.00  0.00    -0.110 NA
ATOM     26  N   UNL A   1     -28.661 -10.832   9.170  0.00  0.00    -0.175 NA
BRANCH  26  27
ATOM     27  C   UNL A   1     -27.866 -11.760   8.503  0.00  0.00    +0.089 C 
ATOM     28  C   UNL A   1     -28.483 -12.558   7.477  0.00  0.00    +0.018 C 
BRANCH  28  29
ATOM     29  C   UNL A   1     -27.577 -13.413   6.644  0.00  0.00    +0.001 A 
ATOM     30  C   UNL A   1     -26.284 -13.500   6.816  0.00  0.00    +0.001 A 
ATOM     31  C   UNL A   1     -25.330 -14.041   6.541  0.00  0.00    +0.011 A 
ATOM     32  C   UNL A   1     -25.512 -15.079   5.502  0.00  0.00    +0.058 A 
ATOM     33  C   UNL A   1     -26.876 -15.170   5.063  0.00  0.00    +0.011 A 
ATOM     34  C   UNL A   1     -27.966 -14.355   5.683  0.00  0.00    +0.001 A 
ATOM     35 CL   UNL A   1     -24.395 -16.090   4.762  0.00  0.00    -0.082 Cl
ENDBRANCH  28  29
ENDBRANCH  26  27
ENDBRANCH   2  20
TORSDOF 8
ENDMDL
ENDMDL
