REMARK  Name = No_2871-gen_results/8p0m/2024-11-27-11-27-31/
REMARK  1 active torsions:
REMARK  status: ('A' for Active; 'I' for Inactive)
REMARK    1  A    between atoms: C_5  and  C_9
REMARK                            x       y       z     vdW  Elec       q    Type
REMARK                         _______ _______ _______ _____ _____    ______ ____
ROOT
ATOM      1  C   UNL A   1     -28.016  -0.814  28.878  0.00  0.00    +0.094 A 
ATOM      2  C   UNL A   1     -27.064  -0.119  28.608  0.00  0.00    -0.007 A 
ATOM      3  C   UNL A   1     -26.972   0.714  27.506  0.00  0.00    +0.028 C 
ATOM      4  C   UNL A   1     -25.820   1.491  27.116  0.00  0.00    +0.016 C 
ATOM      5  C   UNL A   1     -24.656   1.424  27.918  0.00  0.00    +0.108 C 
ATOM      6  C   UNL A   1     -24.685   0.590  29.066  0.00  0.00    +0.037 C 
ATOM      7  C   UNL A   1     -25.810  -0.127  29.334  0.00  0.00    -0.023 A 
ATOM      8  N   UNL A   1     -27.966  -1.679  30.009  0.00  0.00    -0.243 NA
ATOM      9  C   UNL A   1     -26.735  -2.006  30.583  0.00  0.00    +0.099 A 
ATOM     10  C   UNL A   1     -25.748  -1.160  30.392  0.00  0.00    +0.016 A 
ENDROOT
BRANCH   5  11
ATOM     11  C   UNL A   1     -23.472   2.197  27.617  0.00  0.00    +0.365 C 
ATOM     12  O   UNL A   1     -22.585   2.253  28.484  0.00  0.00    -0.246 OA
ATOM     13  O   UNL A   1     -23.337   2.756  26.478  0.00  0.00    -0.246 OA
ENDBRANCH   5  11
TORSDOF 1
