MODEL 2871
MODEL 1
REMARK VINA RESULT:    -6.050      0.000      0.000
REMARK INTER + INTRA:          -6.471
REMARK INTER:                  -6.404
REMARK INTRA:                  -0.067
REMARK UNBOUND:                -0.067
REMARK  Name = No_2871-gen_results/8p0m/2024-11-27-11-27-31/
REMARK  1 active torsions:
REMARK  status: ('A' for Active; 'I' for Inactive)
REMARK    1  A    between atoms: C_5  and  C_9
REMARK                            x       y       z     vdW  Elec       q    Type
REMARK                         _______ _______ _______ _____ _____    ______ ____
ROOT
ATOM      1  C   UNL A   1     -30.700  -9.986  29.715  0.00  0.00    +0.094 A 
ATOM      2  C   UNL A   1     -29.993 -10.352  30.625  0.00  0.00    -0.007 A 
ATOM      3  C   UNL A   1     -29.925  -9.754  31.872  0.00  0.00    +0.028 C 
ATOM      4  C   UNL A   1     -29.034 -10.118  32.947  0.00  0.00    +0.016 C 
ATOM      5  C   UNL A   1     -28.132 -11.190  32.744  0.00  0.00    +0.108 C 
ATOM      6  C   UNL A   1     -28.152 -11.849  31.487  0.00  0.00    +0.037 C 
ATOM      7  C   UNL A   1     -29.010 -11.412  30.526  0.00  0.00    -0.023 A 
ATOM      8  N   UNL A   1     -30.633 -10.646  28.454  0.00  0.00    -0.243 NA
ATOM      9  C   UNL A   1     -29.532 -11.448  28.144  0.00  0.00    +0.099 A 
ATOM     10  C   UNL A   1     -28.861 -11.951  29.155  0.00  0.00    +0.016 A 
ENDROOT
BRANCH   5  11
ATOM     11  C   UNL A   1     -27.231 -11.641  33.781  0.00  0.00    +0.365 C 
ATOM     12  O   UNL A   1     -26.775 -12.791  33.688  0.00  0.00    -0.246 OA
ATOM     13  O   UNL A   1     -26.888 -10.855  34.726  0.00  0.00    -0.246 OA
ENDBRANCH   5  11
TORSDOF 1
ENDMDL
ENDMDL
