MODEL 2873
MODEL 1
REMARK VINA RESULT:    -7.334      0.000      0.000
REMARK INTER + INTRA:         -13.211
REMARK INTER:                 -11.193
REMARK INTRA:                  -2.018
REMARK UNBOUND:                -2.018
REMARK  Name = No_2873-gen_results/8p0m/2024-11-27-11-27-31/
REMARK  9 active torsions:
REMARK  status: ('A' for Active; 'I' for Inactive)
REMARK    1  A    between atoms: C_1  and  C_15
REMARK    2  A    between atoms: C_3  and  C_7
REMARK    3  A    between atoms: C_15  and  O_17
REMARK    4  A    between atoms: O_17  and  C_18
REMARK    5  A    between atoms: C_18  and  C_19
REMARK    6  A    between atoms: C_19  and  O_20
REMARK    7  A    between atoms: O_20  and  C_21
REMARK    8  A    between atoms: C_21  and  C_22
REMARK    9  A    between atoms: C_21  and  N_26
REMARK                            x       y       z     vdW  Elec       q    Type
REMARK                         _______ _______ _______ _____ _____    ______ ____
ROOT
ATOM      1  C   UNL A   1     -23.606   1.945  27.672  0.00  0.00    +0.341 C 
ATOM      2  O   UNL A   1     -23.506   3.001  27.636  0.00  0.00    -0.245 OA
ENDROOT
BRANCH   1   3
ATOM      3  C   UNL A   1     -23.959   0.991  28.789  0.00  0.00    +0.076 A 
ATOM      4  C   UNL A   1     -24.136  -0.195  28.628  0.00  0.00    +0.006 A 
ATOM      5  C   UNL A   1     -24.495  -1.090  29.621  0.00  0.00    +0.001 A 
ATOM      6  C   UNL A   1     -24.700  -0.559  30.929  0.00  0.00    +0.011 A 
ATOM      7  C   UNL A   1     -24.653   0.777  31.048  0.00  0.00    +0.058 A 
ATOM      8  C   UNL A   1     -24.349   1.548  30.044  0.00  0.00    +0.018 A 
ATOM      9 CL   UNL A   1     -25.007   1.421  32.605  0.00  0.00    -0.082 Cl
BRANCH   5  10
ATOM     10  C   UNL A   1     -24.566  -2.578  29.398  0.00  0.00    +0.002 A 
ATOM     11  C   UNL A   1     -23.883  -3.338  28.807  0.00  0.00    +0.000 A 
ATOM     12  C   UNL A   1     -24.109  -4.795  28.688  0.00  0.00    +0.002 A 
ATOM     13  C   UNL A   1     -25.327  -5.306  29.176  0.00  0.00    +0.030 A 
ATOM     14  C   UNL A   1     -26.267  -4.399  29.699  0.00  0.00    +0.140 A 
ATOM     15  C   UNL A   1     -25.962  -3.063  29.852  0.00  0.00    +0.030 A 
ATOM     16  F   UNL A   1     -27.380  -4.952  30.134  0.00  0.00    -0.204 F 
ENDBRANCH   5  10
ENDBRANCH   1   3
BRANCH   1  17
ATOM     17  O   UNL A   1     -23.441   1.183  26.498  0.00  0.00    -0.443 OA
BRANCH  17  18
ATOM     18  C   UNL A   1     -24.194   1.482  25.420  0.00  0.00    +0.241 C 
BRANCH  18  19
ATOM     19  C   UNL A   1     -25.077   0.519  25.057  0.00  0.00    +0.191 C 
BRANCH  19  20
ATOM     20  O   UNL A   1     -26.269   1.110  24.867  0.00  0.00    -0.330 OA
BRANCH  20  21
ATOM     21  C   UNL A   1     -27.399   0.387  25.315  0.00  0.00    +0.274 C 
BRANCH  21  22
ATOM     22  N   UNL A   1     -28.523   1.022  24.443  0.00  0.00    -0.236 NA
ATOM     23  C   UNL A   1     -29.446   0.426  23.825  0.00  0.00    +0.117 C 
ATOM     24  C   UNL A   1     -28.608   2.484  24.546  0.00  0.00    +0.075 C 
ATOM     25  C   UNL A   1     -29.640   3.093  23.990  0.00  0.00    +0.018 C 
ATOM     26 BR   UNL A   1     -29.384  -1.524  23.710  0.00  0.00    -0.064 Br
ATOM     27  C   UNL A   1     -30.493   0.992  23.066  0.00  0.00    +0.028 C 
ATOM     28  C   UNL A   1     -30.607   2.379  23.198  0.00  0.00    +0.004 C 
ENDBRANCH  21  22
BRANCH  21  29
ATOM     29  C   UNL A   1     -27.711   0.526  26.584  0.00  0.00    +0.437 C 
ATOM     30  F   UNL A   1     -28.861   0.583  26.972  0.00  0.00    -0.166 F 
ATOM     31  F   UNL A   1     -27.152   1.787  27.036  0.00  0.00    -0.166 F 
ATOM     32  F   UNL A   1     -27.087  -0.345  27.506  0.00  0.00    -0.166 F 
ENDBRANCH  21  29
ENDBRANCH  20  21
ENDBRANCH  19  20
ENDBRANCH  18  19
ENDBRANCH  17  18
ENDBRANCH   1  17
TORSDOF 9
ENDMDL
ENDMDL
