MODEL 2874
MODEL 1
REMARK VINA RESULT:    -6.346      0.000      0.000
REMARK INTER + INTRA:          -6.840
REMARK INTER:                  -6.717
REMARK INTRA:                  -0.123
REMARK UNBOUND:                -0.123
REMARK  Name = No_2874-gen_results/8p0m/2024-11-27-11-27-31/
REMARK  1 active torsions:
REMARK  status: ('A' for Active; 'I' for Inactive)
REMARK    1  A    between atoms: C_5  and  C_11
REMARK                            x       y       z     vdW  Elec       q    Type
REMARK                         _______ _______ _______ _____ _____    ______ ____
ROOT
ATOM      1  C   UNL A   1     -22.381  -0.548  30.139  0.00  0.00    +0.102 C 
ATOM      2  C   UNL A   1     -22.670   0.156  29.199  0.00  0.00    +0.009 A 
ATOM      3  C   UNL A   1     -23.942   0.493  28.867  0.00  0.00    +0.064 A 
ATOM      4  C   UNL A   1     -24.312   1.355  27.722  0.00  0.00    +0.017 A 
ATOM      5  C   UNL A   1     -23.238   1.880  26.931  0.00  0.00    +0.017 A 
ATOM      6  C   UNL A   1     -21.926   1.564  27.352  0.00  0.00    +0.001 A 
ATOM      7  C   UNL A   1     -21.659   0.757  28.427  0.00  0.00    -0.002 A 
ATOM      8  N   UNL A   1     -23.157  -0.544  31.293  0.00  0.00    -0.253 NA
ATOM      9  C   UNL A   1     -22.942  -1.300  32.434  0.00  0.00    +0.074 C 
ATOM     10  C   UNL A   1     -23.838  -1.180  33.501  0.00  0.00    +0.018 C 
ATOM     11  C   UNL A   1     -24.626  -0.545  33.405  0.00  0.00    +0.005 C 
ATOM     12  C   UNL A   1     -25.088   0.389  32.406  0.00  0.00    +0.038 C 
ATOM     13  C   UNL A   1     -24.254   0.344  31.301  0.00  0.00    +0.152 C 
ATOM     14  N   UNL A   1     -24.617   0.868  30.107  0.00  0.00    -0.223 NA
ENDROOT
BRANCH   5  15
ATOM     15  C   UNL A   1     -23.475   2.727  25.811  0.00  0.00    +0.081 C 
ATOM     16  N   UNL A   1     -24.250   3.633  25.563  0.00  0.00    -0.153 NA
ATOM     17  C   UNL A   1     -22.352   2.574  24.783  0.00  0.00    +0.054 C 
ENDBRANCH   5  15
TORSDOF 1
ENDMDL
ENDMDL
