REMARK  Name = No_2876-gen_results/8p0m/2024-11-27-11-27-31/
REMARK  7 active torsions:
REMARK  status: ('A' for Active; 'I' for Inactive)
REMARK    1  A    between atoms: C_3  and  C_17
REMARK    2  A    between atoms: C_5  and  C_11
REMARK    3  A    between atoms: C_9  and  C_14
REMARK    4  A    between atoms: C_14  and  O_16
REMARK    5  A    between atoms: O_16  and  C_21
REMARK    6  A    between atoms: C_21  and  C_29
REMARK    7  A    between atoms: C_22  and  C_23
REMARK                            x       y       z     vdW  Elec       q    Type
REMARK                         _______ _______ _______ _____ _____    ______ ____
ROOT
ATOM      1  C   UNL A   1     -30.704   1.444  27.931  0.00  0.00    +0.346 C 
ATOM      2  O   UNL A   1     -31.062   2.246  27.317  0.00  0.00    -0.244 OA
ENDROOT
BRANCH   1  11
ATOM      3  C   UNL A   1     -28.016  -0.814  28.878  0.00  0.00    +0.000 A 
ATOM      4  C   UNL A   1     -27.064  -0.119  28.608  0.00  0.00    +0.004 A 
ATOM      5  C   UNL A   1     -25.792  -0.430  29.076  0.00  0.00    +0.072 A 
ATOM      6  C   UNL A   1     -24.546   0.349  28.823  0.00  0.00    +0.009 A 
ATOM      7  C   UNL A   1     -24.659   1.420  27.888  0.00  0.00    +0.059 A 
ATOM      8  C   UNL A   1     -25.947   1.681  27.379  0.00  0.00    +0.005 A 
ATOM      9  C   UNL A   1     -27.044   0.974  27.687  0.00  0.00    +0.000 A 
ATOM     10  C   UNL A   1     -29.236  -0.061  29.267  0.00  0.00    +0.006 A 
ATOM     11  C   UNL A   1     -29.500   0.992  28.343  0.00  0.00    +0.076 A 
ATOM     12  C   UNL A   1     -28.380   1.678  27.743  0.00  0.00    +0.006 A 
BRANCH   5  13
ATOM     13  C   UNL A   1     -25.446  -1.636  29.903  0.00  0.00    +0.419 C 
ATOM     14  F   UNL A   1     -25.684  -1.487  31.075  0.00  0.00    -0.166 F 
ATOM     15  F   UNL A   1     -26.360  -2.599  29.404  0.00  0.00    -0.166 F 
ATOM     16  F   UNL A   1     -24.258  -2.121  29.732  0.00  0.00    -0.166 F 
ENDBRANCH   5  13
BRANCH   7  17
ATOM     17  C   UNL A   1     -23.426   2.092  27.502  0.00  0.00    +0.297 C 
ATOM     18  N   UNL A   1     -23.499   3.062  26.654  0.00  0.00    -0.102 NA
ATOM     19  O   UNL A   1     -22.284   1.839  27.989  0.00  0.00    -0.264 OA
ENDBRANCH   7  17
ENDBRANCH   1  11
BRANCH   1  20
ATOM     20  O   UNL A   1     -31.697   0.867  28.754  0.00  0.00    -0.419 OA
BRANCH  20  21
ATOM     21  C   UNL A   1     -32.998   0.660  28.261  0.00  0.00    +0.166 C 
ATOM     22  C   UNL A   1     -33.733   1.341  27.822  0.00  0.00    +0.039 C 
BRANCH  21  23
ATOM     23  C   UNL A   1     -33.279  -0.873  28.514  0.00  0.00    +0.119 A 
ATOM     24  N   UNL A   1     -34.008  -1.440  27.896  0.00  0.00    -0.240 NA
ATOM     25  C   UNL A   1     -34.274  -2.684  27.896  0.00  0.00    +0.102 A 
ATOM     26  C   UNL A   1     -33.443  -3.557  27.891  0.00  0.00    +0.063 A 
ATOM     27  C   UNL A   1     -32.159  -3.134  28.664  0.00  0.00    +0.199 A 
ATOM     28  C   UNL A   1     -32.045  -1.764  28.902  0.00  0.00    +0.064 A 
ATOM     29  O   UNL A   1     -31.222  -4.010  28.957  0.00  0.00    -0.286 OA
ENDBRANCH  21  23
BRANCH  22  30
ATOM     30  C   UNL A   1     -33.482   2.743  28.009  0.00  0.00    +0.003 A 
ATOM     31  C   UNL A   1     -33.002   3.329  28.661  0.00  0.00    +0.000 A 
ATOM     32  C   UNL A   1     -32.842   4.850  28.692  0.00  0.00    +0.000 A 
ATOM     33  C   UNL A   1     -33.408   5.508  27.596  0.00  0.00    +0.000 A 
ATOM     34  C   UNL A   1     -34.061   4.775  26.607  0.00  0.00    +0.000 A 
ATOM     35  C   UNL A   1     -34.147   3.478  26.705  0.00  0.00    +0.000 A 
ENDBRANCH  22  30
ENDBRANCH  20  21
ENDBRANCH   1  20
TORSDOF 7
