MODEL 2877
MODEL 1
REMARK VINA RESULT:    -6.928      0.000      0.000
REMARK INTER + INTRA:          -8.317
REMARK INTER:                  -8.143
REMARK INTRA:                  -0.174
REMARK UNBOUND:                -0.174
REMARK  Name = No_2877-gen_results/8p0m/2024-11-27-11-27-31/
REMARK  3 active torsions:
REMARK  status: ('A' for Active; 'I' for Inactive)
REMARK    1  A    between atoms: C_3  and  C_4
REMARK    2  A    between atoms: C_4  and  C_8
REMARK    3  A    between atoms: C_13  and  N_14
REMARK                            x       y       z     vdW  Elec       q    Type
REMARK                         _______ _______ _______ _____ _____    ______ ____
ROOT
ATOM      1  C   UNL A   1     -23.788  -0.865  28.576  0.00  0.00    -0.003 A 
ATOM      2  C   UNL A   1     -22.741  -1.093  29.227  0.00  0.00    -0.003 A 
ATOM      3  C   UNL A   1     -21.549  -0.194  29.147  0.00  0.00    -0.000 A 
ATOM      4  C   UNL A   1     -21.562   0.799  28.128  0.00  0.00    +0.001 A 
ATOM      5  C   UNL A   1     -22.730   1.022  27.462  0.00  0.00    +0.016 A 
ATOM      6  C   UNL A   1     -23.860   0.249  27.677  0.00  0.00    +0.062 A 
ENDROOT
BRANCH   6   7
ATOM      7  N   UNL A   1     -24.843   0.428  26.862  0.00  0.00    -0.236 NA
ATOM      8  C   UNL A   1     -25.186   0.710  25.710  0.00  0.00    +0.135 C 
ENDBRANCH   6   7
BRANCH   1   9
ATOM      9  C   UNL A   1     -24.989  -1.457  28.939  0.00  0.00    +0.054 C 
BRANCH   9  12
ATOM     10  C   UNL A   1     -23.987  -3.768  28.452  0.00  0.00    -0.004 A 
ATOM     11  C   UNL A   1     -24.093  -4.810  28.568  0.00  0.00    -0.000 A 
ATOM     12  C   UNL A   1     -25.030  -2.942  28.926  0.00  0.00    -0.018 A 
ATOM     13  C   UNL A   1     -24.997  -5.386  29.116  0.00  0.00    -0.000 A 
ATOM     14  C   UNL A   1     -26.143  -4.850  29.697  0.00  0.00    -0.000 A 
ATOM     15  C   UNL A   1     -26.134  -3.503  29.644  0.00  0.00    -0.004 A 
ENDBRANCH   9  12
ENDBRANCH   1   9
TORSDOF 3
ENDMDL
ENDMDL
