REMARK  Name = No_2878-gen_results/8p0m/2024-11-27-11-27-31/
REMARK  3 active torsions:
REMARK  status: ('A' for Active; 'I' for Inactive)
REMARK    1  A    between atoms: C_7  and  C_10
REMARK    2  A    between atoms: C_21  and  C_22
REMARK    3  A    between atoms: C_23  and  C_32
REMARK                            x       y       z     vdW  Elec       q    Type
REMARK                         _______ _______ _______ _____ _____    ______ ____
ROOT
ATOM      1  O   UNL A   1     -28.123  -1.335  28.487  0.00  0.00    -0.244 OA
ATOM      2  C   UNL A   1     -27.064  -0.824  28.869  0.00  0.00    +0.347 C 
ATOM      3  C   UNL A   1     -26.959   0.093  29.758  0.00  0.00    +0.072 A 
ATOM      4  O   UNL A   1     -25.880  -1.112  28.159  0.00  0.00    -0.405 OA
ATOM      5  C   UNL A   1     -26.146   0.998  29.868  0.00  0.00    -0.010 A 
ATOM      6  C   UNL A   1     -26.004   2.072  30.844  0.00  0.00    +0.001 A 
ATOM      7  C   UNL A   1     -27.023   2.023  31.850  0.00  0.00    +0.053 A 
ATOM      8  C   UNL A   1     -27.935   1.019  31.813  0.00  0.00    +0.005 A 
ATOM      9  C   UNL A   1     -27.951   0.054  30.882  0.00  0.00    +0.006 A 
ATOM     10  C   UNL A   1     -24.608  -0.900  28.588  0.00  0.00    +0.215 A 
ATOM     11  C   UNL A   1     -23.666  -1.820  28.240  0.00  0.00    +0.058 A 
ATOM     12  C   UNL A   1     -23.079  -2.050  29.389  0.00  0.00    +0.024 A 
ATOM     13  C   UNL A   1     -22.781  -0.956  30.284  0.00  0.00    +0.078 A 
ATOM     14  N   UNL A   1     -24.221  -0.089  29.683  0.00  0.00    -0.297 N 
ATOM     15  C   UNL A   1     -23.613   1.208  29.747  0.00  0.00    +0.117 C 
ATOM     16  C   UNL A   1     -25.032   1.354  28.807  0.00  0.00    +0.089 C 
ENDROOT
BRANCH  16  17
ATOM     17  C   UNL A   1     -25.005   2.954  28.595  0.00  0.00    +0.194 C 
ATOM     18  C   UNL A   1     -25.893   3.292  27.441  0.00  0.00    +0.013 C 
ATOM     19  C   UNL A   1     -26.182   4.533  27.338  0.00  0.00    +0.002 C 
ATOM     20  C   UNL A   1     -25.464   5.635  27.992  0.00  0.00    +0.034 A 
ATOM     21  C   UNL A   1     -25.793   6.979  27.842  0.00  0.00    +0.003 A 
ATOM     22  C   UNL A   1     -25.006   8.013  28.493  0.00  0.00    +0.000 A 
ATOM     23  C   UNL A   1     -24.538   7.730  29.731  0.00  0.00    +0.003 A 
ATOM     24  C   UNL A   1     -24.665   6.358  30.208  0.00  0.00    +0.037 A 
ATOM     25  C   UNL A   1     -25.078   5.354  29.404  0.00  0.00    +0.139 A 
ATOM     26  O   UNL A   1     -24.761   3.847  29.500  0.00  0.00    -0.474 OA
BRANCH  18  27
ATOM     27  C   UNL A   1     -26.341   2.307  26.561  0.00  0.00    -0.027 C 
ATOM     28  C   UNL A   1     -25.529   2.135  25.351  0.00  0.00    -0.030 C 
ATOM     29  C   UNL A   1     -25.175   0.800  25.159  0.00  0.00    +0.030 C 
ATOM     30  C   UNL A   1     -27.766   2.448  26.202  0.00  0.00    +0.030 C 
ENDBRANCH  18  27
ENDBRANCH  16  17
BRANCH   7  31
ATOM     31  C   UNL A   1     -26.945   3.101  32.882  0.00  0.00    +0.249 C 
ATOM     32  N   UNL A   1     -27.297   2.893  34.016  0.00  0.00    -0.273 N 
ATOM     33  O   UNL A   1     -26.878   4.324  32.469  0.00  0.00    -0.270 OA
ATOM     34  C   UNL A   1     -27.328   3.960  35.091  0.00  0.00    +0.115 C 
ATOM     35  C   UNL A   1     -27.253   1.575  34.668  0.00  0.00    +0.115 C 
ENDBRANCH   7  31
TORSDOF 3
