MODEL 2879
MODEL 1
REMARK VINA RESULT:    -6.709      0.000      0.000
REMARK INTER + INTRA:         -13.164
REMARK INTER:                  -9.846
REMARK INTRA:                  -3.318
REMARK UNBOUND:                -3.318
REMARK  Name = No_2879-gen_results/8p0m/2024-11-27-11-27-31/
REMARK  8 active torsions:
REMARK  status: ('A' for Active; 'I' for Inactive)
REMARK    1  A    between atoms: C_3  and  C_7
REMARK    2  A    between atoms: C_6  and  O_14
REMARK    3  A    between atoms: O_14  and  C_15
REMARK    4  A    between atoms: C_16  and  C_17
REMARK    5  A    between atoms: C_17  and  C_19
REMARK    6  A    between atoms: C_23  and  C_24
REMARK    7  A    between atoms: N_25  and  C_27
REMARK    8  A    between atoms: C_30  and  C_32
REMARK                            x       y       z     vdW  Elec       q    Type
REMARK                         _______ _______ _______ _____ _____    ______ ____
ROOT
ATOM      1  C   UNL A   1     -29.128  -6.094   8.646  0.00  0.00    +0.162 A 
ATOM      2  C   UNL A   1     -30.373  -5.485   8.823  0.00  0.00    +0.128 A 
ATOM      3  N   UNL A   1     -30.745  -4.480   7.905  0.00  0.00    -0.242 NA
ATOM      4  C   UNL A   1     -29.931  -4.036   6.948  0.00  0.00    +0.099 A 
ATOM      5  C   UNL A   1     -28.255  -5.746   7.636  0.00  0.00    +0.040 A 
ATOM      6  C   UNL A   1     -28.625  -4.709   6.785  0.00  0.00    +0.024 A 
ENDROOT
BRANCH   2   7
ATOM      7  C   UNL A   1     -31.206  -5.839   9.758  0.00  0.00    +0.217 C 
ATOM      8  O   UNL A   1     -31.335  -5.353  11.013  0.00  0.00    -0.212 OA
BRANCH   7   9
ATOM      9  C   UNL A   1     -32.523  -6.521   9.473  0.00  0.00    +0.014 C 
ATOM     10  C   UNL A   1     -32.856  -7.446  10.506  0.00  0.00    +0.019 C 
BRANCH  10  11
ATOM     11  C   UNL A   1     -32.019  -8.446  10.805  0.00  0.00    +0.099 C 
ATOM     12  N   UNL A   1     -32.094  -9.549  10.146  0.00  0.00    -0.244 NA
BRANCH  12  13
ATOM     13  C   UNL A   1     -31.650 -10.810  10.621  0.00  0.00    +0.081 A 
ATOM     14  C   UNL A   1     -30.281 -10.911  11.064  0.00  0.00    +0.019 A 
ATOM     15  C   UNL A   1     -29.767 -12.099  11.463  0.00  0.00    +0.002 A 
ATOM     16  C   UNL A   1     -30.583 -13.191  11.665  0.00  0.00    -0.000 A 
ATOM     17  C   UNL A   1     -32.423 -11.900  10.779  0.00  0.00    +0.019 A 
ATOM     18  C   UNL A   1     -31.911 -13.083  11.356  0.00  0.00    +0.002 A 
BRANCH  16  19
ATOM     19  C   UNL A   1     -30.034 -14.417  12.187  0.00  0.00    -0.005 C 
ATOM     20  C   UNL A   1     -29.785 -15.448  11.377  0.00  0.00    -0.026 C 
ATOM     21  C   UNL A   1     -30.199 -15.770  10.500  0.00  0.00    +0.031 C 
ENDBRANCH  16  19
ENDBRANCH  12  13
ENDBRANCH  10  11
ENDBRANCH   7   9
ENDBRANCH   2   7
BRANCH   1  22
ATOM     22  O   UNL A   1     -29.020  -7.154   9.450  0.00  0.00    -0.452 OA
BRANCH  22  28
ATOM     23  C   UNL A   1     -27.433  -9.004   9.499  0.00  0.00    +0.037 A 
ATOM     24  C   UNL A   1     -27.114 -10.117   9.152  0.00  0.00    +0.003 A 
ATOM     25  C   UNL A   1     -27.812 -10.859   8.200  0.00  0.00    +0.005 A 
ATOM     26  C   UNL A   1     -29.024 -10.307   7.625  0.00  0.00    +0.003 A 
ATOM     27  C   UNL A   1     -29.339  -9.008   8.084  0.00  0.00    +0.037 A 
ATOM     28  C   UNL A   1     -28.623  -8.391   8.989  0.00  0.00    +0.145 A 
BRANCH  25  29
ATOM     29  C   UNL A   1     -27.472 -12.223   7.717  0.00  0.00    +0.058 A 
ATOM     30  C   UNL A   1     -26.515 -12.438   6.772  0.00  0.00    +0.279 A 
ATOM     31  N   UNL A   1     -26.318 -13.705   6.388  0.00  0.00    -0.206 NA
ATOM     32  O   UNL A   1     -25.875 -11.482   6.184  0.00  0.00    -0.265 OA
ATOM     33  C   UNL A   1     -26.913 -14.862   6.915  0.00  0.00    +0.102 A 
ATOM     34  C   UNL A   1     -28.173 -13.384   8.252  0.00  0.00    +0.006 A 
ATOM     35  C   UNL A   1     -27.850 -14.592   7.795  0.00  0.00    +0.021 A 
ENDBRANCH  25  29
ENDBRANCH  22  28
ENDBRANCH   1  22
TORSDOF 8
ENDMDL
ENDMDL
