REMARK  Name = outputs/IAG933/test6/raw/output_2879_IAG933_linker_design_.xyz
REMARK  9 active torsions:
REMARK  status: ('A' for Active; 'I' for Inactive)
REMARK    1  A    between atoms: C_1  and  C_2
REMARK    2  A    between atoms: C_1  and  C_8
REMARK    3  A    between atoms: C_1  and  N_29
REMARK    4  A    between atoms: C_21  and  O_22
REMARK    5  A    between atoms: O_22  and  C_23
REMARK    6  A    between atoms: C_23  and  C_24
REMARK    7  A    between atoms: N_29  and  C_34
REMARK    8  A    between atoms: C_36  and  C_44
REMARK    9  A    between atoms: C_42  and  C_44
REMARK                            x       y       z     vdW  Elec       q    Type
REMARK                         _______ _______ _______ _____ _____    ______ ____
ROOT
ATOM      1  C   UNL A   1     -25.688   1.614  26.461  0.00  0.00    +0.016 C 
ATOM      2  C   UNL A   1     -26.250   2.920  26.395  0.00  0.00    +0.070 C 
ATOM      3  C   UNL A   1     -25.642   4.093  27.123  0.00  0.00    +0.222 C 
ATOM      4  N   UNL A   1     -25.614   5.252  26.449  0.00  0.00    -0.236 NA
ATOM      5  C   UNL A   1     -25.026   6.479  26.963  0.00  0.00    +0.155 C 
ATOM      6  O   UNL A   1     -25.143   3.966  28.243  0.00  0.00    -0.464 OA
ATOM      7  C   UNL A   1     -27.438   3.091  25.645  0.00  0.00    +0.106 C 
ATOM      8  N   UNL A   1     -28.075   2.089  25.003  0.00  0.00    -0.208 NA
ATOM      9  C   UNL A   1     -27.543   0.849  25.079  0.00  0.00    +0.253 C 
ATOM     10  C   UNL A   1     -26.354   0.576  25.777  0.00  0.00    +0.189 C 
ATOM     11  F   UNL A   1     -25.860  -0.681  25.795  0.00  0.00    -0.200 F 
ATOM     12  C   UNL A   1     -24.539   1.334  26.887  0.00  0.00    +0.035 C 
ATOM     13  C   UNL A   1     -23.054   1.103  28.778  0.00  0.00    +0.193 C 
ATOM     14  C   UNL A   1     -23.589   1.541  25.712  0.00  0.00    +0.037 C 
ATOM     15  C   UNL A   1     -24.146   1.930  28.181  0.00  0.00    +0.089 C 
ATOM     16  O   UNL A   1     -22.081   1.452  27.578  0.00  0.00    -0.340 OA
ATOM     17  C   UNL A   1     -24.282   3.171  28.776  0.00  0.00    +0.177 C 
ATOM     18  C   UNL A   1     -22.239   2.101  26.403  0.00  0.00    +0.144 C 
ENDROOT
BRANCH   9  19
ATOM     19  O   UNL A   1     -28.193  -0.208  24.477  0.00  0.00    -0.456 OA
BRANCH  19  20
ATOM     20  C   UNL A   1     -29.460   0.005  23.866  0.00  0.00    +0.243 C 
BRANCH  20  21
ATOM     21  C   UNL A   1     -30.065  -1.377  23.573  0.00  0.00    +0.229 C 
ATOM     22  O   UNL A   1     -30.729  -1.878  24.721  0.00  0.00    -0.216 OA
ENDBRANCH  20  21
ENDBRANCH  19  20
ENDBRANCH   9  19
BRANCH  13  23
ATOM     23  N   UNL A   1     -23.785  -0.047  29.809  0.00  0.00    -0.187 NA
BRANCH  23  24
ATOM     24  C   UNL A   1     -24.855  -1.012  30.143  0.00  0.00    +0.113 C 
BRANCH  24  25
ATOM     25  C   UNL A   1     -24.973  -2.505  29.788  0.00  0.00    -0.005 C 
ATOM     26  C   UNL A   1     -23.906  -3.173  29.146  0.00  0.00    -0.003 C 
ATOM     27  C   UNL A   1     -23.989  -4.549  28.853  0.00  0.00    -0.000 C 
ATOM     28  C   UNL A   1     -25.137  -5.280  29.205  0.00  0.00    -0.000 C 
ATOM     29  C   UNL A   1     -26.232  -4.611  29.784  0.00  0.00    -0.000 C 
ATOM     30  C   UNL A   1     -26.155  -3.232  30.065  0.00  0.00    -0.003 C 
ENDBRANCH  24  25
BRANCH  24  31
ATOM     31  C   UNL A   1     -25.387  -0.679  31.571  0.00  0.00    +0.093 C 
ATOM     32  C   UNL A   1     -25.189   0.773  32.028  0.00  0.00    +0.021 C 
ATOM     33  C   UNL A   1     -25.336   0.684  33.544  0.00  0.00    +0.020 C 
ATOM     34  C   UNL A   1     -24.829  -0.715  33.905  0.00  0.00    +0.089 C 
ATOM     35  N   UNL A   1     -24.758  -1.481  32.646  0.00  0.00    -0.218 NA
ENDBRANCH  24  31
ENDBRANCH  23  24
ENDBRANCH  13  23
BRANCH  17  36
ATOM     36  C   UNL A   1     -24.570   3.379  30.280  0.00  0.00    +0.089 C 
BRANCH  36  42
ATOM     37  C   UNL A   1     -28.465   4.471  30.705  0.00  0.00    +0.060 C 
ATOM     38  C   UNL A   1     -28.595   4.222  32.026  0.00  0.00    +0.026 C 
ATOM     39  C   UNL A   1     -27.490   3.789  32.678  0.00  0.00    +0.060 C 
ATOM     40  C   UNL A   1     -27.229   4.258  30.059  0.00  0.00    +0.026 C 
ATOM     41 CL   UNL A   1     -29.991   5.089  29.807  0.00  0.00    -0.082 Cl
ATOM     42  C   UNL A   1     -26.127   3.761  30.799  0.00  0.00    +0.063 C 
ATOM     43  C   UNL A   1     -27.577   3.611  34.178  0.00  0.00    +0.052 C 
ATOM     44  N   UNL A   1     -26.335   3.599  32.069  0.00  0.00    -0.254 NA
ENDBRANCH  36  42
ENDBRANCH  17  36
TORSDOF 9
