MODEL 287
MODEL 1
REMARK VINA RESULT:    -5.136      0.000      0.000
REMARK INTER + INTRA:          -5.549
REMARK INTER:                  -5.436
REMARK INTRA:                  -0.113
REMARK UNBOUND:                -0.113
REMARK  Name = No_287-gen_results/8p0m/2024-11-27-11-27-31/
REMARK  1 active torsions:
REMARK  status: ('A' for Active; 'I' for Inactive)
REMARK    1  A    between atoms: C_6  and  N_8
REMARK                            x       y       z     vdW  Elec       q    Type
REMARK                         _______ _______ _______ _____ _____    ______ ____
ROOT
ATOM      1  C   UNL A   1     -26.350  -3.111  29.971  0.00  0.00    +0.031 A 
ATOM      2  C   UNL A   1     -26.259  -4.290  29.719  0.00  0.00    +0.140 A 
ATOM      3  C   UNL A   1     -25.256  -4.916  29.171  0.00  0.00    +0.031 A 
ATOM      4  C   UNL A   1     -24.111  -4.149  28.797  0.00  0.00    +0.021 A 
ATOM      5  C   UNL A   1     -25.181  -2.287  29.726  0.00  0.00    +0.021 A 
ATOM      6  C   UNL A   1     -24.117  -2.846  29.149  0.00  0.00    +0.081 A 
ATOM      7  F   UNL A   1     -27.333  -5.119  30.024  0.00  0.00    -0.204 F 
ENDROOT
BRANCH   6   8
ATOM      8  N   UNL A   1     -23.007  -2.041  28.858  0.00  0.00    -0.248 NA
ATOM      9  C   UNL A   1     -22.576  -1.154  29.281  0.00  0.00    +0.073 C 
ATOM     10  C   UNL A   1     -21.338  -0.442  28.794  0.00  0.00    +0.053 C 
ENDBRANCH   6   8
TORSDOF 1
ENDMDL
ENDMDL
