REMARK  Name = No_2880-gen_results/8p0m/2024-11-27-11-27-31/
REMARK  3 active torsions:
REMARK  status: ('A' for Active; 'I' for Inactive)
REMARK    1  A    between atoms: C_2  and  O_7
REMARK    2  A    between atoms: O_7  and  C_8
REMARK    3  A    between atoms: C_8  and  C_9
REMARK                            x       y       z     vdW  Elec       q    Type
REMARK                         _______ _______ _______ _____ _____    ______ ____
ROOT
ATOM      1  O   UNL A   1     -29.927  -0.726  29.877  0.00  0.00    -0.471 OA
ENDROOT
BRANCH   1   3
ATOM      2  C   UNL A   1     -28.016  -0.814  28.878  0.00  0.00    +0.037 A 
ATOM      3  C   UNL A   1     -28.469  -0.785  29.829  0.00  0.00    +0.139 A 
ATOM      4  C   UNL A   1     -26.546  -0.876  28.850  0.00  0.00    +0.003 A 
ATOM      5  C   UNL A   1     -25.804  -1.032  30.057  0.00  0.00    +0.000 A 
ATOM      6  C   UNL A   1     -27.944  -0.987  31.207  0.00  0.00    +0.037 A 
ATOM      7  C   UNL A   1     -26.582  -1.039  31.223  0.00  0.00    +0.003 A 
ENDBRANCH   1   3
BRANCH   1   8
ATOM      8  C   UNL A   1     -30.526   0.422  30.241  0.00  0.00    +0.232 C 
BRANCH   8   9
ATOM      9  C   UNL A   1     -31.609   0.542  29.985  0.00  0.00    +0.021 A 
ATOM     10  C   UNL A   1     -32.444  -0.451  29.326  0.00  0.00    -0.001 A 
ATOM     11  C   UNL A   1     -33.746  -0.259  28.984  0.00  0.00    -0.000 A 
ATOM     12  C   UNL A   1     -34.334   0.988  29.300  0.00  0.00    -0.000 A 
ATOM     13  C   UNL A   1     -33.691   1.981  29.897  0.00  0.00    -0.000 A 
ATOM     14  C   UNL A   1     -32.334   1.816  30.247  0.00  0.00    -0.001 A 
ENDBRANCH   8   9
ENDBRANCH   1   8
TORSDOF 3
