MODEL 2880
MODEL 1
REMARK VINA RESULT:    -6.823      0.000      0.000
REMARK INTER + INTRA:          -8.403
REMARK INTER:                  -8.019
REMARK INTRA:                  -0.383
REMARK UNBOUND:                -0.383
REMARK  Name = No_2880-gen_results/8p0m/2024-11-27-11-27-31/
REMARK  3 active torsions:
REMARK  status: ('A' for Active; 'I' for Inactive)
REMARK    1  A    between atoms: C_2  and  O_7
REMARK    2  A    between atoms: O_7  and  C_8
REMARK    3  A    between atoms: C_8  and  C_9
REMARK                            x       y       z     vdW  Elec       q    Type
REMARK                         _______ _______ _______ _____ _____    ______ ____
ROOT
ATOM      1  O   UNL A   1     -23.091  -2.309  28.843  0.00  0.00    -0.471 OA
ENDROOT
BRANCH   1   3
ATOM      2  C   UNL A   1     -23.981  -4.271  28.716  0.00  0.00    +0.037 A 
ATOM      3  C   UNL A   1     -24.135  -3.299  29.091  0.00  0.00    +0.139 A 
ATOM      4  C   UNL A   1     -25.045  -5.254  28.974  0.00  0.00    +0.003 A 
ATOM      5  C   UNL A   1     -26.272  -4.851  29.577  0.00  0.00    +0.000 A 
ATOM      6  C   UNL A   1     -25.317  -2.620  29.689  0.00  0.00    +0.037 A 
ATOM      7  C   UNL A   1     -26.323  -3.502  29.953  0.00  0.00    +0.003 A 
ENDBRANCH   1   3
BRANCH   1   8
ATOM      8  C   UNL A   1     -23.276  -1.042  29.254  0.00  0.00    +0.232 C 
BRANCH   8   9
ATOM      9  C   UNL A   1     -23.074  -0.225  28.516  0.00  0.00    +0.021 A 
ATOM     10  C   UNL A   1     -21.836   0.531  28.400  0.00  0.00    -0.001 A 
ATOM     11  C   UNL A   1     -21.635   1.552  27.524  0.00  0.00    -0.000 A 
ATOM     12  C   UNL A   1     -22.699   1.895  26.657  0.00  0.00    -0.000 A 
ATOM     13  C   UNL A   1     -23.879   1.292  26.655  0.00  0.00    -0.000 A 
ATOM     14  C   UNL A   1     -24.121   0.242  27.566  0.00  0.00    -0.001 A 
ENDBRANCH   8   9
ENDBRANCH   1   8
TORSDOF 3
ENDMDL
ENDMDL
