MODEL 2881
MODEL 1
REMARK VINA RESULT:    -7.421      0.000      0.000
REMARK INTER + INTRA:          -8.781
REMARK INTER:                  -8.288
REMARK INTRA:                  -0.493
REMARK UNBOUND:                -0.493
REMARK  Name = No_2881-gen_results/8p0m/2024-11-27-11-27-31/
REMARK  2 active torsions:
REMARK  status: ('A' for Active; 'I' for Inactive)
REMARK    1  A    between atoms: N_4  and  C_9
REMARK    2  A    between atoms: C_11  and  C_12
REMARK                            x       y       z     vdW  Elec       q    Type
REMARK                         _______ _______ _______ _____ _____    ______ ____
ROOT
ATOM      1  C   UNL A   1     -23.980  -1.438  29.370  0.00  0.00    +0.098 C 
ATOM      2  C   UNL A   1     -24.615  -0.194  29.046  0.00  0.00    -0.011 C 
ATOM      3  C   UNL A   1     -23.756   0.770  28.592  0.00  0.00    -0.025 C 
ATOM      4  C   UNL A   1     -22.529   0.661  29.707  0.00  0.00    +0.028 C 
ATOM      5  C   UNL A   1     -22.942  -0.717  29.860  0.00  0.00    +0.029 C 
ENDROOT
BRANCH   1   9
ATOM      6  O   UNL A   1     -23.439  -4.027  28.682  0.00  0.00    -0.273 OA
ATOM      7  C   UNL A   1     -24.491  -3.932  29.128  0.00  0.00    +0.243 C 
ATOM      8  C   UNL A   1     -25.304  -4.900  29.316  0.00  0.00    +0.168 C 
ATOM      9  N   UNL A   1     -24.888  -2.549  29.481  0.00  0.00    -0.276 N 
ATOM     10  C   UNL A   1     -26.136  -2.275  30.064  0.00  0.00    +0.094 C 
ATOM     11  N   UNL A   1     -25.107  -6.031  28.996  0.00  0.00    -0.123 NA
ATOM     12  C   UNL A   1     -26.699  -4.614  29.901  0.00  0.00    +0.030 C 
ATOM     13  C   UNL A   1     -27.020  -3.627  30.117  0.00  0.00    +0.024 C 
ENDBRANCH   1   9
BRANCH   3  14
ATOM     14  C   UNL A   1     -23.310   0.800  27.562  0.00  0.00    -0.003 A 
ATOM     15  C   UNL A   1     -22.617   1.989  26.943  0.00  0.00    -0.000 A 
ATOM     16  C   UNL A   1     -22.623   2.279  25.689  0.00  0.00    +0.001 A 
ATOM     17  C   UNL A   1     -23.737   1.651  24.960  0.00  0.00    +0.011 A 
ATOM     18  C   UNL A   1     -24.547   0.814  25.427  0.00  0.00    +0.058 A 
ATOM     19  C   UNL A   1     -24.438   0.386  26.751  0.00  0.00    +0.011 A 
ATOM     20 CL   UNL A   1     -25.798   0.088  24.454  0.00  0.00    -0.082 Cl
ENDBRANCH   3  14
TORSDOF 2
ENDMDL
ENDMDL
