MODEL 2883
MODEL 1
REMARK VINA RESULT:    -8.731      0.000      0.000
REMARK INTER + INTRA:         -10.648
REMARK INTER:                 -10.263
REMARK INTRA:                  -0.385
REMARK UNBOUND:                -0.385
REMARK  Name = No_2883-gen_results/8p0m/2024-11-27-11-27-31/
REMARK  3 active torsions:
REMARK  status: ('A' for Active; 'I' for Inactive)
REMARK    1  A    between atoms: C_2  and  C_13
REMARK    2  A    between atoms: C_3  and  C_4
REMARK    3  A    between atoms: C_18  and  C_19
REMARK                            x       y       z     vdW  Elec       q    Type
REMARK                         _______ _______ _______ _____ _____    ______ ____
ROOT
ATOM      1  C   UNL A   1     -24.288   2.908  27.085  0.00  0.00    +0.249 C 
ATOM      2  O   UNL A   1     -24.228   3.955  27.180  0.00  0.00    -0.270 OA
ATOM      3  N   UNL A   1     -25.331   2.326  26.296  0.00  0.00    -0.276 N 
ATOM      4  C   UNL A   1     -26.312   3.160  25.681  0.00  0.00    +0.094 C 
ATOM      5  C   UNL A   1     -27.111   2.780  25.148  0.00  0.00    +0.026 C 
ATOM      6  C   UNL A   1     -27.348   1.296  24.961  0.00  0.00    +0.026 C 
ATOM      7  C   UNL A   1     -26.452   0.376  25.549  0.00  0.00    +0.026 C 
ATOM      8  C   UNL A   1     -25.469   0.905  26.187  0.00  0.00    +0.094 C 
ENDROOT
BRANCH   1  10
ATOM      9  C   UNL A   1     -23.922   1.088  28.397  0.00  0.00    +0.004 A 
ATOM     10  C   UNL A   1     -23.437   1.737  27.724  0.00  0.00    +0.054 A 
ATOM     11  C   UNL A   1     -23.118  -0.021  28.937  0.00  0.00    +0.000 A 
ATOM     12  C   UNL A   1     -22.008   1.884  27.354  0.00  0.00    +0.004 A 
ATOM     13  C   UNL A   1     -21.179   0.876  27.833  0.00  0.00    +0.000 A 
ATOM     14  C   UNL A   1     -21.679  -0.106  28.663  0.00  0.00    +0.000 A 
BRANCH  11  15
ATOM     15  C   UNL A   1     -23.585  -1.128  29.757  0.00  0.00    +0.000 A 
ATOM     16  C   UNL A   1     -24.782  -1.005  30.473  0.00  0.00    +0.002 A 
ATOM     17  C   UNL A   1     -25.553  -2.034  30.745  0.00  0.00    +0.030 A 
ATOM     18  C   UNL A   1     -25.700  -3.081  29.959  0.00  0.00    +0.140 A 
ATOM     19  C   UNL A   1     -24.902  -3.221  28.786  0.00  0.00    +0.030 A 
ATOM     20  C   UNL A   1     -23.444  -2.459  29.049  0.00  0.00    +0.002 A 
ATOM     21  F   UNL A   1     -26.736  -3.938  29.873  0.00  0.00    -0.204 F 
ENDBRANCH  11  15
ENDBRANCH   1  10
BRANCH   6  22
ATOM     22  C   UNL A   1     -28.424   0.709  24.231  0.00  0.00    -0.022 A 
ATOM     23  C   UNL A   1     -29.459   1.338  23.878  0.00  0.00    -0.004 A 
ATOM     24  C   UNL A   1     -30.569   0.647  23.276  0.00  0.00    -0.000 A 
ATOM     25  C   UNL A   1     -30.493  -0.753  23.055  0.00  0.00    -0.000 A 
ATOM     26  C   UNL A   1     -29.373  -1.449  23.473  0.00  0.00    -0.000 A 
ATOM     27  C   UNL A   1     -28.354  -0.785  24.033  0.00  0.00    -0.004 A 
ENDBRANCH   6  22
TORSDOF 3
ENDMDL
ENDMDL
