REMARK  Name = outputs/IAG933/test6/raw/output_2883_IAG933_linker_design_.xyz
REMARK  17 active torsions:
REMARK  status: ('A' for Active; 'I' for Inactive)
REMARK    1  A    between atoms: C_1  and  C_2
REMARK    2  A    between atoms: C_1  and  C_8
REMARK    3  A    between atoms: C_9  and  O_28
REMARK    4  A    between atoms: C_14  and  C_15
REMARK    5  A    between atoms: C_15  and  O_18
REMARK    6  A    between atoms: O_18  and  C_29
REMARK    7  A    between atoms: C_21  and  O_22
REMARK    8  A    between atoms: O_22  and  C_23
REMARK    9  A    between atoms: C_23  and  C_24
REMARK   10  A    between atoms: O_28  and  C_44
REMARK   11  A    between atoms: C_29  and  C_44
REMARK   12  A    between atoms: C_29  and  N_45
REMARK   13  A    between atoms: C_32  and  C_42
REMARK   14  A    between atoms: C_32  and  N_45
REMARK   15  A    between atoms: O_33  and  S_41
REMARK   16  A    between atoms: O_33  and  C_43
REMARK   17  A    between atoms: C_43  and  C_44
REMARK                            x       y       z     vdW  Elec       q    Type
REMARK                         _______ _______ _______ _____ _____    ______ ____
ROOT
ATOM      1  C   UNL A   1     -25.628   3.508  29.578  0.00  0.00    +0.273 C 
ENDROOT
BRANCH   1   2
ATOM      2  N   UNL A   1     -25.621   4.510  30.677  0.00  0.00    -0.173 NA
BRANCH   2   3
ATOM      3  C   UNL A   1     -26.117   5.619  30.495  0.00  0.00    +0.120 C 
BRANCH   3  10
ATOM      4  C   UNL A   1     -27.396   7.224  32.816  0.00  0.00    +0.053 C 
ATOM      5  C   UNL A   1     -26.402   6.451  32.276  0.00  0.00    +0.007 C 
ATOM      6  N   UNL A   1     -28.823   6.594  30.936  0.00  0.00    -0.242 NA
ATOM      7  C   UNL A   1     -28.535   7.381  31.985  0.00  0.00    +0.105 C 
ATOM      8  C   UNL A   1     -27.909   5.676  30.518  0.00  0.00    +0.096 C 
ATOM      9 BR   UNL A   1     -27.242   7.830  34.563  0.00  0.00    -0.047 Br
ATOM     10  C   UNL A   1     -26.742   5.750  31.067  0.00  0.00    +0.015 C 
ENDBRANCH   3  10
ENDBRANCH   2   3
ENDBRANCH   1   2
BRANCH   1  11
ATOM     11  C   UNL A   1     -24.694   2.479  30.239  0.00  0.00    +0.204 C 
BRANCH  11  12
ATOM     12  C   UNL A   1     -24.195   1.480  29.219  0.00  0.00    +0.210 C 
BRANCH  12  13
ATOM     13  O   UNL A   1     -23.285   2.206  28.374  0.00  0.00    -0.214 OA
BRANCH  13  17
ATOM     14  F   UNL A   1     -20.888   1.635  27.987  0.00  0.00    -0.056 F 
ATOM     15  O   UNL A   1     -22.384   1.953  26.165  0.00  0.00    -0.041 OA
ATOM     16  O   UNL A   1     -22.552   0.042  27.668  0.00  0.00    -0.041 OA
ATOM     17  S   UNL A   1     -22.222   1.448  27.504  0.00  0.00    +0.142 S 
ENDBRANCH  13  17
ENDBRANCH  12  13
ENDBRANCH  11  12
BRANCH  11  18
ATOM     18  O   UNL A   1     -25.226   2.029  31.456  0.00  0.00    -0.349 OA
BRANCH  18  20
ATOM     19  C   UNL A   1     -25.387  -0.679  31.571  0.00  0.00    +0.104 C 
ATOM     20  C   UNL A   1     -25.189   0.773  32.028  0.00  0.00    +0.133 C 
ATOM     21  C   UNL A   1     -25.336   0.684  33.544  0.00  0.00    +0.050 C 
ATOM     22  C   UNL A   1     -24.829  -0.715  33.905  0.00  0.00    +0.091 C 
ATOM     23  N   UNL A   1     -24.758  -1.481  32.646  0.00  0.00    -0.217 NA
BRANCH  19  24
ATOM     24  C   UNL A   1     -24.855  -1.012  30.143  0.00  0.00    +0.046 C 
BRANCH  24  25
ATOM     25  C   UNL A   1     -24.973  -2.505  29.788  0.00  0.00    -0.021 C 
ATOM     26  C   UNL A   1     -23.906  -3.173  29.146  0.00  0.00    -0.004 C 
ATOM     27  C   UNL A   1     -23.989  -4.549  28.853  0.00  0.00    -0.000 C 
ATOM     28  C   UNL A   1     -25.137  -5.280  29.205  0.00  0.00    -0.000 C 
ATOM     29  C   UNL A   1     -26.232  -4.611  29.784  0.00  0.00    -0.000 C 
ATOM     30  C   UNL A   1     -26.155  -3.232  30.065  0.00  0.00    -0.004 C 
ENDBRANCH  24  25
ENDBRANCH  19  24
ENDBRANCH  18  20
ENDBRANCH  11  18
ENDBRANCH   1  11
BRANCH   1  31
ATOM     31  O   UNL A   1     -25.143   3.966  28.243  0.00  0.00    -0.444 OA
BRANCH  31  32
ATOM     32  C   UNL A   1     -25.642   4.093  27.123  0.00  0.00    +0.223 C 
ATOM     33  N   UNL A   1     -25.614   5.252  26.449  0.00  0.00    -0.236 NA
ATOM     34  C   UNL A   1     -25.026   6.479  26.963  0.00  0.00    +0.155 C 
BRANCH  32  36
ATOM     35  C   UNL A   1     -25.688   1.614  26.461  0.00  0.00    +0.041 C 
ATOM     36  C   UNL A   1     -26.250   2.920  26.395  0.00  0.00    +0.074 C 
ATOM     37  C   UNL A   1     -27.438   3.091  25.645  0.00  0.00    +0.107 C 
ATOM     38  N   UNL A   1     -28.075   2.089  25.003  0.00  0.00    -0.208 NA
ATOM     39  C   UNL A   1     -27.543   0.849  25.079  0.00  0.00    +0.253 C 
ATOM     40  C   UNL A   1     -26.354   0.576  25.777  0.00  0.00    +0.193 C 
ATOM     41  F   UNL A   1     -25.860  -0.681  25.795  0.00  0.00    -0.199 F 
BRANCH  39  42
ATOM     42  O   UNL A   1     -28.193  -0.208  24.477  0.00  0.00    -0.456 OA
BRANCH  42  43
ATOM     43  C   UNL A   1     -29.460   0.005  23.866  0.00  0.00    +0.243 C 
BRANCH  43  44
ATOM     44  C   UNL A   1     -30.065  -1.377  23.573  0.00  0.00    +0.229 C 
ATOM     45  O   UNL A   1     -30.729  -1.878  24.721  0.00  0.00    -0.216 OA
ENDBRANCH  43  44
ENDBRANCH  42  43
ENDBRANCH  39  42
ENDBRANCH  32  36
ENDBRANCH  31  32
ENDBRANCH   1  31
TORSDOF 17
