MODEL 2884
MODEL 1
REMARK VINA RESULT:    -7.226      0.000      0.000
REMARK INTER + INTRA:         -10.145
REMARK INTER:                  -9.338
REMARK INTRA:                  -0.807
REMARK UNBOUND:                -0.807
REMARK  Name = No_2884-gen_results/8p0m/2024-11-27-11-27-31/
REMARK  5 active torsions:
REMARK  status: ('A' for Active; 'I' for Inactive)
REMARK    1  A    between atoms: N_3  and  C_11
REMARK    2  A    between atoms: C_6  and  C_7
REMARK    3  A    between atoms: C_11  and  C_12
REMARK    4  A    between atoms: C_12  and  C_13
REMARK    5  A    between atoms: C_12  and  C_19
REMARK                            x       y       z     vdW  Elec       q    Type
REMARK                         _______ _______ _______ _____ _____    ______ ____
ROOT
ATOM      1  C   UNL A   1     -10.236   1.442  37.275  0.00  0.00    +0.102 C 
ENDROOT
BRANCH   1   4
ATOM      2  O   UNL A   1     -12.313   2.668  38.468  0.00  0.00    -0.275 OA
ATOM      3  C   UNL A   1     -12.222   2.457  37.338  0.00  0.00    +0.226 C 
ATOM      4  N   UNL A   1     -11.549   1.978  36.533  0.00  0.00    -0.278 N 
ATOM      5  C   UNL A   1     -13.618   2.928  36.529  0.00  0.00    +0.086 C 
ATOM      6  C   UNL A   1     -13.758   2.573  35.210  0.00  0.00    +0.023 C 
ATOM      7  C   UNL A   1     -12.730   1.964  34.535  0.00  0.00    +0.124 C 
ATOM      8  C   UNL A   1     -11.563   1.567  35.216  0.00  0.00    +0.105 C 
BRANCH   7   9
ATOM      9  C   UNL A   1     -12.892   1.561  33.109  0.00  0.00    +0.366 C 
ATOM     10  O   UNL A   1     -12.350   0.967  32.472  0.00  0.00    -0.246 OA
ATOM     11  O   UNL A   1     -13.972   2.269  32.594  0.00  0.00    -0.246 OA
ENDBRANCH   7   9
ENDBRANCH   1   4
BRANCH   1  12
ATOM     12  C   UNL A   1     -10.044   0.158  37.206  0.00  0.00    +0.064 C 
BRANCH  12  13
ATOM     13  C   UNL A   1     -10.730  -0.656  37.939  0.00  0.00    -0.017 A 
ATOM     14  C   UNL A   1     -11.129  -1.805  37.338  0.00  0.00    -0.004 A 
ATOM     15  C   UNL A   1     -11.957  -2.822  38.057  0.00  0.00    -0.000 A 
ATOM     16  C   UNL A   1     -12.273  -2.547  39.374  0.00  0.00    -0.000 A 
ATOM     17  C   UNL A   1     -11.873  -1.361  39.977  0.00  0.00    -0.000 A 
ATOM     18  C   UNL A   1     -11.132  -0.442  39.267  0.00  0.00    -0.004 A 
ENDBRANCH  12  13
BRANCH  12  19
ATOM     19  C   UNL A   1      -9.161  -0.327  36.198  0.00  0.00    -0.025 C 
ATOM     20  C   UNL A   1      -8.166   0.008  35.748  0.00  0.00    -0.030 C 
ATOM     21  C   UNL A   1      -7.448  -0.523  34.661  0.00  0.00    +0.030 C 
ENDBRANCH  12  19
ENDBRANCH   1  12
TORSDOF 5
ENDMDL
ENDMDL
