REMARK  Name = outputs/IAG933/test6/raw/output_2884_IAG933_linker_design_.xyz
REMARK  13 active torsions:
REMARK  status: ('A' for Active; 'I' for Inactive)
REMARK    1  A    between atoms: C_1  and  C_2
REMARK    2  A    between atoms: C_1  and  C_8
REMARK    3  A    between atoms: C_1  and  C_37
REMARK    4  A    between atoms: C_13  and  C_36
REMARK    5  A    between atoms: C_14  and  C_15
REMARK    6  A    between atoms: C_21  and  O_22
REMARK    7  A    between atoms: O_22  and  C_23
REMARK    8  A    between atoms: C_23  and  C_24
REMARK    9  A    between atoms: O_30  and  C_41
REMARK   10  A    between atoms: C_39  and  N_43
REMARK   11  A    between atoms: C_40  and  C_41
REMARK   12  A    between atoms: N_43  and  C_47
REMARK   13  A    between atoms: C_44  and  C_45
REMARK                            x       y       z     vdW  Elec       q    Type
REMARK                         _______ _______ _______ _____ _____    ______ ____
ROOT
ATOM      1  C   UNL A   1     -21.780   1.567  27.657  0.00  0.00    +0.044 C 
ATOM      2  O   UNL A   1     -23.205   0.080  28.782  0.00  0.00    -0.485 OA
ATOM      3  C   UNL A   1     -23.222   1.169  27.587  0.00  0.00    +0.138 C 
ATOM      4  C   UNL A   1     -22.718   1.929  26.283  0.00  0.00    +0.044 C 
ATOM      5  C   UNL A   1     -24.759   1.186  27.645  0.00  0.00    +0.084 C 
ATOM      6  C   UNL A   1     -24.415  -0.074  29.245  0.00  0.00    +0.132 C 
ATOM      7  C   UNL A   1     -25.477   0.601  28.666  0.00  0.00    +0.081 C 
ENDROOT
BRANCH   5   8
ATOM      8  C   UNL A   1     -25.688   1.614  26.461  0.00  0.00    +0.079 C 
ATOM      9  C   UNL A   1     -26.250   2.920  26.395  0.00  0.00    +0.055 C 
ATOM     10  C   UNL A   1     -27.438   3.091  25.645  0.00  0.00    +0.102 C 
ATOM     11  N   UNL A   1     -28.075   2.089  25.003  0.00  0.00    -0.212 NA
ATOM     12  C   UNL A   1     -27.543   0.849  25.079  0.00  0.00    +0.234 C 
ATOM     13  C   UNL A   1     -26.354   0.576  25.777  0.00  0.00    +0.240 C 
ATOM     14  F   UNL A   1     -25.860  -0.681  25.795  0.00  0.00    -0.227 F 
BRANCH   9  15
ATOM     15  C   UNL A   1     -25.642   4.093  27.123  0.00  0.00    +0.263 C 
ATOM     16  N   UNL A   1     -25.614   5.252  26.449  0.00  0.00    -0.200 NA
ATOM     17  C   UNL A   1     -25.026   6.479  26.963  0.00  0.00    +0.139 C 
ATOM     18  O   UNL A   1     -25.143   3.966  28.243  0.00  0.00    -0.269 OA
ENDBRANCH   9  15
BRANCH  12  19
ATOM     19  O   UNL A   1     -28.193  -0.208  24.477  0.00  0.00    -0.459 OA
BRANCH  19  20
ATOM     20  C   UNL A   1     -29.460   0.005  23.866  0.00  0.00    +0.242 C 
BRANCH  20  21
ATOM     21  C   UNL A   1     -30.065  -1.377  23.573  0.00  0.00    +0.229 C 
ATOM     22  O   UNL A   1     -30.729  -1.878  24.721  0.00  0.00    -0.216 OA
ENDBRANCH  20  21
ENDBRANCH  19  20
ENDBRANCH  12  19
ENDBRANCH   5   8
BRANCH   6  23
ATOM     23  C   UNL A   1     -24.855  -1.012  30.143  0.00  0.00    +0.096 C 
BRANCH  23  24
ATOM     24  C   UNL A   1     -24.973  -2.505  29.788  0.00  0.00    -0.014 C 
ATOM     25  C   UNL A   1     -23.906  -3.173  29.146  0.00  0.00    -0.004 C 
ATOM     26  C   UNL A   1     -23.989  -4.549  28.853  0.00  0.00    -0.000 C 
ATOM     27  C   UNL A   1     -25.137  -5.280  29.205  0.00  0.00    -0.000 C 
ATOM     28  C   UNL A   1     -26.232  -4.611  29.784  0.00  0.00    -0.000 C 
ATOM     29  C   UNL A   1     -26.155  -3.232  30.065  0.00  0.00    -0.004 C 
ENDBRANCH  23  24
BRANCH  23  30
ATOM     30  C   UNL A   1     -25.387  -0.679  31.571  0.00  0.00    +0.084 C 
ATOM     31  C   UNL A   1     -25.189   0.773  32.028  0.00  0.00    +0.020 C 
ATOM     32  C   UNL A   1     -25.336   0.684  33.544  0.00  0.00    +0.020 C 
ATOM     33  C   UNL A   1     -24.829  -0.715  33.905  0.00  0.00    +0.089 C 
ATOM     34  N   UNL A   1     -24.758  -1.481  32.646  0.00  0.00    -0.219 NA
ENDBRANCH  23  30
ENDBRANCH   6  23
BRANCH   7  35
ATOM     35  N   UNL A   1     -26.700   0.282  29.018  0.00  0.00    -0.218 NA
BRANCH  35  39
ATOM     36  O   UNL A   1     -31.087   2.468  29.420  0.00  0.00    -0.218 OA
ATOM     37  C   UNL A   1     -29.939   1.965  28.924  0.00  0.00    +0.184 C 
ATOM     38  C   UNL A   1     -28.963   0.044  27.819  0.00  0.00    +0.049 C 
ATOM     39  C   UNL A   1     -27.990   0.671  28.874  0.00  0.00    +0.053 C 
ATOM     40  C   UNL A   1     -28.712   1.739  29.567  0.00  0.00    +0.095 C 
ATOM     41  C   UNL A   1     -30.068   1.064  27.665  0.00  0.00    +0.074 C 
BRANCH  40  42
ATOM     42  C   UNL A   1     -28.371   2.653  30.774  0.00  0.00    +0.341 C 
ATOM     43  O   UNL A   1     -29.084   2.602  31.741  0.00  0.00    -0.245 OA
BRANCH  42  44
ATOM     44  O   UNL A   1     -27.133   3.354  30.656  0.00  0.00    -0.442 OA
ATOM     45  C   UNL A   1     -27.119   4.568  31.401  0.00  0.00    +0.256 C 
ENDBRANCH  42  44
ENDBRANCH  40  42
BRANCH  41  47
ATOM     46  O   UNL A   1     -31.945  -0.011  28.546  0.00  0.00    -0.220 OA
ATOM     47  C   UNL A   1     -31.419   0.393  27.360  0.00  0.00    +0.185 C 
ENDBRANCH  41  47
ENDBRANCH  35  39
ENDBRANCH   7  35
TORSDOF 13
