MODEL 2885
MODEL 1
REMARK VINA RESULT:    -6.736      0.000      0.000
REMARK INTER + INTRA:          -7.930
REMARK INTER:                  -7.524
REMARK INTRA:                  -0.406
REMARK UNBOUND:                -0.406
REMARK  Name = No_2885-gen_results/8p0m/2024-11-27-11-27-31/
REMARK  2 active torsions:
REMARK  status: ('A' for Active; 'I' for Inactive)
REMARK    1  A    between atoms: C_2  and  C_3
REMARK    2  A    between atoms: C_3  and  C_4
REMARK                            x       y       z     vdW  Elec       q    Type
REMARK                         _______ _______ _______ _____ _____    ______ ____
ROOT
ATOM      1  C   UNL A   1     -23.465  -1.581  29.382  0.00  0.00    +0.053 C 
ENDROOT
BRANCH   1   3
ATOM      2  C   UNL A   1     -23.927  -3.738  28.745  0.00  0.00    -0.004 A 
ATOM      3  C   UNL A   1     -24.281  -2.705  29.265  0.00  0.00    -0.018 A 
ATOM      4  C   UNL A   1     -24.606  -4.965  28.930  0.00  0.00    -0.000 A 
ATOM      5  C   UNL A   1     -25.902  -4.872  29.446  0.00  0.00    -0.000 A 
ATOM      6  C   UNL A   1     -26.382  -3.673  29.903  0.00  0.00    -0.000 A 
ATOM      7  C   UNL A   1     -25.557  -2.506  29.940  0.00  0.00    -0.004 A 
ENDBRANCH   1   3
BRANCH   1   8
ATOM      8  C   UNL A   1     -23.336  -0.468  28.421  0.00  0.00    -0.018 A 
ATOM      9  C   UNL A   1     -24.358  -0.021  27.510  0.00  0.00    -0.004 A 
ATOM     10  C   UNL A   1     -24.127   1.065  26.644  0.00  0.00    -0.000 A 
ATOM     11  C   UNL A   1     -22.958   1.865  26.782  0.00  0.00    -0.000 A 
ATOM     12  C   UNL A   1     -21.970   1.456  27.692  0.00  0.00    -0.000 A 
ATOM     13  C   UNL A   1     -22.164   0.377  28.528  0.00  0.00    -0.004 A 
ENDBRANCH   1   8
TORSDOF 2
ENDMDL
ENDMDL
