REMARK  Name = outputs/IAG933/test6/raw/output_2886_IAG933_linker_design_.xyz
REMARK  13 active torsions:
REMARK  status: ('A' for Active; 'I' for Inactive)
REMARK    1  A    between atoms: C_1  and  C_2
REMARK    2  A    between atoms: C_1  and  C_8
REMARK    3  A    between atoms: C_9  and  N_34
REMARK    4  A    between atoms: C_13  and  C_28
REMARK    5  A    between atoms: C_14  and  C_15
REMARK    6  A    between atoms: C_21  and  O_22
REMARK    7  A    between atoms: O_22  and  C_23
REMARK    8  A    between atoms: C_23  and  C_24
REMARK    9  A    between atoms: C_28  and  C_36
REMARK   10  A    between atoms: C_28  and  C_41
REMARK   11  A    between atoms: O_29  and  C_42
REMARK   12  A    between atoms: N_34  and  C_36
REMARK   13  A    between atoms: C_35  and  C_37
REMARK                            x       y       z     vdW  Elec       q    Type
REMARK                         _______ _______ _______ _____ _____    ______ ____
ROOT
ATOM      1  O   UNL A   1     -27.714   1.907  31.503  0.00  0.00    -0.274 OA
ATOM      2  N   UNL A   1     -25.537   1.706  30.740  0.00  0.00    -0.279 N 
ATOM      3  C   UNL A   1     -26.713   2.527  31.192  0.00  0.00    +0.237 C 
ENDROOT
BRANCH   3   5
ATOM      4  C   UNL A   1     -27.598   5.066  31.061  0.00  0.00    -0.009 C 
ATOM      5  C   UNL A   1     -26.582   4.086  31.370  0.00  0.00    +0.163 C 
ATOM      6  O   UNL A   1     -24.346   3.776  32.236  0.00  0.00    -0.287 OA
ATOM      7  C   UNL A   1     -25.388   4.494  32.068  0.00  0.00    +0.219 C 
ATOM      8  C   UNL A   1     -26.518   6.685  32.607  0.00  0.00    +0.040 C 
ATOM      9  C   UNL A   1     -25.372   5.834  32.691  0.00  0.00    +0.174 C 
ATOM     10  C   UNL A   1     -27.605   6.358  31.731  0.00  0.00    -0.001 C 
BRANCH   9  11
ATOM     11  O   UNL A   1     -24.102   6.263  33.256  0.00  0.00    -0.469 OA
ATOM     12  C   UNL A   1     -24.281   6.915  34.511  0.00  0.00    +0.253 C 
ENDBRANCH   9  11
ENDBRANCH   3   5
BRANCH   2  14
ATOM     13  C   UNL A   1     -25.387  -0.679  31.571  0.00  0.00    +0.095 C 
ATOM     14  C   UNL A   1     -25.189   0.773  32.028  0.00  0.00    +0.093 C 
ATOM     15  C   UNL A   1     -25.336   0.684  33.544  0.00  0.00    +0.040 C 
ATOM     16  C   UNL A   1     -24.829  -0.715  33.905  0.00  0.00    +0.090 C 
ATOM     17  N   UNL A   1     -24.758  -1.481  32.646  0.00  0.00    -0.217 NA
BRANCH  13  18
ATOM     18  C   UNL A   1     -24.855  -1.012  30.143  0.00  0.00    +0.045 C 
BRANCH  18  19
ATOM     19  C   UNL A   1     -24.973  -2.505  29.788  0.00  0.00    -0.021 C 
ATOM     20  C   UNL A   1     -23.906  -3.173  29.146  0.00  0.00    -0.004 C 
ATOM     21  C   UNL A   1     -23.989  -4.549  28.853  0.00  0.00    -0.000 C 
ATOM     22  C   UNL A   1     -25.137  -5.280  29.205  0.00  0.00    -0.000 C 
ATOM     23  C   UNL A   1     -26.232  -4.611  29.784  0.00  0.00    -0.000 C 
ATOM     24  C   UNL A   1     -26.155  -3.232  30.065  0.00  0.00    -0.004 C 
ENDBRANCH  18  19
ENDBRANCH  13  18
ENDBRANCH   2  14
BRANCH   2  25
ATOM     25  C   UNL A   1     -24.662   1.527  29.386  0.00  0.00    +0.098 C 
BRANCH  25  26
ATOM     26  C   UNL A   1     -24.520   1.197  27.559  0.00  0.00    +0.045 C 
BRANCH  26  27
ATOM     27  C   UNL A   1     -25.688   1.614  26.461  0.00  0.00    +0.017 C 
ATOM     28  C   UNL A   1     -26.250   2.920  26.395  0.00  0.00    +0.073 C 
ATOM     29  C   UNL A   1     -27.438   3.091  25.645  0.00  0.00    +0.106 C 
ATOM     30  N   UNL A   1     -28.075   2.089  25.003  0.00  0.00    -0.208 NA
ATOM     31  C   UNL A   1     -27.543   0.849  25.079  0.00  0.00    +0.253 C 
ATOM     32  C   UNL A   1     -26.354   0.576  25.777  0.00  0.00    +0.189 C 
ATOM     33  F   UNL A   1     -25.860  -0.681  25.795  0.00  0.00    -0.200 F 
BRANCH  28  34
ATOM     34  C   UNL A   1     -25.642   4.093  27.123  0.00  0.00    +0.266 C 
ATOM     35  N   UNL A   1     -25.614   5.252  26.449  0.00  0.00    -0.200 NA
ATOM     36  C   UNL A   1     -25.026   6.479  26.963  0.00  0.00    +0.139 C 
ATOM     37  O   UNL A   1     -25.143   3.966  28.243  0.00  0.00    -0.268 OA
ENDBRANCH  28  34
BRANCH  31  38
ATOM     38  O   UNL A   1     -28.193  -0.208  24.477  0.00  0.00    -0.456 OA
BRANCH  38  39
ATOM     39  C   UNL A   1     -29.460   0.005  23.866  0.00  0.00    +0.243 C 
BRANCH  39  40
ATOM     40  C   UNL A   1     -30.065  -1.377  23.573  0.00  0.00    +0.229 C 
ATOM     41  O   UNL A   1     -30.729  -1.878  24.721  0.00  0.00    -0.216 OA
ENDBRANCH  39  40
ENDBRANCH  38  39
ENDBRANCH  31  38
ENDBRANCH  26  27
BRANCH  26  44
ATOM     42  C   UNL A   1     -21.940   1.341  28.082  0.00  0.00    +0.000 C 
ATOM     43  C   UNL A   1     -22.939   2.454  26.007  0.00  0.00    +0.000 C 
ATOM     44  C   UNL A   1     -23.196   1.589  27.221  0.00  0.00    +0.006 C 
ENDBRANCH  26  44
ENDBRANCH  25  26
ENDBRANCH   2  25
TORSDOF 13
