MODEL 2886
MODEL 1
REMARK VINA RESULT:    -7.204      0.000      0.000
REMARK INTER + INTRA:          -8.997
REMARK INTER:                  -8.467
REMARK INTRA:                  -0.530
REMARK UNBOUND:                -0.530
REMARK  Name = No_2886-gen_results/8p0m/2024-11-27-11-27-31/
REMARK  3 active torsions:
REMARK  status: ('A' for Active; 'I' for Inactive)
REMARK    1  A    between atoms: C_3  and  C_4
REMARK    2  A    between atoms: C_4  and  C_8
REMARK    3  A    between atoms: C_11  and  C_12
REMARK                            x       y       z     vdW  Elec       q    Type
REMARK                         _______ _______ _______ _____ _____    ______ ____
ROOT
ATOM      1  C   UNL A   1     -24.305  -0.121  28.643  0.00  0.00    -0.017 A 
ATOM      2  C   UNL A   1     -24.947   0.170  27.480  0.00  0.00    -0.025 A 
ATOM      3  C   UNL A   1     -26.238  -0.278  27.205  0.00  0.00    +0.031 C 
ATOM      4  C   UNL A   1     -22.966   0.353  28.887  0.00  0.00    +0.053 A 
ATOM      5  C   UNL A   1     -22.472   1.138  27.809  0.00  0.00    +0.004 A 
ATOM      6  C   UNL A   1     -23.049   1.491  26.663  0.00  0.00    -0.000 A 
ATOM      7  C   UNL A   1     -24.315   0.992  26.481  0.00  0.00    -0.005 A 
ENDROOT
BRANCH   4   8
ATOM      8  C   UNL A   1     -22.105  -0.269  29.662  0.00  0.00    +0.284 C 
ATOM      9  N   UNL A   1     -20.984  -0.883  28.991  0.00  0.00    -0.084 NA
ATOM     10  O   UNL A   1     -22.191  -0.593  30.847  0.00  0.00    -0.267 OA
ENDBRANCH   4   8
BRANCH   1  11
ATOM     11  C   UNL A   1     -25.022  -0.950  29.626  0.00  0.00    +0.052 C 
BRANCH  11  14
ATOM     12  C   UNL A   1     -23.865  -3.148  28.790  0.00  0.00    -0.004 A 
ATOM     13  C   UNL A   1     -24.043  -4.171  28.612  0.00  0.00    -0.000 A 
ATOM     14  C   UNL A   1     -24.960  -2.387  29.413  0.00  0.00    -0.018 A 
ATOM     15  C   UNL A   1     -25.133  -5.072  29.058  0.00  0.00    -0.000 A 
ATOM     16  C   UNL A   1     -26.206  -4.429  29.664  0.00  0.00    -0.000 A 
ATOM     17  C   UNL A   1     -26.166  -3.070  29.895  0.00  0.00    -0.004 A 
ENDBRANCH  11  14
ENDBRANCH   1  11
TORSDOF 3
ENDMDL
ENDMDL
