MODEL 2887
MODEL 1
REMARK VINA RESULT:    -4.395      0.000      0.000
REMARK INTER + INTRA:          -4.395
REMARK INTER:                  -4.395
REMARK INTRA:                   0.000
REMARK UNBOUND:                 0.000
REMARK  Name = No_2887-gen_results/8p0m/2024-11-27-11-27-31/
REMARK  0 active torsions:
REMARK  status: ('A' for Active; 'I' for Inactive)
REMARK                            x       y       z     vdW  Elec       q    Type
REMARK                         _______ _______ _______ _____ _____    ______ ____
ROOT
ATOM      1  F   UNL A   1      -7.254 -10.046  20.645  0.00  0.00    -0.204 F 
ATOM      2  C   UNL A   1      -8.085 -10.077  19.858  0.00  0.00    +0.140 A 
ATOM      3  C   UNL A   1      -8.061 -10.764  18.805  0.00  0.00    +0.030 A 
ATOM      4  C   UNL A   1      -9.291  -9.183  20.175  0.00  0.00    +0.030 A 
ATOM      5  C   UNL A   1     -10.364  -9.124  19.204  0.00  0.00    +0.002 A 
ATOM      6  C   UNL A   1      -9.175 -10.675  17.794  0.00  0.00    +0.002 A 
ATOM      7  C   UNL A   1     -10.277  -9.858  18.042  0.00  0.00    +0.000 A 
ENDROOT
TORSDOF 0
ENDMDL
ENDMDL
