MODEL 2889
MODEL 1
REMARK VINA RESULT:    -6.485      0.000      0.000
REMARK INTER + INTRA:          -9.030
REMARK INTER:                  -8.001
REMARK INTRA:                  -1.030
REMARK UNBOUND:                -1.030
REMARK  Name = No_2889-gen_results/8p0m/2024-11-27-11-27-31/
REMARK  4 active torsions:
REMARK  status: ('A' for Active; 'I' for Inactive)
REMARK    1  A    between atoms: C_1  and  C_8
REMARK    2  A    between atoms: C_3  and  C_15
REMARK    3  A    between atoms: C_5  and  C_11
REMARK    4  A    between atoms: C_14  and  N_16
REMARK                            x       y       z     vdW  Elec       q    Type
REMARK                         _______ _______ _______ _____ _____    ______ ____
ROOT
ATOM      1  C   UNL A   1     -22.553   0.466  29.149  0.00  0.00    -0.007 C 
ATOM      2  C   UNL A   1     -23.335   0.352  28.233  0.00  0.00    -0.040 C 
ATOM      3  C   UNL A   1     -24.240  -0.569  28.065  0.00  0.00    +0.041 C 
ATOM      4  C   UNL A   1     -25.187  -0.671  26.927  0.00  0.00    +0.024 C 
ATOM      5  C   UNL A   1     -25.122   0.367  25.956  0.00  0.00    +0.092 C 
ATOM      6  C   UNL A   1     -24.211   1.372  26.160  0.00  0.00    +0.019 C 
ATOM      7  C   UNL A   1     -23.374   1.437  27.221  0.00  0.00    +0.023 C 
ENDROOT
BRANCH   1   8
ATOM      8  C   UNL A   1     -23.106   0.047  30.513  0.00  0.00    +0.015 A 
ATOM      9  C   UNL A   1     -22.696  -0.772  31.147  0.00  0.00    +0.001 A 
ATOM     10  C   UNL A   1     -23.141  -1.183  32.453  0.00  0.00    +0.000 A 
ATOM     11  C   UNL A   1     -24.284  -0.570  32.956  0.00  0.00    +0.001 A 
ATOM     12  C   UNL A   1     -24.825   0.463  32.203  0.00  0.00    +0.017 A 
ATOM     13  C   UNL A   1     -24.276   0.800  31.036  0.00  0.00    +0.073 A 
BRANCH  13  14
ATOM     14  N   UNL A   1     -24.401   2.043  30.783  0.00  0.00    -0.179 NA
ATOM     15  C   UNL A   1     -25.681   2.344  30.035  0.00  0.00    +0.246 C 
ATOM     16  C   UNL A   1     -25.753   3.844  29.725  0.00  0.00    +0.097 C 
ATOM     17  O   UNL A   1     -26.434   1.662  29.502  0.00  0.00    -0.273 OA
ENDBRANCH  13  14
ENDBRANCH   1   8
BRANCH   3  18
ATOM     18  C   UNL A   1     -24.287  -1.785  28.879  0.00  0.00    -0.027 C 
ATOM     19  C   UNL A   1     -25.781  -1.967  29.176  0.00  0.00    -0.030 C 
ATOM     20  C   UNL A   1     -26.055  -3.244  29.935  0.00  0.00    +0.030 C 
ENDBRANCH   3  18
BRANCH   5  21
ATOM     21  C   UNL A   1     -25.971   0.350  24.789  0.00  0.00    +0.072 C 
ATOM     22  N   UNL A   1     -27.169   0.326  24.386  0.00  0.00    -0.196 NA
ENDBRANCH   5  21
TORSDOF 4
ENDMDL
ENDMDL
