REMARK  Name = outputs/IAG933/test6/raw/output_2890_IAG933_linker_design_.xyz
REMARK  13 active torsions:
REMARK  status: ('A' for Active; 'I' for Inactive)
REMARK    1  A    between atoms: C_1  and  C_2
REMARK    2  A    between atoms: C_1  and  C_8
REMARK    3  A    between atoms: C_1  and  C_41
REMARK    4  A    between atoms: C_13  and  C_29
REMARK    5  A    between atoms: C_14  and  C_15
REMARK    6  A    between atoms: C_21  and  O_22
REMARK    7  A    between atoms: O_22  and  C_23
REMARK    8  A    between atoms: C_23  and  C_24
REMARK    9  A    between atoms: C_30  and  S_35
REMARK   10  A    between atoms: C_32  and  O_38
REMARK   11  A    between atoms: O_38  and  C_41
REMARK   12  A    between atoms: C_41  and  C_44
REMARK   13  A    between atoms: C_43  and  C_44
REMARK                            x       y       z     vdW  Elec       q    Type
REMARK                         _______ _______ _______ _____ _____    ______ ____
ROOT
ATOM      1  C   UNL A   1     -25.276  -0.043  29.011  0.00  0.00    +0.175 C 
ENDROOT
BRANCH   1   2
ATOM      2  C   UNL A   1     -24.855  -1.012  30.143  0.00  0.00    +0.079 C 
BRANCH   2   3
ATOM      3  C   UNL A   1     -24.973  -2.505  29.788  0.00  0.00    -0.018 C 
ATOM      4  C   UNL A   1     -23.906  -3.173  29.146  0.00  0.00    -0.004 C 
ATOM      5  C   UNL A   1     -23.989  -4.549  28.853  0.00  0.00    -0.000 C 
ATOM      6  C   UNL A   1     -25.137  -5.280  29.205  0.00  0.00    -0.000 C 
ATOM      7  C   UNL A   1     -26.232  -4.611  29.784  0.00  0.00    -0.000 C 
ATOM      8  C   UNL A   1     -26.155  -3.232  30.065  0.00  0.00    -0.004 C 
ENDBRANCH   2   3
BRANCH   2   9
ATOM      9  C   UNL A   1     -25.387  -0.679  31.571  0.00  0.00    +0.080 C 
ATOM     10  C   UNL A   1     -25.189   0.773  32.028  0.00  0.00    +0.019 C 
ATOM     11  C   UNL A   1     -25.336   0.684  33.544  0.00  0.00    +0.020 C 
ATOM     12  C   UNL A   1     -24.829  -0.715  33.905  0.00  0.00    +0.089 C 
ATOM     13  N   UNL A   1     -24.758  -1.481  32.646  0.00  0.00    -0.219 NA
ENDBRANCH   2   9
ENDBRANCH   1   2
BRANCH   1  14
ATOM     14  O   UNL A   1     -24.073  -0.098  28.197  0.00  0.00    -0.479 OA
BRANCH  14  16
ATOM     15  C   UNL A   1     -24.102   1.626  26.684  0.00  0.00    +0.019 C 
ATOM     16  C   UNL A   1     -23.458   0.922  27.682  0.00  0.00    +0.135 C 
ATOM     17  C   UNL A   1     -21.335   1.794  26.980  0.00  0.00    +0.003 C 
ATOM     18  C   UNL A   1     -22.090   1.130  27.960  0.00  0.00    +0.037 C 
ATOM     19  C   UNL A   1     -23.341   2.250  25.721  0.00  0.00    -0.001 C 
ATOM     20  C   UNL A   1     -21.959   2.350  25.856  0.00  0.00    -0.000 C 
BRANCH  15  21
ATOM     21  C   UNL A   1     -25.688   1.614  26.461  0.00  0.00    +0.095 C 
ATOM     22  C   UNL A   1     -26.250   2.920  26.395  0.00  0.00    +0.059 C 
ATOM     23  C   UNL A   1     -27.438   3.091  25.645  0.00  0.00    +0.102 C 
ATOM     24  N   UNL A   1     -28.075   2.089  25.003  0.00  0.00    -0.212 NA
ATOM     25  C   UNL A   1     -27.543   0.849  25.079  0.00  0.00    +0.234 C 
ATOM     26  C   UNL A   1     -26.354   0.576  25.777  0.00  0.00    +0.244 C 
ATOM     27  F   UNL A   1     -25.860  -0.681  25.795  0.00  0.00    -0.227 F 
BRANCH  22  28
ATOM     28  C   UNL A   1     -25.642   4.093  27.123  0.00  0.00    +0.263 C 
ATOM     29  N   UNL A   1     -25.614   5.252  26.449  0.00  0.00    -0.200 NA
ATOM     30  C   UNL A   1     -25.026   6.479  26.963  0.00  0.00    +0.139 C 
ATOM     31  O   UNL A   1     -25.143   3.966  28.243  0.00  0.00    -0.269 OA
ENDBRANCH  22  28
BRANCH  25  32
ATOM     32  O   UNL A   1     -28.193  -0.208  24.477  0.00  0.00    -0.459 OA
BRANCH  32  33
ATOM     33  C   UNL A   1     -29.460   0.005  23.866  0.00  0.00    +0.242 C 
BRANCH  33  34
ATOM     34  C   UNL A   1     -30.065  -1.377  23.573  0.00  0.00    +0.229 C 
ATOM     35  O   UNL A   1     -30.729  -1.878  24.721  0.00  0.00    -0.216 OA
ENDBRANCH  33  34
ENDBRANCH  32  33
ENDBRANCH  25  32
ENDBRANCH  15  21
ENDBRANCH  14  16
ENDBRANCH   1  14
BRANCH   1  36
ATOM     36  C   UNL A   1     -26.754  -0.326  28.787  0.00  0.00    +0.071 C 
BRANCH  36  41
ATOM     37  C   UNL A   1     -29.189   0.458  29.143  0.00  0.00    +0.102 C 
ATOM     38  C   UNL A   1     -28.180   2.972  29.905  0.00  0.00    -0.000 C 
ATOM     39  C   UNL A   1     -30.049   1.480  29.570  0.00  0.00    +0.018 C 
ATOM     40  C   UNL A   1     -27.265   1.986  29.463  0.00  0.00    -0.003 C 
ATOM     41  C   UNL A   1     -27.749   0.730  29.100  0.00  0.00    -0.002 C 
ATOM     42  C   UNL A   1     -29.544   2.683  29.962  0.00  0.00    +0.001 C 
BRANCH  37  45
ATOM     43  O   UNL A   1     -30.499  -1.078  27.506  0.00  0.00    -0.169 OA
ATOM     44  O   UNL A   1     -31.424  -1.032  29.396  0.00  0.00    -0.169 OA
ATOM     45  S   UNL A   1     -30.096  -0.922  28.964  0.00  0.00    +0.010 S 
ATOM     46  C   UNL A   1     -29.198  -2.377  29.377  0.00  0.00    +0.182 C 
ENDBRANCH  37  45
ENDBRANCH  36  41
ENDBRANCH   1  36
TORSDOF 13
