MODEL 2890
MODEL 1
REMARK VINA RESULT:    -5.439      0.000      0.000
REMARK INTER + INTRA:          -6.710
REMARK INTER:                  -6.393
REMARK INTRA:                  -0.317
REMARK UNBOUND:                -0.317
REMARK  Name = No_2890-gen_results/8p0m/2024-11-27-11-27-31/
REMARK  3 active torsions:
REMARK  status: ('A' for Active; 'I' for Inactive)
REMARK    1  A    between atoms: C_4  and  C_9
REMARK    2  A    between atoms: C_9  and  N_10
REMARK    3  A    between atoms: C_11  and  C_12
REMARK                            x       y       z     vdW  Elec       q    Type
REMARK                         _______ _______ _______ _____ _____    ______ ____
ROOT
ATOM      1  C   UNL A   1     -26.310  -4.575  29.589  0.00  0.00    +0.014 A 
ATOM      2  C   UNL A   1     -27.034  -3.987  30.079  0.00  0.00    +0.043 A 
ATOM      3  C   UNL A   1     -25.122  -3.940  29.166  0.00  0.00    +0.056 A 
ATOM      4  C   UNL A   1     -24.903  -2.591  29.366  0.00  0.00    +0.011 A 
ATOM      5  C   UNL A   1     -25.903  -1.895  30.025  0.00  0.00    +0.040 A 
ATOM      6  C   UNL A   1     -27.030  -2.564  30.453  0.00  0.00    +0.196 A 
ATOM      7 CL   UNL A   1     -23.844  -4.793  28.379  0.00  0.00    -0.083 Cl
ATOM      8  O   UNL A   1     -28.044  -1.928  31.118  0.00  0.00    -0.287 OA
ENDROOT
BRANCH   4   9
ATOM      9  C   UNL A   1     -23.675  -1.897  28.910  0.00  0.00    +0.121 C 
BRANCH   9  10
ATOM     10  N   UNL A   1     -23.367  -0.739  29.424  0.00  0.00    -0.269 N 
ATOM     11  C   UNL A   1     -23.529   0.495  28.768  0.00  0.00    +0.265 C 
ATOM     12  O   UNL A   1     -23.252   1.659  29.462  0.00  0.00    -0.269 OA
ATOM     13  C   UNL A   1     -22.729  -0.685  30.771  0.00  0.00    +0.116 C 
BRANCH  11  14
ATOM     14  C   UNL A   1     -23.990   0.696  27.578  0.00  0.00    +0.134 C 
ATOM     15  N   UNL A   1     -23.212   1.310  26.670  0.00  0.00    -0.148 NA
ATOM     16  C   UNL A   1     -25.413   0.644  27.233  0.00  0.00    +0.059 C 
ENDBRANCH  11  14
ENDBRANCH   9  10
ENDBRANCH   4   9
TORSDOF 3
ENDMDL
ENDMDL
