MODEL 2891
MODEL 1
REMARK VINA RESULT:    -4.658      0.000      0.000
REMARK INTER + INTRA:          -5.063
REMARK INTER:                  -4.931
REMARK INTRA:                  -0.132
REMARK UNBOUND:                -0.132
REMARK  Name = No_2891-gen_results/8p0m/2024-11-27-11-27-31/
REMARK  1 active torsions:
REMARK  status: ('A' for Active; 'I' for Inactive)
REMARK    1  A    between atoms: C_3  and  C_8
REMARK                            x       y       z     vdW  Elec       q    Type
REMARK                         _______ _______ _______ _____ _____    ______ ____
ROOT
ATOM      1  O   UNL A   1     -26.613 -12.724  33.494  0.00  0.00    -0.273 OA
ATOM      2  C   UNL A   1     -27.279 -11.784  33.457  0.00  0.00    +0.241 C 
ATOM      3  C   UNL A   1     -28.082 -11.339  32.878  0.00  0.00    +0.078 C 
ATOM      4  N   UNL A   1     -27.014 -10.904  34.704  0.00  0.00    -0.205 NA
ATOM      5  C   UNL A   1     -28.900 -10.118  32.892  0.00  0.00    +0.011 C 
ATOM      6  C   UNL A   1     -27.649  -9.708  34.900  0.00  0.00    +0.115 C 
ATOM      7  C   UNL A   1     -28.625  -9.290  34.007  0.00  0.00    +0.024 C 
ENDROOT
BRANCH   3   8
ATOM      8  C   UNL A   1     -28.474 -12.333  31.715  0.00  0.00    +0.009 C 
ATOM      9  C   UNL A   1     -28.464 -11.942  30.540  0.00  0.00    +0.001 C 
ATOM     10  C   UNL A   1     -29.688 -13.029  32.146  0.00  0.00    +0.001 C 
ENDBRANCH   3   8
TORSDOF 1
ENDMDL
ENDMDL
