MODEL 2892
MODEL 1
REMARK VINA RESULT:    -6.180      0.000      0.000
REMARK INTER + INTRA:          -8.995
REMARK INTER:                  -8.348
REMARK INTRA:                  -0.647
REMARK UNBOUND:                -0.647
REMARK  Name = No_2892-gen_results/8p0m/2024-11-27-11-27-31/
REMARK  6 active torsions:
REMARK  status: ('A' for Active; 'I' for Inactive)
REMARK    1  A    between atoms: P_1  and  O_2
REMARK    2  A    between atoms: P_1  and  O_5
REMARK    3  A    between atoms: O_2  and  C_6
REMARK    4  A    between atoms: O_5  and  C_16
REMARK    5  A    between atoms: C_6  and  C_7
REMARK    6  A    between atoms: C_7  and  C_8
REMARK                            x       y       z     vdW  Elec       q    Type
REMARK                         _______ _______ _______ _____ _____    ______ ____
ROOT
ATOM      1  C   UNL A   1     -25.058  -0.235  29.288  0.00  0.00    +0.154 C 
ENDROOT
BRANCH   1   2
ATOM      2  C   UNL A   1     -24.698  -1.155  30.187  0.00  0.00    +0.047 C 
ATOM      3  C   UNL A   1     -23.289  -0.910  30.833  0.00  0.00    +0.007 C 
ATOM      4  C   UNL A   1     -25.655  -1.047  31.381  0.00  0.00    +0.007 C 
BRANCH   2   5
ATOM      5  C   UNL A   1     -24.826  -2.438  29.762  0.00  0.00    -0.020 A 
ATOM      6  C   UNL A   1     -23.814  -3.104  29.028  0.00  0.00    -0.004 A 
ATOM      7  C   UNL A   1     -26.021  -3.195  29.924  0.00  0.00    -0.004 A 
ATOM      8  C   UNL A   1     -23.983  -4.452  28.522  0.00  0.00    -0.000 A 
ATOM      9  C   UNL A   1     -26.106  -4.559  29.616  0.00  0.00    -0.000 A 
ATOM     10  C   UNL A   1     -25.080  -5.201  28.957  0.00  0.00    -0.000 A 
ENDBRANCH   2   5
ENDBRANCH   1   2
BRANCH   1  11
ATOM     11  O   UNL A   1     -24.099   0.180  28.430  0.00  0.00    -0.305 OA
BRANCH  11  12
ATOM     12  P   UNL A   1     -23.847   1.142  27.882  0.00  0.00    +0.270 P 
ATOM     13  O   UNL A   1     -22.850   2.018  28.520  0.00  0.00    -0.508 OA
ATOM     14  O   UNL A   1     -25.213   2.009  27.780  0.00  0.00    -0.427 OA
BRANCH  12  15
ATOM     15  O   UNL A   1     -23.572   1.112  26.330  0.00  0.00    -0.437 OA
BRANCH  15  16
ATOM     16  C   UNL A   1     -24.628   1.143  25.455  0.00  0.00    +0.174 C 
ATOM     17  C   UNL A   1     -25.037   0.089  24.851  0.00  0.00    +0.015 C 
ATOM     18  C   UNL A   1     -26.454  -0.159  24.779  0.00  0.00    +0.034 C 
ENDBRANCH  15  16
ENDBRANCH  12  15
ENDBRANCH  11  12
ENDBRANCH   1  11
TORSDOF 6
ENDMDL
ENDMDL
