REMARK  Name = outputs/IAG933/test6/raw/output_2894_IAG933_linker_design_.xyz
REMARK  10 active torsions:
REMARK  status: ('A' for Active; 'I' for Inactive)
REMARK    1  A    between atoms: C_1  and  C_2
REMARK    2  A    between atoms: C_1  and  C_8
REMARK    3  A    between atoms: C_1  and  C_32
REMARK    4  A    between atoms: C_13  and  C_33
REMARK    5  A    between atoms: C_14  and  C_15
REMARK    6  A    between atoms: C_21  and  O_22
REMARK    7  A    between atoms: O_22  and  C_23
REMARK    8  A    between atoms: C_23  and  C_24
REMARK    9  A    between atoms: C_36  and  C_41
REMARK   10  A    between atoms: C_36  and  N_44
REMARK                            x       y       z     vdW  Elec       q    Type
REMARK                         _______ _______ _______ _____ _____    ______ ____
ROOT
ATOM      1  F   UNL A   1     -22.924   2.323  24.964  0.00  0.00    -0.196 F 
ATOM      2  N   UNL A   1     -21.112   1.337  27.783  0.00  0.00    -0.129 NA
ATOM      3  C   UNL A   1     -24.337  -0.091  29.153  0.00  0.00    +0.102 C 
ATOM      4  C   UNL A   1     -24.699   1.178  27.352  0.00  0.00    +0.053 C 
ATOM      5  C   UNL A   1     -22.403   0.933  28.092  0.00  0.00    +0.107 C 
ATOM      6  C   UNL A   1     -22.474   1.862  26.079  0.00  0.00    +0.329 C 
ATOM      7  O   UNL A   1     -21.152   1.797  26.383  0.00  0.00    -0.198 OA
ATOM      8  C   UNL A   1     -23.303   1.365  27.122  0.00  0.00    +0.074 C 
ATOM      9  C   UNL A   1     -22.927   0.096  29.109  0.00  0.00    +0.015 C 
ATOM     10  N   UNL A   1     -25.313   0.445  28.422  0.00  0.00    -0.303 N 
ENDROOT
BRANCH   4  11
ATOM     11  C   UNL A   1     -25.688   1.614  26.461  0.00  0.00    +0.051 C 
ATOM     12  C   UNL A   1     -26.250   2.920  26.395  0.00  0.00    +0.078 C 
ATOM     13  C   UNL A   1     -27.438   3.091  25.645  0.00  0.00    +0.107 C 
ATOM     14  N   UNL A   1     -28.075   2.089  25.003  0.00  0.00    -0.208 NA
ATOM     15  C   UNL A   1     -27.543   0.849  25.079  0.00  0.00    +0.253 C 
ATOM     16  C   UNL A   1     -26.354   0.576  25.777  0.00  0.00    +0.194 C 
ATOM     17  F   UNL A   1     -25.860  -0.681  25.795  0.00  0.00    -0.199 F 
BRANCH  12  18
ATOM     18  C   UNL A   1     -25.642   4.093  27.123  0.00  0.00    +0.267 C 
ATOM     19  N   UNL A   1     -25.614   5.252  26.449  0.00  0.00    -0.200 NA
ATOM     20  C   UNL A   1     -25.026   6.479  26.963  0.00  0.00    +0.139 C 
ATOM     21  O   UNL A   1     -25.143   3.966  28.243  0.00  0.00    -0.268 OA
ENDBRANCH  12  18
BRANCH  15  22
ATOM     22  O   UNL A   1     -28.193  -0.208  24.477  0.00  0.00    -0.456 OA
BRANCH  22  23
ATOM     23  C   UNL A   1     -29.460   0.005  23.866  0.00  0.00    +0.243 C 
BRANCH  23  24
ATOM     24  C   UNL A   1     -30.065  -1.377  23.573  0.00  0.00    +0.229 C 
ATOM     25  O   UNL A   1     -30.729  -1.878  24.721  0.00  0.00    -0.216 OA
ENDBRANCH  23  24
ENDBRANCH  22  23
ENDBRANCH  15  22
ENDBRANCH   4  11
BRANCH   3  26
ATOM     26  C   UNL A   1     -24.855  -1.012  30.143  0.00  0.00    +0.061 C 
BRANCH  26  27
ATOM     27  C   UNL A   1     -24.973  -2.505  29.788  0.00  0.00    -0.019 C 
ATOM     28  C   UNL A   1     -23.906  -3.173  29.146  0.00  0.00    -0.004 C 
ATOM     29  C   UNL A   1     -23.989  -4.549  28.853  0.00  0.00    -0.000 C 
ATOM     30  C   UNL A   1     -25.137  -5.280  29.205  0.00  0.00    -0.000 C 
ATOM     31  C   UNL A   1     -26.232  -4.611  29.784  0.00  0.00    -0.000 C 
ATOM     32  C   UNL A   1     -26.155  -3.232  30.065  0.00  0.00    -0.004 C 
ENDBRANCH  26  27
BRANCH  26  33
ATOM     33  C   UNL A   1     -25.387  -0.679  31.571  0.00  0.00    +0.079 C 
ATOM     34  C   UNL A   1     -25.189   0.773  32.028  0.00  0.00    +0.019 C 
ATOM     35  C   UNL A   1     -25.336   0.684  33.544  0.00  0.00    +0.020 C 
ATOM     36  C   UNL A   1     -24.829  -0.715  33.905  0.00  0.00    +0.089 C 
ATOM     37  N   UNL A   1     -24.758  -1.481  32.646  0.00  0.00    -0.219 NA
ENDBRANCH  26  33
ENDBRANCH   3  26
BRANCH  10  38
ATOM     38  C   UNL A   1     -26.680  -0.081  28.407  0.00  0.00    +0.123 C 
BRANCH  38  43
ATOM     39  C   UNL A   1     -29.687   2.120  29.345  0.00  0.00    +0.038 C 
ATOM     40  O   UNL A   1     -29.448  -0.092  27.962  0.00  0.00    -0.221 OA
ATOM     41  C   UNL A   1     -28.026   1.952  31.274  0.00  0.00    +0.142 C 
ATOM     42  C   UNL A   1     -29.133   0.662  29.131  0.00  0.00    +0.181 C 
ATOM     43  C   UNL A   1     -27.699   0.659  29.251  0.00  0.00    +0.165 C 
ATOM     44  C   UNL A   1     -29.468   2.449  30.849  0.00  0.00    +0.035 C 
ATOM     45  O   UNL A   1     -27.310   1.863  29.957  0.00  0.00    -0.352 OA
ENDBRANCH  38  43
ENDBRANCH  10  38
TORSDOF 10
