MODEL 2894
MODEL 1
REMARK VINA RESULT:    -6.039      0.000      0.000
REMARK INTER + INTRA:          -8.007
REMARK INTER:                  -7.451
REMARK INTRA:                  -0.556
REMARK UNBOUND:                -0.556
REMARK  Name = No_2894-gen_results/8p0m/2024-11-27-11-27-31/
REMARK  4 active torsions:
REMARK  status: ('A' for Active; 'I' for Inactive)
REMARK    1  A    between atoms: C_3  and  C_7
REMARK    2  A    between atoms: C_7  and  C_8
REMARK    3  A    between atoms: C_9  and  C_10
REMARK    4  A    between atoms: C_11  and  C_12
REMARK                            x       y       z     vdW  Elec       q    Type
REMARK                         _______ _______ _______ _____ _____    ______ ____
ROOT
ATOM      1  C   UNL A   1     -24.335  -1.210  28.916  0.00  0.00    +0.052 C 
ENDROOT
BRANCH   1   4
ATOM      2  C   UNL A   1     -23.858  -3.704  28.554  0.00  0.00    -0.004 A 
ATOM      3  C   UNL A   1     -24.184  -4.696  28.691  0.00  0.00    -0.000 A 
ATOM      4  C   UNL A   1     -24.700  -2.664  29.007  0.00  0.00    -0.018 A 
ATOM      5  C   UNL A   1     -25.921  -2.919  29.600  0.00  0.00    -0.004 A 
ATOM      6  C   UNL A   1     -25.422  -5.235  29.289  0.00  0.00    -0.000 A 
ATOM      7  C   UNL A   1     -26.258  -4.272  29.735  0.00  0.00    -0.000 A 
ENDBRANCH   1   4
BRANCH   1   8
ATOM      8  C   UNL A   1     -23.376  -0.656  28.532  0.00  0.00    -0.021 C 
ATOM      9  C   UNL A   1     -23.384   0.748  28.514  0.00  0.00    -0.004 C 
BRANCH   9  10
ATOM     10  C   UNL A   1     -22.460   1.412  27.608  0.00  0.00    -0.000 C 
ATOM     11  C   UNL A   1     -22.964   1.974  26.421  0.00  0.00    -0.000 C 
BRANCH  11  12
ATOM     12  C   UNL A   1     -24.311   1.783  26.049  0.00  0.00    -0.000 C 
ATOM     13  C   UNL A   1     -24.634   0.693  25.222  0.00  0.00    -0.000 C 
ENDBRANCH  11  12
ENDBRANCH   9  10
ENDBRANCH   1   8
TORSDOF 4
ENDMDL
ENDMDL
