MODEL 2895
MODEL 1
REMARK VINA RESULT:    -7.098      0.000      0.000
REMARK INTER + INTRA:          -9.919
REMARK INTER:                  -8.758
REMARK INTRA:                  -1.161
REMARK UNBOUND:                -1.161
REMARK  Name = No_2895-gen_results/8p0m/2024-11-27-11-27-31/
REMARK  4 active torsions:
REMARK  status: ('A' for Active; 'I' for Inactive)
REMARK    1  A    between atoms: C_2  and  O_17
REMARK    2  A    between atoms: C_3  and  C_7
REMARK    3  A    between atoms: C_9  and  O_15
REMARK    4  A    between atoms: O_17  and  C_18
REMARK                            x       y       z     vdW  Elec       q    Type
REMARK                         _______ _______ _______ _____ _____    ______ ____
ROOT
ATOM      1  C   UNL A   1     -24.214   0.518  26.940  0.00  0.00    +0.185 A 
ATOM      2  C   UNL A   1     -24.391  -0.033  28.001  0.00  0.00    +0.173 A 
ATOM      3  C   UNL A   1     -23.680   0.277  29.159  0.00  0.00    +0.037 A 
ATOM      4  C   UNL A   1     -22.625   1.271  29.095  0.00  0.00    +0.004 A 
ATOM      5  C   UNL A   1     -22.470   1.864  27.822  0.00  0.00    +0.014 A 
ATOM      6  C   UNL A   1     -23.184   1.502  26.787  0.00  0.00    +0.088 A 
ATOM      7 CL   UNL A   1     -22.865   2.212  25.249  0.00  0.00    -0.080 Cl
ATOM      8  F   UNL A   1     -24.904   0.201  25.840  0.00  0.00    -0.200 F 
ENDROOT
BRANCH   3   9
ATOM      9  C   UNL A   1     -23.742  -0.170  30.590  0.00  0.00    +0.006 A 
ATOM     10  C   UNL A   1     -24.714   0.361  31.388  0.00  0.00    +0.037 A 
ATOM     11  C   UNL A   1     -24.778  -0.039  32.764  0.00  0.00    +0.139 A 
ATOM     12  C   UNL A   1     -23.804  -0.880  33.338  0.00  0.00    +0.037 A 
ATOM     13  C   UNL A   1     -22.763  -0.989  31.207  0.00  0.00    +0.000 A 
ATOM     14  C   UNL A   1     -22.837  -1.327  32.584  0.00  0.00    +0.003 A 
BRANCH  11  15
ATOM     15  O   UNL A   1     -25.829   0.452  33.487  0.00  0.00    -0.471 OA
ATOM     16  C   UNL A   1     -26.311   1.506  33.214  0.00  0.00    +0.253 C 
ENDBRANCH  11  15
ENDBRANCH   3   9
BRANCH   2  17
ATOM     17  O   UNL A   1     -25.384  -0.955  28.240  0.00  0.00    -0.451 OA
BRANCH  17  18
ATOM     18  C   UNL A   1     -25.144  -2.207  28.592  0.00  0.00    +0.145 A 
ATOM     19  C   UNL A   1     -24.374  -2.950  28.155  0.00  0.00    +0.037 A 
ATOM     20  C   UNL A   1     -26.288  -2.729  29.345  0.00  0.00    +0.037 A 
ATOM     21  C   UNL A   1     -26.215  -4.001  29.866  0.00  0.00    +0.003 A 
ATOM     22  C   UNL A   1     -24.159  -4.295  28.523  0.00  0.00    +0.003 A 
ATOM     23  C   UNL A   1     -25.152  -4.806  29.398  0.00  0.00    +0.000 A 
ENDBRANCH  17  18
ENDBRANCH   2  17
TORSDOF 4
ENDMDL
ENDMDL
