REMARK  Name = outputs/IAG933/test6/raw/output_2895_IAG933_linker_design_.xyz
REMARK  11 active torsions:
REMARK  status: ('A' for Active; 'I' for Inactive)
REMARK    1  A    between atoms: C_1  and  C_2
REMARK    2  A    between atoms: C_1  and  C_8
REMARK    3  A    between atoms: C_1  and  N_29
REMARK    4  A    between atoms: C_13  and  C_39
REMARK    5  A    between atoms: C_14  and  C_15
REMARK    6  A    between atoms: C_21  and  O_22
REMARK    7  A    between atoms: O_22  and  C_23
REMARK    8  A    between atoms: C_23  and  C_24
REMARK    9  A    between atoms: N_28  and  C_42
REMARK   10  A    between atoms: N_29  and  C_31
REMARK   11  A    between atoms: C_40  and  C_42
REMARK                            x       y       z     vdW  Elec       q    Type
REMARK                         _______ _______ _______ _____ _____    ______ ____
ROOT
ATOM      1  C   UNL A   1     -24.285   0.621  28.354  0.00  0.00    +0.113 A 
ATOM      2  C   UNL A   1     -22.928   0.667  28.505  0.00  0.00    +0.169 A 
ATOM      3  N   UNL A   1     -22.205   0.017  29.443  0.00  0.00    -0.121 NA
ATOM      4  C   UNL A   1     -22.354   1.522  27.605  0.00  0.00    +0.306 A 
ATOM      5  F   UNL A   1     -21.023   1.746  27.479  0.00  0.00    -0.161 F 
ATOM      6  O   UNL A   1     -23.312   2.084  26.885  0.00  0.00    -0.427 OA
ATOM      7  C   UNL A   1     -24.491   1.427  27.265  0.00  0.00    +0.165 A 
ENDROOT
BRANCH   7   8
ATOM      8  C   UNL A   1     -25.688   1.614  26.461  0.00  0.00    +0.074 C 
ATOM      9  C   UNL A   1     -26.250   2.920  26.395  0.00  0.00    +0.080 C 
ATOM     10  C   UNL A   1     -27.438   3.091  25.645  0.00  0.00    +0.107 C 
ATOM     11  N   UNL A   1     -28.075   2.089  25.003  0.00  0.00    -0.208 NA
ATOM     12  C   UNL A   1     -27.543   0.849  25.079  0.00  0.00    +0.253 C 
ATOM     13  C   UNL A   1     -26.354   0.576  25.777  0.00  0.00    +0.196 C 
ATOM     14  F   UNL A   1     -25.860  -0.681  25.795  0.00  0.00    -0.199 F 
BRANCH   9  15
ATOM     15  C   UNL A   1     -25.642   4.093  27.123  0.00  0.00    +0.267 C 
ATOM     16  N   UNL A   1     -25.614   5.252  26.449  0.00  0.00    -0.200 NA
ATOM     17  C   UNL A   1     -25.026   6.479  26.963  0.00  0.00    +0.139 C 
ATOM     18  O   UNL A   1     -25.143   3.966  28.243  0.00  0.00    -0.268 OA
ENDBRANCH   9  15
BRANCH  12  19
ATOM     19  O   UNL A   1     -28.193  -0.208  24.477  0.00  0.00    -0.456 OA
BRANCH  19  20
ATOM     20  C   UNL A   1     -29.460   0.005  23.866  0.00  0.00    +0.243 C 
BRANCH  20  21
ATOM     21  C   UNL A   1     -30.065  -1.377  23.573  0.00  0.00    +0.229 C 
ATOM     22  O   UNL A   1     -30.729  -1.878  24.721  0.00  0.00    -0.216 OA
ENDBRANCH  20  21
ENDBRANCH  19  20
ENDBRANCH  12  19
ENDBRANCH   7   8
BRANCH   1  24
ATOM     23  N   UNL A   1     -27.679   0.383  30.019  0.00  0.00    -0.180 NA
ATOM     24  N   UNL A   1     -25.340  -0.112  29.119  0.00  0.00    -0.234 N 
ATOM     25  O   UNL A   1     -27.626  -0.449  27.987  0.00  0.00    -0.250 OA
ATOM     26  C   UNL A   1     -26.875   0.049  29.055  0.00  0.00    +0.328 C 
BRANCH  24  27
ATOM     27  C   UNL A   1     -24.855  -1.012  30.143  0.00  0.00    +0.120 C 
BRANCH  27  28
ATOM     28  C   UNL A   1     -24.973  -2.505  29.788  0.00  0.00    -0.003 C 
ATOM     29  C   UNL A   1     -23.906  -3.173  29.146  0.00  0.00    -0.003 C 
ATOM     30  C   UNL A   1     -23.989  -4.549  28.853  0.00  0.00    -0.000 C 
ATOM     31  C   UNL A   1     -25.137  -5.280  29.205  0.00  0.00    -0.000 C 
ATOM     32  C   UNL A   1     -26.232  -4.611  29.784  0.00  0.00    -0.000 C 
ATOM     33  C   UNL A   1     -26.155  -3.232  30.065  0.00  0.00    -0.003 C 
ENDBRANCH  27  28
BRANCH  27  34
ATOM     34  C   UNL A   1     -25.387  -0.679  31.571  0.00  0.00    +0.096 C 
ATOM     35  C   UNL A   1     -25.189   0.773  32.028  0.00  0.00    +0.021 C 
ATOM     36  C   UNL A   1     -25.336   0.684  33.544  0.00  0.00    +0.020 C 
ATOM     37  C   UNL A   1     -24.829  -0.715  33.905  0.00  0.00    +0.089 C 
ATOM     38  N   UNL A   1     -24.758  -1.481  32.646  0.00  0.00    -0.217 NA
ENDBRANCH  27  34
ENDBRANCH  24  27
BRANCH  23  39
ATOM     39  C   UNL A   1     -28.926   1.035  29.654  0.00  0.00    +0.181 C 
BRANCH  39  41
ATOM     40  C   UNL A   1     -30.407   3.129  30.406  0.00  0.00    +0.074 C 
ATOM     41  C   UNL A   1     -29.047   2.408  30.302  0.00  0.00    +0.173 C 
ATOM     42  O   UNL A   1     -28.165   2.881  31.033  0.00  0.00    -0.294 OA
ENDBRANCH  39  41
ENDBRANCH  23  39
ENDBRANCH   1  24
TORSDOF 11
