MODEL 2896
MODEL 1
REMARK VINA RESULT:    -8.058      0.000      0.000
REMARK INTER + INTRA:         -10.499
REMARK INTER:                  -9.000
REMARK INTRA:                  -1.499
REMARK UNBOUND:                -1.499
REMARK  Name = No_2896-gen_results/8p0m/2024-11-27-11-27-31/
REMARK  3 active torsions:
REMARK  status: ('A' for Active; 'I' for Inactive)
REMARK    1  A    between atoms: C_3  and  C_7
REMARK    2  A    between atoms: C_4  and  C_15
REMARK    3  A    between atoms: C_14  and  C_17
REMARK                            x       y       z     vdW  Elec       q    Type
REMARK                         _______ _______ _______ _____ _____    ______ ____
ROOT
ATOM      1  C   UNL A   1     -24.414  -0.754  28.652  0.00  0.00    -0.004 A 
ATOM      2  C   UNL A   1     -24.920  -0.325  29.877  0.00  0.00    -0.000 A 
ATOM      3  C   UNL A   1     -25.676  -1.151  30.669  0.00  0.00    -0.000 A 
ATOM      4  C   UNL A   1     -26.104  -0.742  31.931  0.00  0.00    -0.000 A 
ATOM      5  C   UNL A   1     -25.529   0.375  32.567  0.00  0.00    -0.000 A 
ATOM      6  C   UNL A   1     -24.631   1.156  31.800  0.00  0.00    -0.000 A 
ATOM      7  C   UNL A   1     -24.306   0.817  30.524  0.00  0.00    -0.000 A 
ATOM      8  C   UNL A   1     -23.978  -2.105  28.553  0.00  0.00    -0.022 A 
ATOM      9  C   UNL A   1     -24.051  -2.504  29.951  0.00  0.00    -0.004 A 
ATOM     10  C   UNL A   1     -24.773  -1.861  31.061  0.00  0.00    -0.000 A 
ENDROOT
BRANCH   1  13
ATOM     11  C   UNL A   1     -21.982   0.228  28.612  0.00  0.00    -0.000 A 
ATOM     12  C   UNL A   1     -21.344   0.866  28.068  0.00  0.00    -0.000 A 
ATOM     13  C   UNL A   1     -23.345   0.165  28.071  0.00  0.00    -0.000 A 
ATOM     14  C   UNL A   1     -23.770   0.979  27.104  0.00  0.00    -0.001 A 
ATOM     15  C   UNL A   1     -21.572   1.838  27.027  0.00  0.00    -0.000 A 
ATOM     16  C   UNL A   1     -22.850   1.782  26.555  0.00  0.00    -0.000 A 
BRANCH  14  17
ATOM     17  C   UNL A   1     -25.103   0.954  26.759  0.00  0.00    -0.009 C 
ATOM     18  C   UNL A   1     -25.482   0.991  25.757  0.00  0.00    -0.044 C 
ATOM     19  C   UNL A   1     -25.352  -0.301  24.857  0.00  0.00    +0.026 C 
ATOM     20  C   UNL A   1     -27.147   1.071  25.735  0.00  0.00    +0.026 C 
ENDBRANCH  14  17
ENDBRANCH   1  13
BRANCH   8  21
ATOM     21  C   UNL A   1     -25.108  -3.090  28.990  0.00  0.00    +0.026 C 
ATOM     22  C   UNL A   1     -24.614  -4.204  28.940  0.00  0.00    +0.005 C 
ENDBRANCH   8  21
TORSDOF 3
ENDMDL
ENDMDL
