REMARK  Name = outputs/IAG933/test6/raw/output_2896_IAG933_linker_design_.xyz
REMARK  10 active torsions:
REMARK  status: ('A' for Active; 'I' for Inactive)
REMARK    1  A    between atoms: C_1  and  C_2
REMARK    2  A    between atoms: C_1  and  C_8
REMARK    3  A    between atoms: C_1  and  N_35
REMARK    4  A    between atoms: C_13  and  C_43
REMARK    5  A    between atoms: C_14  and  C_15
REMARK    6  A    between atoms: C_21  and  O_22
REMARK    7  A    between atoms: O_22  and  C_23
REMARK    8  A    between atoms: C_23  and  C_24
REMARK    9  A    between atoms: C_28  and  C_36
REMARK   10  A    between atoms: C_28  and  C_37
REMARK                            x       y       z     vdW  Elec       q    Type
REMARK                         _______ _______ _______ _____ _____    ______ ____
ROOT
ATOM      1  O   UNL A   1     -23.378   2.876  25.276  0.00  0.00    -0.245 OA
ATOM      2  C   UNL A   1     -21.929  -0.399  29.654  0.00  0.00    +0.014 C 
ATOM      3  O   UNL A   1     -21.545   1.854  26.244  0.00  0.00    -0.440 OA
ATOM      4  C   UNL A   1     -22.728   0.844  27.904  0.00  0.00    +0.041 C 
ATOM      5  C   UNL A   1     -20.387   0.502  28.032  0.00  0.00    +0.021 C 
ATOM      6  N   UNL A   1     -24.382  -0.068  29.267  0.00  0.00    -0.287 N 
ATOM      7  C   UNL A   1     -25.540   0.581  28.542  0.00  0.00    +0.033 C 
ATOM      8  C   UNL A   1     -23.017   0.136  29.009  0.00  0.00    +0.051 C 
ATOM      9  C   UNL A   1     -20.690  -0.225  29.071  0.00  0.00    +0.001 C 
ATOM     10  C   UNL A   1     -22.947   2.109  26.093  0.00  0.00    +0.341 C 
ATOM     11  C   UNL A   1     -23.720   1.421  27.111  0.00  0.00    +0.074 C 
ATOM     12  C   UNL A   1     -24.895   1.198  27.441  0.00  0.00    +0.001 C 
ATOM     13  C   UNL A   1     -21.456   1.100  27.394  0.00  0.00    +0.215 C 
ENDROOT
BRANCH  12  14
ATOM     14  C   UNL A   1     -25.688   1.614  26.461  0.00  0.00    +0.093 C 
ATOM     15  C   UNL A   1     -26.250   2.920  26.395  0.00  0.00    +0.059 C 
ATOM     16  C   UNL A   1     -27.438   3.091  25.645  0.00  0.00    +0.102 C 
ATOM     17  N   UNL A   1     -28.075   2.089  25.003  0.00  0.00    -0.212 NA
ATOM     18  C   UNL A   1     -27.543   0.849  25.079  0.00  0.00    +0.234 C 
ATOM     19  C   UNL A   1     -26.354   0.576  25.777  0.00  0.00    +0.244 C 
ATOM     20  F   UNL A   1     -25.860  -0.681  25.795  0.00  0.00    -0.227 F 
BRANCH  15  21
ATOM     21  C   UNL A   1     -25.642   4.093  27.123  0.00  0.00    +0.263 C 
ATOM     22  N   UNL A   1     -25.614   5.252  26.449  0.00  0.00    -0.200 NA
ATOM     23  C   UNL A   1     -25.026   6.479  26.963  0.00  0.00    +0.139 C 
ATOM     24  O   UNL A   1     -25.143   3.966  28.243  0.00  0.00    -0.269 OA
ENDBRANCH  15  21
BRANCH  18  25
ATOM     25  O   UNL A   1     -28.193  -0.208  24.477  0.00  0.00    -0.459 OA
BRANCH  25  26
ATOM     26  C   UNL A   1     -29.460   0.005  23.866  0.00  0.00    +0.242 C 
BRANCH  26  27
ATOM     27  C   UNL A   1     -30.065  -1.377  23.573  0.00  0.00    +0.229 C 
ATOM     28  O   UNL A   1     -30.729  -1.878  24.721  0.00  0.00    -0.216 OA
ENDBRANCH  26  27
ENDBRANCH  25  26
ENDBRANCH  18  25
ENDBRANCH  12  14
BRANCH   6  29
ATOM     29  C   UNL A   1     -24.855  -1.012  30.143  0.00  0.00    +0.115 C 
BRANCH  29  30
ATOM     30  C   UNL A   1     -24.973  -2.505  29.788  0.00  0.00    -0.003 C 
ATOM     31  C   UNL A   1     -23.906  -3.173  29.146  0.00  0.00    -0.003 C 
ATOM     32  C   UNL A   1     -23.989  -4.549  28.853  0.00  0.00    -0.000 C 
ATOM     33  C   UNL A   1     -25.137  -5.280  29.205  0.00  0.00    -0.000 C 
ATOM     34  C   UNL A   1     -26.232  -4.611  29.784  0.00  0.00    -0.000 C 
ATOM     35  C   UNL A   1     -26.155  -3.232  30.065  0.00  0.00    -0.003 C 
ENDBRANCH  29  30
BRANCH  29  36
ATOM     36  C   UNL A   1     -25.387  -0.679  31.571  0.00  0.00    +0.095 C 
ATOM     37  C   UNL A   1     -25.189   0.773  32.028  0.00  0.00    +0.021 C 
ATOM     38  C   UNL A   1     -25.336   0.684  33.544  0.00  0.00    +0.020 C 
ATOM     39  C   UNL A   1     -24.829  -0.715  33.905  0.00  0.00    +0.089 C 
ATOM     40  N   UNL A   1     -24.758  -1.481  32.646  0.00  0.00    -0.217 NA
ENDBRANCH  29  36
ENDBRANCH   6  29
BRANCH   7  41
ATOM     41  C   UNL A   1     -26.745   1.344  29.175  0.00  0.00    +0.105 C 
BRANCH  41  43
ATOM     42  O   UNL A   1     -28.058  -0.502  28.577  0.00  0.00    -0.296 OA
ATOM     43  C   UNL A   1     -27.938   0.500  29.308  0.00  0.00    +0.157 C 
ATOM     44  C   UNL A   1     -28.950   0.810  30.298  0.00  0.00    +0.073 C 
ENDBRANCH  41  43
ENDBRANCH   7  41
TORSDOF 10
