MODEL 2898
MODEL 1
REMARK VINA RESULT:    -4.373      0.000      0.000
REMARK INTER + INTRA:          -4.373
REMARK INTER:                  -4.373
REMARK INTRA:                   0.000
REMARK UNBOUND:                 0.000
REMARK  Name = No_2898-gen_results/8p0m/2024-11-27-11-27-31/
REMARK  0 active torsions:
REMARK  status: ('A' for Active; 'I' for Inactive)
REMARK                            x       y       z     vdW  Elec       q    Type
REMARK                         _______ _______ _______ _____ _____    ______ ____
ROOT
ATOM      1  C   UNL A   1     -24.134  -4.314  28.812  0.00  0.00    +0.011 A 
ATOM      2  C   UNL A   1     -24.892  -5.009  29.042  0.00  0.00    +0.001 A 
ATOM      3  C   UNL A   1     -24.363  -2.963  29.239  0.00  0.00    +0.058 A 
ATOM      4  C   UNL A   1     -25.526  -2.546  29.749  0.00  0.00    +0.011 A 
ATOM      5  C   UNL A   1     -26.482  -3.504  29.943  0.00  0.00    +0.001 A 
ATOM      6  C   UNL A   1     -26.197  -4.815  29.564  0.00  0.00    +0.000 A 
ATOM      7 CL   UNL A   1     -23.060  -1.811  28.985  0.00  0.00    -0.082 Cl
ENDROOT
TORSDOF 0
ENDMDL
ENDMDL
