REMARK  Name = outputs/IAG933/test6/raw/output_2898_IAG933_linker_design_.xyz
REMARK  12 active torsions:
REMARK  status: ('A' for Active; 'I' for Inactive)
REMARK    1  A    between atoms: C_1  and  C_2
REMARK    2  A    between atoms: C_1  and  C_8
REMARK    3  A    between atoms: C_1  and  N_37
REMARK    4  A    between atoms: C_13  and  C_35
REMARK    5  A    between atoms: C_14  and  C_15
REMARK    6  A    between atoms: C_21  and  O_22
REMARK    7  A    between atoms: O_22  and  C_23
REMARK    8  A    between atoms: C_23  and  C_24
REMARK    9  A    between atoms: C_28  and  O_38
REMARK   10  A    between atoms: C_29  and  C_35
REMARK   11  A    between atoms: C_30  and  C_36
REMARK   12  A    between atoms: C_30  and  O_38
REMARK                            x       y       z     vdW  Elec       q    Type
REMARK                         _______ _______ _______ _____ _____    ______ ____
ROOT
ATOM      1  C   UNL A   1     -22.622   1.336  27.155  0.00  0.00    +0.146 C 
ATOM      2  C   UNL A   1     -24.328   1.316  27.108  0.00  0.00    +0.055 C 
ENDROOT
BRANCH   2   3
ATOM      3  C   UNL A   1     -25.688   1.614  26.461  0.00  0.00    +0.040 C 
ATOM      4  C   UNL A   1     -26.250   2.920  26.395  0.00  0.00    +0.076 C 
ATOM      5  C   UNL A   1     -27.438   3.091  25.645  0.00  0.00    +0.107 C 
ATOM      6  N   UNL A   1     -28.075   2.089  25.003  0.00  0.00    -0.208 NA
ATOM      7  C   UNL A   1     -27.543   0.849  25.079  0.00  0.00    +0.253 C 
ATOM      8  C   UNL A   1     -26.354   0.576  25.777  0.00  0.00    +0.193 C 
ATOM      9  F   UNL A   1     -25.860  -0.681  25.795  0.00  0.00    -0.199 F 
BRANCH   4  10
ATOM     10  C   UNL A   1     -25.642   4.093  27.123  0.00  0.00    +0.266 C 
ATOM     11  N   UNL A   1     -25.614   5.252  26.449  0.00  0.00    -0.200 NA
ATOM     12  C   UNL A   1     -25.026   6.479  26.963  0.00  0.00    +0.139 C 
ATOM     13  O   UNL A   1     -25.143   3.966  28.243  0.00  0.00    -0.268 OA
ENDBRANCH   4  10
BRANCH   7  14
ATOM     14  O   UNL A   1     -28.193  -0.208  24.477  0.00  0.00    -0.456 OA
BRANCH  14  15
ATOM     15  C   UNL A   1     -29.460   0.005  23.866  0.00  0.00    +0.243 C 
BRANCH  15  16
ATOM     16  C   UNL A   1     -30.065  -1.377  23.573  0.00  0.00    +0.229 C 
ATOM     17  O   UNL A   1     -30.729  -1.878  24.721  0.00  0.00    -0.216 OA
ENDBRANCH  15  16
ENDBRANCH  14  15
ENDBRANCH   7  14
ENDBRANCH   2   3
BRANCH   2  18
ATOM     18  C   UNL A   1     -24.661   0.717  28.596  0.00  0.00    +0.211 C 
ATOM     19  C   UNL A   1     -23.862   1.225  29.639  0.00  0.00    +0.126 C 
ATOM     20  N   UNL A   1     -24.212  -0.150  29.185  0.00  0.00    -0.239 NA
ATOM     21  O   UNL A   1     -26.113   0.668  28.575  0.00  0.00    -0.203 OA
BRANCH  20  22
ATOM     22  C   UNL A   1     -24.855  -1.012  30.143  0.00  0.00    +0.098 C 
BRANCH  22  23
ATOM     23  C   UNL A   1     -24.973  -2.505  29.788  0.00  0.00    -0.006 C 
ATOM     24  C   UNL A   1     -23.906  -3.173  29.146  0.00  0.00    -0.003 C 
ATOM     25  C   UNL A   1     -23.989  -4.549  28.853  0.00  0.00    -0.000 C 
ATOM     26  C   UNL A   1     -25.137  -5.280  29.205  0.00  0.00    -0.000 C 
ATOM     27  C   UNL A   1     -26.232  -4.611  29.784  0.00  0.00    -0.000 C 
ATOM     28  C   UNL A   1     -26.155  -3.232  30.065  0.00  0.00    -0.003 C 
ENDBRANCH  22  23
BRANCH  22  29
ATOM     29  C   UNL A   1     -25.387  -0.679  31.571  0.00  0.00    +0.092 C 
ATOM     30  C   UNL A   1     -25.189   0.773  32.028  0.00  0.00    +0.021 C 
ATOM     31  C   UNL A   1     -25.336   0.684  33.544  0.00  0.00    +0.020 C 
ATOM     32  C   UNL A   1     -24.829  -0.715  33.905  0.00  0.00    +0.089 C 
ATOM     33  N   UNL A   1     -24.758  -1.481  32.646  0.00  0.00    -0.218 NA
ENDBRANCH  22  29
ENDBRANCH  20  22
ENDBRANCH   2  18
BRANCH   1  36
ATOM     34  C   UNL A   1     -21.802  -0.068  29.679  0.00  0.00    +0.029 C 
ATOM     35  N   UNL A   1     -20.470   1.169  28.143  0.00  0.00    -0.125 NA
ATOM     36  C   UNL A   1     -21.723   0.611  28.224  0.00  0.00    +0.149 C 
ENDBRANCH   1  36
BRANCH   1  37
ATOM     37  O   UNL A   1     -21.945   1.863  26.308  0.00  0.00    -0.394 OA
BRANCH  37  38
ATOM     38  C   UNL A   1     -22.830   2.430  25.328  0.00  0.00    +0.556 C 
ATOM     39  O   UNL A   1     -23.193   1.614  24.514  0.00  0.00    -0.200 OA
ATOM     40  O   UNL A   1     -22.917   3.827  25.244  0.00  0.00    -0.200 OA
ENDBRANCH  37  38
ENDBRANCH   1  37
TORSDOF 12
