REMARK  Name = outputs/IAG933/test6/raw/output_2899_IAG933_linker_design_.xyz
REMARK  13 active torsions:
REMARK  status: ('A' for Active; 'I' for Inactive)
REMARK    1  A    between atoms: C_1  and  C_2
REMARK    2  A    between atoms: C_1  and  C_8
REMARK    3  A    between atoms: C_1  and  C_32
REMARK    4  A    between atoms: C_13  and  C_44
REMARK    5  A    between atoms: C_14  and  C_15
REMARK    6  A    between atoms: C_21  and  O_22
REMARK    7  A    between atoms: O_22  and  C_23
REMARK    8  A    between atoms: C_23  and  C_24
REMARK    9  A    between atoms: C_32  and  C_33
REMARK   10  A    between atoms: C_32  and  C_37
REMARK   11  A    between atoms: C_33  and  C_44
REMARK   12  A    between atoms: C_34  and  C_44
REMARK   13  A    between atoms: C_37  and  C_46
REMARK                            x       y       z     vdW  Elec       q    Type
REMARK                         _______ _______ _______ _____ _____    ______ ____
ROOT
ATOM      1  C   UNL A   1     -24.993   0.153  27.911  0.00  0.00    +0.017 C 
ENDROOT
BRANCH   1   2
ATOM      2  C   UNL A   1     -25.443  -0.075  29.333  0.00  0.00    +0.068 C 
BRANCH   2   4
ATOM      3  O   UNL A   1     -27.633  -0.004  28.387  0.00  0.00    -0.291 OA
ATOM      4  C   UNL A   1     -26.939   0.518  29.332  0.00  0.00    +0.173 C 
BRANCH   4  11
ATOM      5  C   UNL A   1     -28.712   4.478  30.113  0.00  0.00    -0.021 C 
ATOM      6  C   UNL A   1     -27.189   2.654  30.809  0.00  0.00    -0.019 C 
ATOM      7  C   UNL A   1     -29.067   1.253  30.314  0.00  0.00    +0.003 C 
ATOM      8  C   UNL A   1     -27.555   3.967  30.744  0.00  0.00    +0.052 C 
ATOM      9  C   UNL A   1     -29.692   3.627  29.604  0.00  0.00    -0.004 C 
ATOM     10  C   UNL A   1     -29.853   2.269  29.850  0.00  0.00    -0.000 C 
ATOM     11  C   UNL A   1     -27.711   1.480  30.228  0.00  0.00    +0.031 C 
ENDBRANCH   4  11
ENDBRANCH   2   4
BRANCH   2  12
ATOM     12  C   UNL A   1     -24.855  -1.012  30.143  0.00  0.00    +0.046 C 
BRANCH  12  13
ATOM     13  C   UNL A   1     -24.973  -2.505  29.788  0.00  0.00    -0.021 C 
ATOM     14  C   UNL A   1     -23.906  -3.173  29.146  0.00  0.00    -0.004 C 
ATOM     15  C   UNL A   1     -23.989  -4.549  28.853  0.00  0.00    -0.000 C 
ATOM     16  C   UNL A   1     -25.137  -5.280  29.205  0.00  0.00    -0.000 C 
ATOM     17  C   UNL A   1     -26.232  -4.611  29.784  0.00  0.00    -0.000 C 
ATOM     18  C   UNL A   1     -26.155  -3.232  30.065  0.00  0.00    -0.004 C 
ENDBRANCH  12  13
BRANCH  12  19
ATOM     19  C   UNL A   1     -25.387  -0.679  31.571  0.00  0.00    +0.077 C 
ATOM     20  C   UNL A   1     -25.189   0.773  32.028  0.00  0.00    +0.019 C 
ATOM     21  C   UNL A   1     -25.336   0.684  33.544  0.00  0.00    +0.020 C 
ATOM     22  C   UNL A   1     -24.829  -0.715  33.905  0.00  0.00    +0.089 C 
ATOM     23  N   UNL A   1     -24.758  -1.481  32.646  0.00  0.00    -0.219 NA
ENDBRANCH  12  19
ENDBRANCH   2  12
ENDBRANCH   1   2
BRANCH   1  24
ATOM     24  C   UNL A   1     -24.738   1.342  27.339  0.00  0.00    +0.051 C 
BRANCH  24  25
ATOM     25  C   UNL A   1     -25.688   1.614  26.461  0.00  0.00    +0.020 C 
ATOM     26  C   UNL A   1     -26.250   2.920  26.395  0.00  0.00    +0.073 C 
ATOM     27  C   UNL A   1     -27.438   3.091  25.645  0.00  0.00    +0.106 C 
ATOM     28  N   UNL A   1     -28.075   2.089  25.003  0.00  0.00    -0.208 NA
ATOM     29  C   UNL A   1     -27.543   0.849  25.079  0.00  0.00    +0.253 C 
ATOM     30  C   UNL A   1     -26.354   0.576  25.777  0.00  0.00    +0.189 C 
ATOM     31  F   UNL A   1     -25.860  -0.681  25.795  0.00  0.00    -0.200 F 
BRANCH  26  32
ATOM     32  C   UNL A   1     -25.642   4.093  27.123  0.00  0.00    +0.266 C 
ATOM     33  N   UNL A   1     -25.614   5.252  26.449  0.00  0.00    -0.200 NA
ATOM     34  C   UNL A   1     -25.026   6.479  26.963  0.00  0.00    +0.139 C 
ATOM     35  O   UNL A   1     -25.143   3.966  28.243  0.00  0.00    -0.268 OA
ENDBRANCH  26  32
BRANCH  29  36
ATOM     36  O   UNL A   1     -28.193  -0.208  24.477  0.00  0.00    -0.456 OA
BRANCH  36  37
ATOM     37  C   UNL A   1     -29.460   0.005  23.866  0.00  0.00    +0.243 C 
BRANCH  37  38
ATOM     38  C   UNL A   1     -30.065  -1.377  23.573  0.00  0.00    +0.229 C 
ATOM     39  O   UNL A   1     -30.729  -1.878  24.721  0.00  0.00    -0.216 OA
ENDBRANCH  37  38
ENDBRANCH  36  37
ENDBRANCH  29  36
ENDBRANCH  24  25
BRANCH  24  41
ATOM     40  C   UNL A   1     -22.215   2.364  25.377  0.00  0.00    -0.000 C 
ATOM     41  C   UNL A   1     -23.648   1.631  27.071  0.00  0.00    +0.021 C 
ATOM     42  C   UNL A   1     -21.340   1.660  27.533  0.00  0.00    +0.042 C 
ATOM     43  C   UNL A   1     -23.463   2.209  25.859  0.00  0.00    -0.001 C 
ATOM     44  C   UNL A   1     -22.559   1.295  27.980  0.00  0.00    +0.192 C 
ATOM     45  C   UNL A   1     -21.185   2.141  26.260  0.00  0.00    +0.003 C 
ATOM     46  O   UNL A   1     -22.566   0.592  29.345  0.00  0.00    -0.287 OA
ENDBRANCH  24  41
ENDBRANCH   1  24
TORSDOF 13
