MODEL 2899
MODEL 1
REMARK VINA RESULT:    -7.098      0.000      0.000
REMARK INTER + INTRA:          -8.361
REMARK INTER:                  -7.928
REMARK INTRA:                  -0.433
REMARK UNBOUND:                -0.433
REMARK  Name = No_2899-gen_results/8p0m/2024-11-27-11-27-31/
REMARK  2 active torsions:
REMARK  status: ('A' for Active; 'I' for Inactive)
REMARK    1  A    between atoms: C_3  and  C_4
REMARK    2  A    between atoms: C_4  and  C_8
REMARK                            x       y       z     vdW  Elec       q    Type
REMARK                         _______ _______ _______ _____ _____    ______ ____
ROOT
ATOM      1  C   UNL A   1     -24.715  -1.646  28.515  0.00  0.00    +0.053 C 
ENDROOT
BRANCH   1   2
ATOM      2  C   UNL A   1     -24.710  -2.670  29.025  0.00  0.00    -0.018 A 
ATOM      3  C   UNL A   1     -25.749  -2.877  30.034  0.00  0.00    -0.008 A 
ATOM      4  C   UNL A   1     -26.321  -4.140  29.679  0.00  0.00    -0.022 A 
ATOM      5  C   UNL A   1     -27.635  -4.396  30.164  0.00  0.00    +0.031 C 
ATOM      6  C   UNL A   1     -25.353  -5.216  29.459  0.00  0.00    -0.004 A 
ATOM      7  C   UNL A   1     -24.270  -4.987  28.628  0.00  0.00    -0.001 A 
ATOM      8  C   UNL A   1     -24.004  -3.700  28.389  0.00  0.00    -0.004 A 
ENDBRANCH   1   2
BRANCH   1  11
ATOM      9  C   UNL A   1     -24.221   0.600  27.606  0.00  0.00    -0.004 A 
ATOM     10  C   UNL A   1     -23.381   1.054  27.162  0.00  0.00    -0.000 A 
ATOM     11  C   UNL A   1     -23.894  -0.578  28.410  0.00  0.00    -0.018 A 
ATOM     12  C   UNL A   1     -22.105   1.327  27.723  0.00  0.00    -0.000 A 
ATOM     13  C   UNL A   1     -21.661   0.319  28.639  0.00  0.00    -0.000 A 
ATOM     14  C   UNL A   1     -22.576  -0.659  28.967  0.00  0.00    -0.004 A 
ENDBRANCH   1  11
TORSDOF 2
ENDMDL
ENDMDL
