MODEL 289
MODEL 1
REMARK VINA RESULT:    -6.566      0.000      0.000
REMARK INTER + INTRA:          -8.088
REMARK INTER:                  -7.718
REMARK INTRA:                  -0.370
REMARK UNBOUND:                -0.370
REMARK  Name = No_289-gen_results/8p0m/2024-11-27-11-27-31/
REMARK  3 active torsions:
REMARK  status: ('A' for Active; 'I' for Inactive)
REMARK    1  A    between atoms: C_1  and  C_2
REMARK    2  A    between atoms: C_1  and  C_4
REMARK    3  A    between atoms: C_7  and  C_12
REMARK                            x       y       z     vdW  Elec       q    Type
REMARK                         _______ _______ _______ _____ _____    ______ ____
ROOT
ATOM      1  C   UNL A   1     -23.344   0.617  28.014  0.00  0.00    +0.014 A 
ATOM      2  C   UNL A   1     -24.197   0.236  27.242  0.00  0.00    +0.003 A 
ATOM      3  C   UNL A   1     -24.483   0.913  26.045  0.00  0.00    +0.053 A 
ATOM      4  C   UNL A   1     -23.601   1.849  25.526  0.00  0.00    +0.004 A 
ATOM      5  C   UNL A   1     -22.526   2.203  26.271  0.00  0.00    -0.000 A 
ATOM      6  C   UNL A   1     -22.342   1.651  27.511  0.00  0.00    -0.002 A 
ENDROOT
BRANCH   3   7
ATOM      7  C   UNL A   1     -25.606   0.444  25.127  0.00  0.00    +0.249 C 
ATOM      8  N   UNL A   1     -26.653   1.182  24.988  0.00  0.00    -0.276 N 
ATOM      9  O   UNL A   1     -25.714  -0.777  24.727  0.00  0.00    -0.270 OA
ATOM     10  C   UNL A   1     -26.846   2.545  25.389  0.00  0.00    +0.094 C 
ATOM     11  C   UNL A   1     -28.042   3.166  24.959  0.00  0.00    +0.022 C 
ATOM     12  C   UNL A   1     -28.931   2.521  24.102  0.00  0.00    +0.004 C 
ATOM     13  C   UNL A   1     -28.719   1.210  23.677  0.00  0.00    +0.022 C 
ATOM     14  C   UNL A   1     -27.573   0.594  24.056  0.00  0.00    +0.094 C 
ENDBRANCH   3   7
BRANCH   1  15
ATOM     15  C   UNL A   1     -23.001   0.053  29.420  0.00  0.00    +0.231 C 
ATOM     16  F   UNL A   1     -21.771   0.142  29.629  0.00  0.00    -0.228 F 
BRANCH  15  17
ATOM     17  C   UNL A   1     -23.475  -0.874  29.587  0.00  0.00    +0.276 C 
ATOM     18 CL   UNL A   1     -23.850  -1.489  31.018  0.00  0.00    -0.073 Cl
ATOM     19  F   UNL A   1     -22.724  -2.001  28.939  0.00  0.00    -0.216 F 
ENDBRANCH  15  17
ENDBRANCH   1  15
TORSDOF 3
ENDMDL
ENDMDL
