MODEL 28
MODEL 1
REMARK VINA RESULT:    -6.694      0.000      0.000
REMARK INTER + INTRA:          -8.278
REMARK INTER:                  -7.868
REMARK INTRA:                  -0.410
REMARK UNBOUND:                -0.410
REMARK  Name = No_28-gen_results/8p0m/2024-11-27-11-27-31/
REMARK  3 active torsions:
REMARK  status: ('A' for Active; 'I' for Inactive)
REMARK    1  A    between atoms: C_2  and  N_7
REMARK    2  A    between atoms: N_7  and  C_8
REMARK    3  A    between atoms: C_8  and  C_9
REMARK                            x       y       z     vdW  Elec       q    Type
REMARK                         _______ _______ _______ _____ _____    ______ ____
ROOT
ATOM      1  N   UNL A   1     -23.610  -0.805  29.128  0.00  0.00    -0.233 NA
ENDROOT
BRANCH   1   3
ATOM      2  C   UNL A   1     -24.236   0.356  27.371  0.00  0.00    +0.016 A 
ATOM      3  C   UNL A   1     -23.460   0.250  28.075  0.00  0.00    +0.066 A 
ATOM      4  C   UNL A   1     -24.055   1.392  26.341  0.00  0.00    +0.001 A 
ATOM      5  C   UNL A   1     -22.824   2.103  26.237  0.00  0.00    +0.000 A 
ATOM      6  C   UNL A   1     -22.083   0.810  28.156  0.00  0.00    +0.016 A 
ATOM      7  C   UNL A   1     -21.880   1.782  27.223  0.00  0.00    +0.001 A 
ENDBRANCH   1   3
BRANCH   1   8
ATOM      8  C   UNL A   1     -23.339  -2.073  28.938  0.00  0.00    +0.139 C 
BRANCH   8   9
ATOM      9  C   UNL A   1     -24.190  -2.902  29.153  0.00  0.00    -0.001 A 
ATOM     10  C   UNL A   1     -25.522  -2.467  29.777  0.00  0.00    -0.003 A 
ATOM     11  C   UNL A   1     -26.578  -3.361  30.034  0.00  0.00    -0.000 A 
ATOM     12  C   UNL A   1     -26.347  -4.736  29.728  0.00  0.00    -0.000 A 
ATOM     13  C   UNL A   1     -25.152  -5.191  29.143  0.00  0.00    -0.000 A 
ATOM     14  C   UNL A   1     -24.178  -4.324  28.873  0.00  0.00    -0.003 A 
ENDBRANCH   8   9
ENDBRANCH   1   8
TORSDOF 3
ENDMDL
ENDMDL
