REMARK  Name = outputs/IAG933/test6/raw/output_29_IAG933_linker_design_.xyz
REMARK  14 active torsions:
REMARK  status: ('A' for Active; 'I' for Inactive)
REMARK    1  A    between atoms: C_1  and  C_2
REMARK    2  A    between atoms: C_1  and  C_8
REMARK    3  A    between atoms: C_1  and  C_42
REMARK    4  A    between atoms: C_13  and  C_29
REMARK    5  A    between atoms: C_14  and  C_15
REMARK    6  A    between atoms: C_21  and  O_22
REMARK    7  A    between atoms: O_22  and  C_23
REMARK    8  A    between atoms: C_23  and  C_24
REMARK    9  A    between atoms: C_31  and  C_42
REMARK   10  A    between atoms: C_33  and  C_43
REMARK   11  A    between atoms: C_34  and  C_38
REMARK   12  A    between atoms: N_35  and  C_38
REMARK   13  A    between atoms: C_42  and  O_44
REMARK   14  A    between atoms: C_43  and  O_44
REMARK                            x       y       z     vdW  Elec       q    Type
REMARK                         _______ _______ _______ _____ _____    ______ ____
ROOT
ATOM      1  C   UNL A   1     -23.182   1.569  26.775  0.00  0.00    +0.072 C 
ATOM      2  C   UNL A   1     -24.524   1.257  27.162  0.00  0.00    +0.010 C 
ATOM      3  C   UNL A   1     -24.368   0.471  28.390  0.00  0.00    +0.004 C 
ATOM      4 CL   UNL A   1     -22.779   2.359  25.381  0.00  0.00    -0.084 Cl
ATOM      5  F   UNL A   1     -20.879   1.254  27.633  0.00  0.00    -0.227 F 
ATOM      6  C   UNL A   1     -22.186   1.047  27.744  0.00  0.00    +0.215 C 
ATOM      7  C   UNL A   1     -22.968   0.262  28.691  0.00  0.00    +0.012 C 
ENDROOT
BRANCH   2   8
ATOM      8  C   UNL A   1     -25.688   1.614  26.461  0.00  0.00    +0.038 C 
ATOM      9  C   UNL A   1     -26.250   2.920  26.395  0.00  0.00    +0.076 C 
ATOM     10  C   UNL A   1     -27.438   3.091  25.645  0.00  0.00    +0.107 C 
ATOM     11  N   UNL A   1     -28.075   2.089  25.003  0.00  0.00    -0.208 NA
ATOM     12  C   UNL A   1     -27.543   0.849  25.079  0.00  0.00    +0.253 C 
ATOM     13  C   UNL A   1     -26.354   0.576  25.777  0.00  0.00    +0.193 C 
ATOM     14  F   UNL A   1     -25.860  -0.681  25.795  0.00  0.00    -0.199 F 
BRANCH   9  15
ATOM     15  C   UNL A   1     -25.642   4.093  27.123  0.00  0.00    +0.266 C 
ATOM     16  N   UNL A   1     -25.614   5.252  26.449  0.00  0.00    -0.200 NA
ATOM     17  C   UNL A   1     -25.026   6.479  26.963  0.00  0.00    +0.139 C 
ATOM     18  O   UNL A   1     -25.143   3.966  28.243  0.00  0.00    -0.268 OA
ENDBRANCH   9  15
BRANCH  12  19
ATOM     19  O   UNL A   1     -28.193  -0.208  24.477  0.00  0.00    -0.456 OA
BRANCH  19  20
ATOM     20  C   UNL A   1     -29.460   0.005  23.866  0.00  0.00    +0.243 C 
BRANCH  20  21
ATOM     21  C   UNL A   1     -30.065  -1.377  23.573  0.00  0.00    +0.229 C 
ATOM     22  O   UNL A   1     -30.729  -1.878  24.721  0.00  0.00    -0.216 OA
ENDBRANCH  20  21
ENDBRANCH  19  20
ENDBRANCH  12  19
ENDBRANCH   2   8
BRANCH   3  23
ATOM     23  C   UNL A   1     -25.445  -0.080  29.145  0.00  0.00    +0.143 C 
BRANCH  23  24
ATOM     24  C   UNL A   1     -24.855  -1.012  30.143  0.00  0.00    +0.070 C 
BRANCH  24  25
ATOM     25  C   UNL A   1     -24.973  -2.505  29.788  0.00  0.00    -0.018 C 
ATOM     26  C   UNL A   1     -23.906  -3.173  29.146  0.00  0.00    -0.004 C 
ATOM     27  C   UNL A   1     -23.989  -4.549  28.853  0.00  0.00    -0.000 C 
ATOM     28  C   UNL A   1     -25.137  -5.280  29.205  0.00  0.00    -0.000 C 
ATOM     29  C   UNL A   1     -26.232  -4.611  29.784  0.00  0.00    -0.000 C 
ATOM     30  C   UNL A   1     -26.155  -3.232  30.065  0.00  0.00    -0.004 C 
ENDBRANCH  24  25
BRANCH  24  31
ATOM     31  C   UNL A   1     -25.387  -0.679  31.571  0.00  0.00    +0.080 C 
ATOM     32  C   UNL A   1     -25.189   0.773  32.028  0.00  0.00    +0.019 C 
ATOM     33  C   UNL A   1     -25.336   0.684  33.544  0.00  0.00    +0.020 C 
ATOM     34  C   UNL A   1     -24.829  -0.715  33.905  0.00  0.00    +0.089 C 
ATOM     35  N   UNL A   1     -24.758  -1.481  32.646  0.00  0.00    -0.219 NA
ENDBRANCH  24  31
ENDBRANCH  23  24
BRANCH  23  36
ATOM     36  O   UNL A   1     -26.800   0.037  28.502  0.00  0.00    -0.342 OA
BRANCH  36  37
ATOM     37  C   UNL A   1     -27.890  -0.628  28.675  0.00  0.00    +0.229 C 
BRANCH  37  39
ATOM     38  O   UNL A   1     -29.601  -1.191  30.206  0.00  0.00    -0.271 OA
ATOM     39  C   UNL A   1     -29.079  -0.454  29.367  0.00  0.00    +0.272 C 
ATOM     40  N   UNL A   1     -29.646   0.661  28.896  0.00  0.00    -0.191 NA
BRANCH  40  41
ATOM     41  C   UNL A   1     -31.128   0.712  28.868  0.00  0.00    +0.229 C 
BRANCH  41  42
ATOM     42  C   UNL A   1     -31.645  -0.078  27.656  0.00  0.00    +0.387 C 
ATOM     43  O   UNL A   1     -31.742  -1.249  27.877  0.00  0.00    -0.244 OA
ATOM     44  O   UNL A   1     -31.657   0.493  26.587  0.00  0.00    -0.244 OA
ENDBRANCH  41  42
ENDBRANCH  40  41
ENDBRANCH  37  39
ENDBRANCH  36  37
ENDBRANCH  23  36
ENDBRANCH   3  23
TORSDOF 14
