MODEL 2900
MODEL 1
REMARK VINA RESULT:    -6.053      0.000      0.000
REMARK INTER + INTRA:         -12.332
REMARK INTER:                  -8.884
REMARK INTRA:                  -3.448
REMARK UNBOUND:                -3.448
REMARK  Name = No_2900-gen_results/8p0m/2024-11-27-11-27-31/
REMARK  8 active torsions:
REMARK  status: ('A' for Active; 'I' for Inactive)
REMARK    1  A    between atoms: C_2  and  C_14
REMARK    2  A    between atoms: C_3  and  C_7
REMARK    3  A    between atoms: C_6  and  C_11
REMARK    4  A    between atoms: C_14  and  O_16
REMARK    5  A    between atoms: O_16  and  C_17
REMARK    6  A    between atoms: C_17  and  C_18
REMARK    7  A    between atoms: C_18  and  C_19
REMARK    8  A    between atoms: C_23  and  C_25
REMARK                            x       y       z     vdW  Elec       q    Type
REMARK                         _______ _______ _______ _____ _____    ______ ____
ROOT
ATOM      1  C   UNL A   1     -21.510   0.363  28.526  0.00  0.00    +0.341 C 
ATOM      2  O   UNL A   1     -20.498  -0.015  28.395  0.00  0.00    -0.245 OA
ENDROOT
BRANCH   1   4
ATOM      3  C   UNL A   1     -22.981  -1.370  29.034  0.00  0.00    +0.010 A 
ATOM      4  C   UNL A   1     -22.728  -0.388  29.321  0.00  0.00    +0.076 A 
ATOM      5  C   UNL A   1     -24.075  -1.975  29.740  0.00  0.00    +0.072 A 
ATOM      6  C   UNL A   1     -24.648  -1.418  30.811  0.00  0.00    +0.010 A 
ATOM      7  C   UNL A   1     -23.197   0.395  30.455  0.00  0.00    +0.013 A 
ATOM      8  C   UNL A   1     -24.193  -0.160  31.133  0.00  0.00    +0.080 A 
BRANCH   5   9
ATOM      9  C   UNL A   1     -24.540  -3.360  29.261  0.00  0.00    +0.419 C 
ATOM     10  F   UNL A   1     -23.793  -4.251  29.374  0.00  0.00    -0.166 F 
ATOM     11  F   UNL A   1     -24.946  -3.253  27.939  0.00  0.00    -0.166 F 
ATOM     12  F   UNL A   1     -25.719  -3.754  29.928  0.00  0.00    -0.166 F 
ENDBRANCH   5   9
BRANCH   8  13
ATOM     13  C   UNL A   1     -24.776   0.528  32.324  0.00  0.00    +0.388 C 
ATOM     14  O   UNL A   1     -24.904   1.718  32.344  0.00  0.00    -0.241 OA
ATOM     15  O   UNL A   1     -24.874  -0.212  33.382  0.00  0.00    -0.241 OA
ENDBRANCH   8  13
ENDBRANCH   1   4
BRANCH   1  16
ATOM     16  O   UNL A   1     -21.869   1.655  28.110  0.00  0.00    -0.445 OA
BRANCH  16  17
ATOM     17  C   UNL A   1     -22.053   1.836  26.795  0.00  0.00    +0.213 C 
BRANCH  17  18
ATOM     18  C   UNL A   1     -23.505   2.584  26.757  0.00  0.00    +0.074 C 
BRANCH  18  19
ATOM     19  C   UNL A   1     -24.477   1.463  26.958  0.00  0.00    -0.017 A 
ATOM     20  C   UNL A   1     -24.678   0.579  26.313  0.00  0.00    -0.004 A 
ATOM     21  C   UNL A   1     -25.715  -0.405  26.480  0.00  0.00    -0.000 A 
ATOM     22  C   UNL A   1     -26.603  -0.148  27.565  0.00  0.00    +0.000 A 
ATOM     23  C   UNL A   1     -25.472   1.731  28.060  0.00  0.00    +0.015 A 
ATOM     24  C   UNL A   1     -26.448   0.912  28.323  0.00  0.00    +0.001 A 
BRANCH  23  25
ATOM     25  C   UNL A   1     -25.309   2.970  28.943  0.00  0.00    +0.093 C 
ATOM     26  N   UNL A   1     -26.290   3.603  29.368  0.00  0.00    -0.267 NA
ATOM     27  C   UNL A   1     -26.207   4.500  30.252  0.00  0.00    +0.152 C 
ENDBRANCH  23  25
ENDBRANCH  18  19
ENDBRANCH  17  18
ENDBRANCH  16  17
ENDBRANCH   1  16
TORSDOF 8
ENDMDL
ENDMDL
