REMARK  Name = No_2901-gen_results/8p0m/2024-11-27-11-27-31/
REMARK  3 active torsions:
REMARK  status: ('A' for Active; 'I' for Inactive)
REMARK    1  A    between atoms: C_3  and  C_7
REMARK    2  A    between atoms: N_8  and  C_10
REMARK    3  A    between atoms: C_11  and  C_12
REMARK                            x       y       z     vdW  Elec       q    Type
REMARK                         _______ _______ _______ _____ _____    ______ ____
ROOT
ATOM      1  C   UNL A   1     -26.388   0.291  27.233  0.00  0.00    +0.269 C 
ATOM      2  N   UNL A   1     -25.340   0.046  27.137  0.00  0.00    -0.174 NA
ATOM      3  O   UNL A   1     -27.108   0.572  26.173  0.00  0.00    -0.268 OA
ENDROOT
BRANCH   1   6
ATOM      4  C   UNL A   1     -28.016  -0.814  28.878  0.00  0.00    +0.005 A 
ATOM      5  C   UNL A   1     -28.469  -0.785  29.829  0.00  0.00    +0.000 A 
ATOM      6  C   UNL A   1     -27.136   0.236  28.535  0.00  0.00    +0.055 A 
ATOM      7  C   UNL A   1     -26.875   1.282  29.398  0.00  0.00    +0.005 A 
ATOM      8  C   UNL A   1     -28.361   0.199  30.924  0.00  0.00    +0.000 A 
ATOM      9  C   UNL A   1     -27.528   1.223  30.636  0.00  0.00    +0.000 A 
ENDBRANCH   1   6
BRANCH   2  10
ATOM     10  C   UNL A   1     -24.321   0.593  26.885  0.00  0.00    +0.084 C 
ATOM     11  C   UNL A   1     -23.189   0.872  27.834  0.00  0.00    -0.008 C 
BRANCH  11  12
ATOM     12  C   UNL A   1     -22.088   1.662  27.474  0.00  0.00    +0.027 C 
ATOM     13  C   UNL A   1     -21.081   1.768  28.477  0.00  0.00    +0.005 C 
ENDBRANCH  11  12
ENDBRANCH   2  10
TORSDOF 3
