MODEL 2901
MODEL 1
REMARK VINA RESULT:    -6.351      0.000      0.000
REMARK INTER + INTRA:          -7.727
REMARK INTER:                  -7.465
REMARK INTRA:                  -0.262
REMARK UNBOUND:                -0.262
REMARK  Name = No_2901-gen_results/8p0m/2024-11-27-11-27-31/
REMARK  3 active torsions:
REMARK  status: ('A' for Active; 'I' for Inactive)
REMARK    1  A    between atoms: C_3  and  C_7
REMARK    2  A    between atoms: N_8  and  C_10
REMARK    3  A    between atoms: C_11  and  C_12
REMARK                            x       y       z     vdW  Elec       q    Type
REMARK                         _______ _______ _______ _____ _____    ______ ____
ROOT
ATOM      1  C   UNL A   1     -22.937  -1.050  29.256  0.00  0.00    +0.269 C 
ATOM      2  N   UNL A   1     -23.163  -2.093  29.085  0.00  0.00    -0.174 NA
ATOM      3  O   UNL A   1     -22.436  -0.655  30.403  0.00  0.00    -0.268 OA
ENDROOT
BRANCH   1   6
ATOM      4  C   UNL A   1     -24.218   0.163  27.395  0.00  0.00    +0.005 A 
ATOM      5  C   UNL A   1     -24.233   0.959  26.705  0.00  0.00    +0.000 A 
ATOM      6  C   UNL A   1     -23.068   0.011  28.200  0.00  0.00    +0.055 A 
ATOM      7  C   UNL A   1     -21.983   0.858  28.092  0.00  0.00    +0.005 A 
ATOM      8  C   UNL A   1     -23.226   1.993  26.396  0.00  0.00    +0.000 A 
ATOM      9  C   UNL A   1     -22.106   1.882  27.144  0.00  0.00    +0.000 A 
ENDBRANCH   1   6
BRANCH   2  10
ATOM     10  C   UNL A   1     -23.957  -2.897  29.437  0.00  0.00    +0.084 C 
ATOM     11  C   UNL A   1     -24.134  -4.287  28.891  0.00  0.00    -0.008 C 
BRANCH  11  12
ATOM     12  C   UNL A   1     -25.204  -5.109  29.271  0.00  0.00    +0.027 C 
ATOM     13  C   UNL A   1     -26.369  -4.407  29.696  0.00  0.00    +0.005 C 
ENDBRANCH  11  12
ENDBRANCH   2  10
TORSDOF 3
ENDMDL
ENDMDL
