MODEL 2902
MODEL 1
REMARK VINA RESULT:    -5.380      0.000      0.000
REMARK INTER + INTRA:          -5.734
REMARK INTER:                  -5.694
REMARK INTRA:                  -0.040
REMARK UNBOUND:                -0.040
REMARK  Name = No_2902-gen_results/8p0m/2024-11-27-11-27-31/
REMARK  1 active torsions:
REMARK  status: ('A' for Active; 'I' for Inactive)
REMARK    1  A    between atoms: C_1  and  C_7
REMARK                            x       y       z     vdW  Elec       q    Type
REMARK                         _______ _______ _______ _____ _____    ______ ____
ROOT
ATOM      1  C   UNL A   1      -9.509 -10.116  18.224  0.00  0.00    +0.080 A 
ATOM      2  C   UNL A   1      -8.419 -10.500  18.582  0.00  0.00    +0.007 A 
ATOM      3  C   UNL A   1      -7.836 -10.137  19.780  0.00  0.00    +0.000 A 
ATOM      4  C   UNL A   1      -8.579  -9.297  20.655  0.00  0.00    +0.000 A 
ATOM      5  C   UNL A   1      -9.855  -9.034  20.288  0.00  0.00    +0.000 A 
ATOM      6  C   UNL A   1     -10.344  -9.459  19.139  0.00  0.00    +0.007 A 
ENDROOT
BRANCH   1   7
ATOM      7  C   UNL A   1     -10.074 -10.573  16.902  0.00  0.00    +0.388 C 
ATOM      8  O   UNL A   1      -9.637 -10.996  16.064  0.00  0.00    -0.241 OA
ATOM      9  O   UNL A   1     -11.495 -10.520  16.975  0.00  0.00    -0.241 OA
ENDBRANCH   1   7
TORSDOF 1
ENDMDL
ENDMDL
