REMARK  Name = No_2903-gen_results/8p0m/2024-11-27-11-27-31/
REMARK  2 active torsions:
REMARK  status: ('A' for Active; 'I' for Inactive)
REMARK    1  A    between atoms: C_2  and  C_11
REMARK    2  A    between atoms: C_3  and  C_4
REMARK                            x       y       z     vdW  Elec       q    Type
REMARK                         _______ _______ _______ _____ _____    ______ ____
ROOT
ATOM      1  C   UNL A   1     -28.016  -0.814  28.878  0.00  0.00    +0.010 A 
ATOM      2  C   UNL A   1     -28.469  -0.785  29.829  0.00  0.00    +0.080 A 
ATOM      3  C   UNL A   1     -26.504  -0.778  28.877  0.00  0.00    +0.072 A 
ATOM      4  C   UNL A   1     -27.918  -0.937  31.182  0.00  0.00    +0.007 A 
ATOM      5  C   UNL A   1     -26.542  -0.940  31.261  0.00  0.00    +0.000 A 
ATOM      6  C   UNL A   1     -25.783  -0.893  30.120  0.00  0.00    +0.004 A 
ENDROOT
BRANCH   3   7
ATOM      7  C   UNL A   1     -25.654  -0.660  27.719  0.00  0.00    +0.419 C 
ATOM      8  F   UNL A   1     -26.151  -0.971  26.710  0.00  0.00    -0.166 F 
ATOM      9  F   UNL A   1     -25.154   0.695  27.592  0.00  0.00    -0.166 F 
ATOM     10  F   UNL A   1     -24.374  -1.348  27.894  0.00  0.00    -0.166 F 
ENDBRANCH   3   7
BRANCH   2  11
ATOM     11  C   UNL A   1     -30.051  -0.807  29.882  0.00  0.00    +0.388 C 
ATOM     12  O   UNL A   1     -30.663  -0.009  30.723  0.00  0.00    -0.241 OA
ATOM     13  O   UNL A   1     -30.662  -1.447  29.049  0.00  0.00    -0.241 OA
ENDBRANCH   2  11
TORSDOF 2
