MODEL 2904
MODEL 1
REMARK VINA RESULT:    -8.344      0.000      0.000
REMARK INTER + INTRA:         -14.161
REMARK INTER:                 -11.758
REMARK INTRA:                  -2.403
REMARK UNBOUND:                -2.403
REMARK  Name = No_2904-gen_results/8p0m/2024-11-27-11-27-31/
REMARK  7 active torsions:
REMARK  status: ('A' for Active; 'I' for Inactive)
REMARK    1  A    between atoms: C_3  and  C_4
REMARK    2  A    between atoms: C_10  and  C_13
REMARK    3  A    between atoms: N_14  and  C_16
REMARK    4  A    between atoms: C_16  and  C_17
REMARK    5  A    between atoms: C_20  and  C_23
REMARK    6  A    between atoms: C_23  and  C_24
REMARK    7  A    between atoms: C_23  and  C_25
REMARK                            x       y       z     vdW  Elec       q    Type
REMARK                         _______ _______ _______ _____ _____    ______ ____
ROOT
ATOM      1  C   UNL A   1      -6.313   1.066  36.781  0.00  0.00    -0.001 A 
ATOM      2  C   UNL A   1      -6.924   0.363  35.994  0.00  0.00    -0.003 A 
ATOM      3  C   UNL A   1      -8.331   0.030  35.951  0.00  0.00    -0.004 A 
ATOM      4  C   UNL A   1      -9.146   0.603  36.991  0.00  0.00    -0.014 A 
ATOM      5  C   UNL A   1      -8.468   1.385  37.952  0.00  0.00    -0.004 A 
ATOM      6  C   UNL A   1      -7.111   1.587  37.919  0.00  0.00    -0.003 A 
ENDROOT
BRANCH   1   7
ATOM      7  C   UNL A   1      -4.951   1.252  36.878  0.00  0.00    +0.142 C 
BRANCH   7   9
ATOM      8  C   UNL A   1      -3.414  -0.212  35.667  0.00  0.00    +0.265 C 
ATOM      9  N   UNL A   1      -4.261   0.773  35.710  0.00  0.00    -0.197 NA
ATOM     10  O   UNL A   1      -3.191  -0.858  36.716  0.00  0.00    -0.268 OA
BRANCH   8  14
ATOM     11  C   UNL A   1      -2.422   0.424  33.386  0.00  0.00    +0.005 A 
ATOM     12  C   UNL A   1      -1.823   0.148  32.372  0.00  0.00    +0.000 A 
ATOM     13  C   UNL A   1      -1.589  -1.176  32.015  0.00  0.00    +0.000 A 
ATOM     14  C   UNL A   1      -2.743  -0.567  34.404  0.00  0.00    +0.055 A 
ATOM     15  C   UNL A   1      -2.649  -1.911  34.099  0.00  0.00    +0.005 A 
ATOM     16  C   UNL A   1      -2.000  -2.252  32.903  0.00  0.00    +0.000 A 
BRANCH  13  17
ATOM     17  C   UNL A   1      -0.858  -1.644  30.803  0.00  0.00    +0.000 A 
ATOM     18  C   UNL A   1      -1.051  -0.871  29.620  0.00  0.00    +0.000 A 
ATOM     19  C   UNL A   1      -0.446  -1.253  28.424  0.00  0.00    +0.000 A 
ATOM     20  C   UNL A   1       0.219  -2.498  28.409  0.00  0.00    +0.000 A 
ATOM     21  C   UNL A   1       0.394  -3.255  29.531  0.00  0.00    +0.000 A 
ATOM     22  C   UNL A   1      -0.203  -2.846  30.782  0.00  0.00    +0.000 A 
ENDBRANCH  13  17
ENDBRANCH   8  14
ENDBRANCH   7   9
ENDBRANCH   1   7
BRANCH   4  23
ATOM     23  C   UNL A   1     -10.548   0.387  36.968  0.00  0.00    +0.067 C 
BRANCH  23  24
ATOM     24  C   UNL A   1     -11.463   0.972  36.224  0.00  0.00    -0.014 A 
ATOM     25  C   UNL A   1     -12.350   1.898  36.834  0.00  0.00    -0.004 A 
ATOM     26  C   UNL A   1     -12.568   3.031  36.541  0.00  0.00    -0.000 A 
ATOM     27  C   UNL A   1     -11.759   3.677  35.574  0.00  0.00    -0.000 A 
ATOM     28  C   UNL A   1     -11.176   2.785  34.678  0.00  0.00    -0.000 A 
ATOM     29  C   UNL A   1     -11.247   1.423  34.909  0.00  0.00    -0.004 A 
ENDBRANCH  23  24
BRANCH  23  30
ATOM     30  C   UNL A   1     -11.059  -0.556  37.965  0.00  0.00    -0.014 A 
ATOM     31  C   UNL A   1     -11.364  -1.823  37.525  0.00  0.00    -0.004 A 
ATOM     32  C   UNL A   1     -11.767  -2.691  37.894  0.00  0.00    -0.000 A 
ATOM     33  C   UNL A   1     -12.165  -2.726  39.321  0.00  0.00    -0.000 A 
ATOM     34  C   UNL A   1     -11.978  -1.480  39.982  0.00  0.00    -0.000 A 
ATOM     35  C   UNL A   1     -11.376  -0.379  39.296  0.00  0.00    -0.004 A 
ENDBRANCH  23  30
ENDBRANCH   4  23
TORSDOF 7
ENDMDL
ENDMDL
