MODEL 2905
MODEL 1
REMARK VINA RESULT:    -6.592      0.000      0.000
REMARK INTER + INTRA:          -7.330
REMARK INTER:                  -6.978
REMARK INTRA:                  -0.353
REMARK UNBOUND:                -0.353
REMARK  Name = No_2905-gen_results/8p0m/2024-11-27-11-27-31/
REMARK  1 active torsions:
REMARK  status: ('A' for Active; 'I' for Inactive)
REMARK    1  A    between atoms: C_2  and  C_7
REMARK                            x       y       z     vdW  Elec       q    Type
REMARK                         _______ _______ _______ _____ _____    ______ ____
ROOT
ATOM      1  C   UNL A   1     -25.601  -2.527  29.594  0.00  0.00    +0.000 A 
ATOM      2  C   UNL A   1     -24.498  -2.642  29.111  0.00  0.00    +0.000 A 
ATOM      3  C   UNL A   1     -24.002  -3.887  28.741  0.00  0.00    +0.000 A 
ATOM      4  C   UNL A   1     -24.769  -5.086  28.963  0.00  0.00    +0.000 A 
ATOM      5  C   UNL A   1     -26.023  -4.864  29.547  0.00  0.00    +0.000 A 
ATOM      6  C   UNL A   1     -26.438  -3.667  29.895  0.00  0.00    +0.000 A 
ENDROOT
BRANCH   2   7
ATOM      7  C   UNL A   1     -23.560  -1.520  28.836  0.00  0.00    +0.000 A 
ATOM      8  C   UNL A   1     -22.651  -1.277  29.234  0.00  0.00    +0.000 A 
ATOM      9  C   UNL A   1     -21.765  -0.075  29.000  0.00  0.00    +0.000 A 
ATOM     10  C   UNL A   1     -22.251   0.910  28.162  0.00  0.00    +0.000 A 
ATOM     11  C   UNL A   1     -23.522   0.752  27.605  0.00  0.00    +0.000 A 
ATOM     12  C   UNL A   1     -24.220  -0.391  27.861  0.00  0.00    +0.000 A 
ENDBRANCH   2   7
TORSDOF 1
ENDMDL
ENDMDL
