MODEL 2906
MODEL 1
REMARK VINA RESULT:    -4.441      0.000      0.000
REMARK INTER + INTRA:          -4.441
REMARK INTER:                  -4.441
REMARK INTRA:                   0.000
REMARK UNBOUND:                 0.000
REMARK  Name = No_2906-gen_results/8p0m/2024-11-27-11-27-31/
REMARK  0 active torsions:
REMARK  status: ('A' for Active; 'I' for Inactive)
REMARK                            x       y       z     vdW  Elec       q    Type
REMARK                         _______ _______ _______ _____ _____    ______ ____
ROOT
ATOM      1  C   UNL A   1     -10.319  -9.145  19.407  0.00  0.00    +0.001 A 
ATOM      2  C   UNL A   1      -9.395  -9.155  20.188  0.00  0.00    +0.011 A 
ATOM      3  C   UNL A   1      -8.213  -9.861  19.975  0.00  0.00    +0.058 A 
ATOM      4  C   UNL A   1      -8.085 -10.683  18.786  0.00  0.00    +0.011 A 
ATOM      5  C   UNL A   1      -9.206 -10.629  17.926  0.00  0.00    +0.001 A 
ATOM      6  C   UNL A   1     -10.279  -9.939  18.215  0.00  0.00    +0.000 A 
ATOM      7 CL   UNL A   1      -6.874  -9.906  21.046  0.00  0.00    -0.082 Cl
ENDROOT
TORSDOF 0
ENDMDL
ENDMDL
