MODEL 2907
MODEL 1
REMARK VINA RESULT:    -6.255      0.000      0.000
REMARK INTER + INTRA:          -6.660
REMARK INTER:                  -6.621
REMARK INTRA:                  -0.040
REMARK UNBOUND:                -0.040
REMARK  Name = No_2907-gen_results/8p0m/2024-11-27-11-27-31/
REMARK  1 active torsions:
REMARK  status: ('A' for Active; 'I' for Inactive)
REMARK    1  A    between atoms: N_3  and  C_8
REMARK                            x       y       z     vdW  Elec       q    Type
REMARK                         _______ _______ _______ _____ _____    ______ ____
ROOT
ATOM      1  C   UNL A   1     -24.046  -3.894  28.876  0.00  0.00    +0.041 C 
ATOM      2  C   UNL A   1     -24.308  -2.756  29.188  0.00  0.00    +0.037 C 
ATOM      3  N   UNL A   1     -23.446  -1.780  29.128  0.00  0.00    -0.254 NA
ATOM      4  C   UNL A   1     -25.116  -4.917  28.978  0.00  0.00    +0.006 C 
ATOM      5  C   UNL A   1     -26.261  -4.612  29.667  0.00  0.00    +0.001 C 
ATOM      6  C   UNL A   1     -26.487  -3.376  30.201  0.00  0.00    +0.006 C 
ATOM      7  C   UNL A   1     -25.501  -2.384  29.982  0.00  0.00    +0.041 C 
ENDROOT
BRANCH   3   8
ATOM      8  C   UNL A   1     -23.635  -0.549  28.583  0.00  0.00    +0.081 A 
ATOM      9  C   UNL A   1     -22.697   0.311  28.642  0.00  0.00    +0.019 A 
ATOM     10  C   UNL A   1     -22.746   1.301  27.601  0.00  0.00    +0.002 A 
ATOM     11  C   UNL A   1     -23.740   1.351  26.660  0.00  0.00    +0.000 A 
ATOM     12  C   UNL A   1     -24.633   0.276  26.561  0.00  0.00    +0.002 A 
ATOM     13  C   UNL A   1     -24.628  -0.648  27.542  0.00  0.00    +0.019 A 
ENDBRANCH   3   8
TORSDOF 1
ENDMDL
ENDMDL
