MODEL 2908
MODEL 1
REMARK VINA RESULT:    -7.295      0.000      0.000
REMARK INTER + INTRA:         -15.060
REMARK INTER:                 -12.413
REMARK INTRA:                  -2.646
REMARK UNBOUND:                -2.646
REMARK  Name = No_2908-gen_results/8p0m/2024-11-27-11-27-31/
REMARK  12 active torsions:
REMARK  status: ('A' for Active; 'I' for Inactive)
REMARK    1  A    between atoms: C_4  and  C_11
REMARK    2  A    between atoms: C_11  and  C_13
REMARK    3  A    between atoms: C_13  and  O_14
REMARK    4  A    between atoms: O_14  and  C_15
REMARK    5  A    between atoms: C_15  and  C_16
REMARK    6  A    between atoms: C_16  and  O_28
REMARK    7  A    between atoms: C_17  and  C_19
REMARK    8  A    between atoms: C_20  and  C_21
REMARK    9  A    between atoms: C_22  and  C_23
REMARK   10  A    between atoms: C_24  and  C_25
REMARK   11  A    between atoms: C_26  and  C_27
REMARK   12  A    between atoms: C_27  and  C_30
REMARK                            x       y       z     vdW  Elec       q    Type
REMARK                         _______ _______ _______ _____ _____    ______ ____
ROOT
ATOM      1  C   UNL A   1     -23.692  -1.969  29.344  0.00  0.00    +0.159 C 
ATOM      2  C   UNL A   1     -22.686  -1.291  29.032  0.00  0.00    +0.036 C 
ENDROOT
BRANCH   1   3
ATOM      3  C   UNL A   1     -24.845  -1.253  29.610  0.00  0.00    +0.252 C 
ATOM      4 CL   UNL A   1     -25.880  -1.157  28.281  0.00  0.00    -0.074 Cl
BRANCH   3   5
ATOM      5  O   UNL A   1     -25.451  -1.746  30.789  0.00  0.00    -0.335 OA
BRANCH   5   6
ATOM      6  C   UNL A   1     -25.903  -1.196  31.574  0.00  0.00    +0.148 C 
BRANCH   6   7
ATOM      7  C   UNL A   1     -24.947  -0.501  32.411  0.00  0.00    +0.052 C 
ATOM      8  C   UNL A   1     -23.944  -1.094  33.035  0.00  0.00    +0.007 C 
BRANCH   7  12
ATOM      9  C   UNL A   1     -27.203   1.047  35.706  0.00  0.00    -0.000 A 
ATOM     10  C   UNL A   1     -26.560   0.609  34.780  0.00  0.00    -0.000 A 
ATOM     11  C   UNL A   1     -25.970   1.410  33.803  0.00  0.00    -0.004 A 
ATOM     12  C   UNL A   1     -25.183   0.962  32.638  0.00  0.00    -0.020 A 
ATOM     13  C   UNL A   1     -24.621   1.816  31.624  0.00  0.00    -0.004 A 
ATOM     14  C   UNL A   1     -24.682   3.184  31.912  0.00  0.00    -0.000 A 
ATOM     15  C   UNL A   1     -27.506   2.519  35.701  0.00  0.00    -0.000 A 
ATOM     16  C   UNL A   1     -26.895   3.393  34.831  0.00  0.00    -0.000 A 
ATOM     17  C   UNL A   1     -26.124   2.888  33.800  0.00  0.00    -0.000 A 
ATOM     18  C   UNL A   1     -25.476   3.730  32.898  0.00  0.00    -0.000 A 
ENDBRANCH   7  12
ENDBRANCH   6   7
ENDBRANCH   5   6
ENDBRANCH   3   5
ENDBRANCH   1   3
BRANCH   2  19
ATOM     19  C   UNL A   1     -22.732   0.085  29.129  0.00  0.00    +0.003 C 
ATOM     20  C   UNL A   1     -22.538   0.753  28.339  0.00  0.00    +0.000 C 
BRANCH  20  21
ATOM     21  C   UNL A   1     -22.723   1.354  27.470  0.00  0.00    +0.000 C 
ATOM     22  C   UNL A   1     -23.304   2.003  26.821  0.00  0.00    -0.000 C 
BRANCH  22  23
ATOM     23  C   UNL A   1     -24.541   1.480  26.134  0.00  0.00    -0.000 C 
ATOM     24  C   UNL A   1     -24.584   0.402  25.283  0.00  0.00    -0.000 C 
BRANCH  24  25
ATOM     25  C   UNL A   1     -25.784   0.084  24.623  0.00  0.00    -0.004 C 
ATOM     26  C   UNL A   1     -26.856   0.641  24.605  0.00  0.00    -0.021 C 
BRANCH  26  27
ATOM     27  C   UNL A   1     -27.960   0.238  23.804  0.00  0.00    +0.052 C 
BRANCH  27  28
ATOM     28  C   UNL A   1     -29.118   0.138  23.738  0.00  0.00    -0.018 A 
ATOM     29  C   UNL A   1     -30.090   1.132  23.484  0.00  0.00    -0.004 A 
ATOM     30  C   UNL A   1     -31.353   0.729  22.980  0.00  0.00    -0.000 A 
ATOM     31  C   UNL A   1     -31.834  -0.538  23.188  0.00  0.00    -0.000 A 
ATOM     32  C   UNL A   1     -30.944  -1.531  23.567  0.00  0.00    -0.000 A 
ATOM     33  C   UNL A   1     -29.638  -1.279  23.800  0.00  0.00    -0.004 A 
ENDBRANCH  27  28
ENDBRANCH  26  27
ENDBRANCH  24  25
ENDBRANCH  22  23
ENDBRANCH  20  21
ENDBRANCH   2  19
BRANCH   1  34
ATOM     34  O   UNL A   1     -23.754  -3.247  29.396  0.00  0.00    -0.472 OA
ATOM     35  C   UNL A   1     -24.191  -3.985  28.330  0.00  0.00    +0.252 C 
ENDBRANCH   1  34
TORSDOF 12
ENDMDL
ENDMDL
