REMARK  Name = outputs/IAG933/test6/raw/output_2908_IAG933_linker_design_.xyz
REMARK  12 active torsions:
REMARK  status: ('A' for Active; 'I' for Inactive)
REMARK    1  A    between atoms: C_1  and  C_2
REMARK    2  A    between atoms: C_1  and  C_8
REMARK    3  A    between atoms: C_1  and  C_42
REMARK    4  A    between atoms: C_13  and  C_40
REMARK    5  A    between atoms: C_14  and  C_15
REMARK    6  A    between atoms: C_21  and  O_22
REMARK    7  A    between atoms: O_22  and  C_23
REMARK    8  A    between atoms: C_23  and  C_24
REMARK    9  A    between atoms: C_28  and  C_42
REMARK   10  A    between atoms: C_30  and  C_37
REMARK   11  A    between atoms: O_35  and  C_41
REMARK   12  A    between atoms: C_37  and  C_43
REMARK                            x       y       z     vdW  Elec       q    Type
REMARK                         _______ _______ _______ _____ _____    ______ ____
ROOT
ATOM      1  C   UNL A   1     -24.334   0.577  28.324  0.00  0.00    +0.041 C 
ATOM      2  O   UNL A   1     -22.721   0.263  30.027  0.00  0.00    -0.291 OA
ATOM      3  C   UNL A   1     -22.908   0.513  28.829  0.00  0.00    +0.178 C 
ATOM      4  C   UNL A   1     -21.717   0.920  28.152  0.00  0.00    +0.098 C 
ATOM      5  C   UNL A   1     -21.938   1.494  26.924  0.00  0.00    +0.019 C 
ATOM      6  C   UNL A   1     -24.414   1.312  27.104  0.00  0.00    +0.039 C 
ATOM      7  C   UNL A   1     -23.204   1.790  26.441  0.00  0.00    +0.135 C 
ENDROOT
BRANCH   6   8
ATOM      8  C   UNL A   1     -25.688   1.614  26.461  0.00  0.00    +0.041 C 
ATOM      9  C   UNL A   1     -26.250   2.920  26.395  0.00  0.00    +0.077 C 
ATOM     10  C   UNL A   1     -27.438   3.091  25.645  0.00  0.00    +0.107 C 
ATOM     11  N   UNL A   1     -28.075   2.089  25.003  0.00  0.00    -0.208 NA
ATOM     12  C   UNL A   1     -27.543   0.849  25.079  0.00  0.00    +0.253 C 
ATOM     13  C   UNL A   1     -26.354   0.576  25.777  0.00  0.00    +0.193 C 
ATOM     14  F   UNL A   1     -25.860  -0.681  25.795  0.00  0.00    -0.199 F 
BRANCH   9  15
ATOM     15  C   UNL A   1     -25.642   4.093  27.123  0.00  0.00    +0.266 C 
ATOM     16  N   UNL A   1     -25.614   5.252  26.449  0.00  0.00    -0.200 NA
ATOM     17  C   UNL A   1     -25.026   6.479  26.963  0.00  0.00    +0.139 C 
ATOM     18  O   UNL A   1     -25.143   3.966  28.243  0.00  0.00    -0.268 OA
ENDBRANCH   9  15
BRANCH  12  19
ATOM     19  O   UNL A   1     -28.193  -0.208  24.477  0.00  0.00    -0.456 OA
BRANCH  19  20
ATOM     20  C   UNL A   1     -29.460   0.005  23.866  0.00  0.00    +0.243 C 
BRANCH  20  21
ATOM     21  C   UNL A   1     -30.065  -1.377  23.573  0.00  0.00    +0.229 C 
ATOM     22  O   UNL A   1     -30.729  -1.878  24.721  0.00  0.00    -0.216 OA
ENDBRANCH  20  21
ENDBRANCH  19  20
ENDBRANCH  12  19
ENDBRANCH   6   8
BRANCH   1  24
ATOM     23  C   UNL A   1     -26.825  -0.001  28.848  0.00  0.00    -0.107 C 
ATOM     24  C   UNL A   1     -25.352  -0.092  29.053  0.00  0.00    +0.020 C 
ATOM     25  C   UNL A   1     -28.245   0.042  29.057  0.00  0.00    +0.050 C 
BRANCH  25  27
ATOM     26  O   UNL A   1     -30.090  -0.364  27.685  0.00  0.00    -0.215 OA
ATOM     27  C   UNL A   1     -29.321   0.640  28.252  0.00  0.00    +0.214 C 
BRANCH  27  28
ATOM     28  C   UNL A   1     -30.303   1.535  29.031  0.00  0.00    +0.220 C 
ATOM     29  O   UNL A   1     -30.040   2.892  28.703  0.00  0.00    -0.217 OA
ENDBRANCH  27  28
ENDBRANCH  25  27
BRANCH  24  30
ATOM     30  C   UNL A   1     -24.855  -1.012  30.143  0.00  0.00    +0.068 C 
BRANCH  30  31
ATOM     31  C   UNL A   1     -24.973  -2.505  29.788  0.00  0.00    -0.017 C 
ATOM     32  C   UNL A   1     -23.906  -3.173  29.146  0.00  0.00    -0.004 C 
ATOM     33  C   UNL A   1     -23.989  -4.549  28.853  0.00  0.00    -0.000 C 
ATOM     34  C   UNL A   1     -25.137  -5.280  29.205  0.00  0.00    -0.000 C 
ATOM     35  C   UNL A   1     -26.232  -4.611  29.784  0.00  0.00    -0.000 C 
ATOM     36  C   UNL A   1     -26.155  -3.232  30.065  0.00  0.00    -0.004 C 
ENDBRANCH  30  31
BRANCH  30  37
ATOM     37  C   UNL A   1     -25.387  -0.679  31.571  0.00  0.00    +0.081 C 
ATOM     38  C   UNL A   1     -25.189   0.773  32.028  0.00  0.00    +0.019 C 
ATOM     39  C   UNL A   1     -25.336   0.684  33.544  0.00  0.00    +0.020 C 
ATOM     40  C   UNL A   1     -24.829  -0.715  33.905  0.00  0.00    +0.089 C 
ATOM     41  N   UNL A   1     -24.758  -1.481  32.646  0.00  0.00    -0.219 NA
ENDBRANCH  30  37
ENDBRANCH  24  30
ENDBRANCH   1  24
BRANCH   7  43
ATOM     42  C   UNL A   1     -22.165   2.161  24.525  0.00  0.00    +0.253 C 
ATOM     43  O   UNL A   1     -23.241   2.663  25.407  0.00  0.00    -0.472 OA
ENDBRANCH   7  43
TORSDOF 12
