MODEL 2909
MODEL 1
REMARK VINA RESULT:    -5.951      0.000      0.000
REMARK INTER + INTRA:          -7.231
REMARK INTER:                  -6.995
REMARK INTRA:                  -0.236
REMARK UNBOUND:                -0.236
REMARK  Name = No_2909-gen_results/8p0m/2024-11-27-11-27-31/
REMARK  3 active torsions:
REMARK  status: ('A' for Active; 'I' for Inactive)
REMARK    1  A    between atoms: C_2  and  N_8
REMARK    2  A    between atoms: N_8  and  C_9
REMARK    3  A    between atoms: C_10  and  C_11
REMARK                            x       y       z     vdW  Elec       q    Type
REMARK                         _______ _______ _______ _____ _____    ______ ____
ROOT
ATOM      1  C   UNL A   1     -24.599  -0.008  27.234  0.00  0.00    +0.020 A 
ATOM      2  C   UNL A   1     -23.830  -0.083  28.164  0.00  0.00    +0.071 A 
ATOM      3  C   UNL A   1     -22.691   0.688  28.321  0.00  0.00    +0.020 A 
ATOM      4  C   UNL A   1     -22.427   1.667  27.318  0.00  0.00    +0.043 A 
ATOM      5  C   UNL A   1     -23.382   1.825  26.378  0.00  0.00    +0.196 A 
ATOM      6  C   UNL A   1     -24.490   1.083  26.369  0.00  0.00    +0.043 A 
ATOM      7  O   UNL A   1     -23.153   2.812  25.468  0.00  0.00    -0.287 OA
ENDROOT
BRANCH   2   8
ATOM      8  N   UNL A   1     -23.943  -1.146  29.171  0.00  0.00    -0.211 NA
BRANCH   8   9
ATOM      9  C   UNL A   1     -23.494  -2.364  28.998  0.00  0.00    +0.086 C 
ATOM     10  C   UNL A   1     -24.355  -3.405  28.658  0.00  0.00    +0.018 C 
BRANCH  10  11
ATOM     11  C   UNL A   1     -24.159  -4.715  28.756  0.00  0.00    -0.003 C 
ATOM     12  C   UNL A   1     -25.251  -5.288  29.200  0.00  0.00    -0.026 C 
ATOM     13  C   UNL A   1     -26.306  -4.430  29.667  0.00  0.00    +0.031 C 
ENDBRANCH  10  11
ENDBRANCH   8   9
ENDBRANCH   2   8
TORSDOF 3
ENDMDL
ENDMDL
