REMARK  Name = outputs/IAG933/test6/raw/output_2909_IAG933_linker_design_.xyz
REMARK  16 active torsions:
REMARK  status: ('A' for Active; 'I' for Inactive)
REMARK    1  A    between atoms: C_1  and  C_2
REMARK    2  A    between atoms: C_1  and  C_8
REMARK    3  A    between atoms: C_1  and  N_36
REMARK    4  A    between atoms: C_14  and  C_15
REMARK    5  A    between atoms: C_15  and  O_18
REMARK    6  A    between atoms: O_18  and  C_29
REMARK    7  A    between atoms: C_21  and  O_22
REMARK    8  A    between atoms: O_22  and  C_23
REMARK    9  A    between atoms: C_23  and  C_24
REMARK   10  A    between atoms: C_29  and  C_32
REMARK   11  A    between atoms: C_29  and  O_41
REMARK   12  A    between atoms: C_32  and  C_34
REMARK   13  A    between atoms: C_33  and  O_41
REMARK   14  A    between atoms: C_34  and  N_36
REMARK   15  A    between atoms: N_36  and  C_42
REMARK   16  A    between atoms: C_37  and  C_42
REMARK                            x       y       z     vdW  Elec       q    Type
REMARK                         _______ _______ _______ _____ _____    ______ ____
ROOT
ATOM      1  C   UNL A   1     -25.499   3.561  29.549  0.00  0.00    +0.343 C 
ENDROOT
BRANCH   1   2
ATOM      2  C   UNL A   1     -24.332   2.399  29.653  0.00  0.00    +0.109 C 
BRANCH   2   3
ATOM      3  C   UNL A   1     -24.815   1.176  29.262  0.00  0.00    +0.081 C 
BRANCH   3   4
ATOM      4  N   UNL A   1     -24.002   0.031  29.530  0.00  0.00    -0.256 NA
BRANCH   4   5
ATOM      5  C   UNL A   1     -24.855  -1.012  30.143  0.00  0.00    +0.097 C 
BRANCH   5   6
ATOM      6  C   UNL A   1     -24.973  -2.505  29.788  0.00  0.00    -0.006 C 
ATOM      7  C   UNL A   1     -23.906  -3.173  29.146  0.00  0.00    -0.003 C 
ATOM      8  C   UNL A   1     -23.989  -4.549  28.853  0.00  0.00    -0.000 C 
ATOM      9  C   UNL A   1     -25.137  -5.280  29.205  0.00  0.00    -0.000 C 
ATOM     10  C   UNL A   1     -26.232  -4.611  29.784  0.00  0.00    -0.000 C 
ATOM     11  C   UNL A   1     -26.155  -3.232  30.065  0.00  0.00    -0.003 C 
ENDBRANCH   5   6
BRANCH   5  12
ATOM     12  C   UNL A   1     -25.387  -0.679  31.571  0.00  0.00    +0.092 C 
ATOM     13  C   UNL A   1     -25.189   0.773  32.028  0.00  0.00    +0.021 C 
ATOM     14  C   UNL A   1     -25.336   0.684  33.544  0.00  0.00    +0.020 C 
ATOM     15  C   UNL A   1     -24.829  -0.715  33.905  0.00  0.00    +0.089 C 
ATOM     16  N   UNL A   1     -24.758  -1.481  32.646  0.00  0.00    -0.218 NA
ENDBRANCH   5  12
ENDBRANCH   4   5
BRANCH   4  17
ATOM     17  C   UNL A   1     -22.471   0.245  29.055  0.00  0.00    +0.180 C 
BRANCH  17  18
ATOM     18  C   UNL A   1     -22.053   1.121  27.706  0.00  0.00    +0.091 C 
ATOM     19  N   UNL A   1     -21.748   1.752  26.744  0.00  0.00    -0.194 NA
ENDBRANCH  17  18
ENDBRANCH   4  17
ENDBRANCH   3   4
ENDBRANCH   2   3
ENDBRANCH   1   2
BRANCH   1  20
ATOM     20  O   UNL A   1     -25.143   3.966  28.243  0.00  0.00    -0.426 OA
BRANCH  20  21
ATOM     21  C   UNL A   1     -25.642   4.093  27.123  0.00  0.00    +0.225 C 
ATOM     22  N   UNL A   1     -25.614   5.252  26.449  0.00  0.00    -0.236 NA
ATOM     23  C   UNL A   1     -25.026   6.479  26.963  0.00  0.00    +0.155 C 
BRANCH  21  25
ATOM     24  C   UNL A   1     -25.688   1.614  26.461  0.00  0.00    +0.041 C 
ATOM     25  C   UNL A   1     -26.250   2.920  26.395  0.00  0.00    +0.074 C 
ATOM     26  C   UNL A   1     -27.438   3.091  25.645  0.00  0.00    +0.107 C 
ATOM     27  N   UNL A   1     -28.075   2.089  25.003  0.00  0.00    -0.208 NA
ATOM     28  C   UNL A   1     -27.543   0.849  25.079  0.00  0.00    +0.253 C 
ATOM     29  C   UNL A   1     -26.354   0.576  25.777  0.00  0.00    +0.193 C 
ATOM     30  F   UNL A   1     -25.860  -0.681  25.795  0.00  0.00    -0.199 F 
BRANCH  28  31
ATOM     31  O   UNL A   1     -28.193  -0.208  24.477  0.00  0.00    -0.456 OA
BRANCH  31  32
ATOM     32  C   UNL A   1     -29.460   0.005  23.866  0.00  0.00    +0.243 C 
BRANCH  32  33
ATOM     33  C   UNL A   1     -30.065  -1.377  23.573  0.00  0.00    +0.229 C 
ATOM     34  O   UNL A   1     -30.729  -1.878  24.721  0.00  0.00    -0.216 OA
ENDBRANCH  32  33
ENDBRANCH  31  32
ENDBRANCH  28  31
ENDBRANCH  21  25
ENDBRANCH  20  21
ENDBRANCH   1  20
BRANCH   1  35
ATOM     35  O   UNL A   1     -25.403   4.598  30.510  0.00  0.00    -0.443 OA
BRANCH  35  39
ATOM     36  C   UNL A   1     -27.664   5.501  29.653  0.00  0.00    +0.034 C 
ATOM     37  C   UNL A   1     -25.642   7.476  32.886  0.00  0.00    +0.003 C 
ATOM     38  C   UNL A   1     -25.232   6.213  32.421  0.00  0.00    +0.037 C 
ATOM     39  C   UNL A   1     -25.866   5.649  31.255  0.00  0.00    +0.138 C 
ATOM     40  C   UNL A   1     -27.335   7.591  31.131  0.00  0.00    -0.001 C 
ATOM     41  C   UNL A   1     -26.978   6.281  30.732  0.00  0.00    +0.012 C 
ATOM     42  C   UNL A   1     -26.632   8.192  32.181  0.00  0.00    -0.000 C 
ENDBRANCH  35  39
ENDBRANCH   1  35
TORSDOF 16
