MODEL 290
MODEL 1
REMARK VINA RESULT:    -4.483      0.000      0.000
REMARK INTER + INTRA:          -4.483
REMARK INTER:                  -4.483
REMARK INTRA:                   0.000
REMARK UNBOUND:                 0.000
REMARK  Name = No_290-gen_results/8p0m/2024-11-27-11-27-31/
REMARK  0 active torsions:
REMARK  status: ('A' for Active; 'I' for Inactive)
REMARK                            x       y       z     vdW  Elec       q    Type
REMARK                         _______ _______ _______ _____ _____    ______ ____
ROOT
ATOM      1  C   UNL A   1     -26.394  -3.848  29.871  0.00  0.00    +0.001 A 
ATOM      2  C   UNL A   1     -26.177  -4.852  29.633  0.00  0.00    +0.000 A 
ATOM      3  C   UNL A   1     -25.510  -2.671  29.791  0.00  0.00    +0.011 A 
ATOM      4  C   UNL A   1     -24.205  -2.989  29.150  0.00  0.00    +0.058 A 
ATOM      5  C   UNL A   1     -23.994  -4.318  28.709  0.00  0.00    +0.011 A 
ATOM      6  C   UNL A   1     -24.929  -5.264  28.899  0.00  0.00    +0.001 A 
ATOM      7 CL   UNL A   1     -23.073  -1.795  28.945  0.00  0.00    -0.082 Cl
ENDROOT
TORSDOF 0
ENDMDL
ENDMDL
