MODEL 2910
MODEL 1
REMARK VINA RESULT:    -7.805      0.000      0.000
REMARK INTER + INTRA:         -12.517
REMARK INTER:                 -10.087
REMARK INTRA:                  -2.430
REMARK UNBOUND:                -2.430
REMARK  Name = No_2910-gen_results/8p0m/2024-11-27-11-27-31/
REMARK  5 active torsions:
REMARK  status: ('A' for Active; 'I' for Inactive)
REMARK    1  A    between atoms: C_3  and  C_7
REMARK    2  A    between atoms: C_7  and  C_8
REMARK    3  A    between atoms: C_7  and  C_9
REMARK    4  A    between atoms: C_11  and  C_12
REMARK    5  A    between atoms: C_11  and  C_18
REMARK                            x       y       z     vdW  Elec       q    Type
REMARK                         _______ _______ _______ _____ _____    ______ ____
ROOT
ATOM      1  C   UNL A   1     -23.972  -1.755  29.908  0.00  0.00    +0.066 C 
ENDROOT
BRANCH   1   4
ATOM      2  C   UNL A   1     -23.995  -0.123  27.965  0.00  0.00    -0.004 A 
ATOM      3  C   UNL A   1     -23.518   0.657  27.441  0.00  0.00    -0.000 A 
ATOM      4  C   UNL A   1     -23.262  -0.692  29.060  0.00  0.00    -0.014 A 
ATOM      5  C   UNL A   1     -21.986  -0.390  29.318  0.00  0.00    -0.004 A 
ATOM      6  C   UNL A   1     -22.145   1.131  27.534  0.00  0.00    -0.000 A 
ATOM      7  C   UNL A   1     -21.446   0.598  28.527  0.00  0.00    -0.000 A 
ENDBRANCH   1   4
BRANCH   1   8
ATOM      8  C   UNL A   1     -24.457  -2.723  29.522  0.00  0.00    -0.014 A 
ATOM      9  C   UNL A   1     -25.865  -3.052  29.720  0.00  0.00    -0.004 A 
ATOM     10  C   UNL A   1     -23.773  -3.820  28.800  0.00  0.00    -0.004 A 
ATOM     11  C   UNL A   1     -26.354  -4.359  29.783  0.00  0.00    -0.000 A 
ATOM     12  C   UNL A   1     -24.381  -5.030  28.651  0.00  0.00    -0.000 A 
ATOM     13  C   UNL A   1     -25.591  -5.254  29.058  0.00  0.00    -0.000 A 
ENDBRANCH   1   8
BRANCH   1  14
ATOM     14  C   UNL A   1     -23.989  -1.478  31.368  0.00  0.00    -0.018 C 
ATOM     15  C   UNL A   1     -24.894  -0.535  31.922  0.00  0.00    -0.004 C 
BRANCH  15  16
ATOM     16  C   UNL A   1     -25.112  -0.423  33.309  0.00  0.00    -0.000 A 
ATOM     17  C   UNL A   1     -24.254  -1.043  34.224  0.00  0.00    -0.000 A 
ATOM     18  C   UNL A   1     -24.599  -1.009  35.615  0.00  0.00    -0.000 A 
ATOM     19  C   UNL A   1     -25.749  -0.360  36.018  0.00  0.00    -0.000 A 
ATOM     20  C   UNL A   1     -26.673   0.170  35.114  0.00  0.00    -0.000 A 
ATOM     21  C   UNL A   1     -26.370   0.083  33.747  0.00  0.00    -0.000 A 
ENDBRANCH  15  16
BRANCH  15  22
ATOM     22  C   UNL A   1     -25.536   0.420  31.029  0.00  0.00    -0.005 C 
ATOM     23  C   UNL A   1     -25.066   1.744  30.883  0.00  0.00    -0.026 C 
ATOM     24  C   UNL A   1     -25.777   2.649  30.086  0.00  0.00    +0.031 C 
ENDBRANCH  15  22
ENDBRANCH   1  14
TORSDOF 5
ENDMDL
ENDMDL
