MODEL 2911
MODEL 1
REMARK VINA RESULT:    -4.463      0.000      0.000
REMARK INTER + INTRA:          -5.028
REMARK INTER:                  -4.985
REMARK INTRA:                  -0.043
REMARK UNBOUND:                -0.043
REMARK  Name = No_2911-gen_results/8p0m/2024-11-27-11-27-31/
REMARK  2 active torsions:
REMARK  status: ('A' for Active; 'I' for Inactive)
REMARK    1  A    between atoms: C_1  and  C_2
REMARK    2  A    between atoms: C_5  and  C_9
REMARK                            x       y       z     vdW  Elec       q    Type
REMARK                         _______ _______ _______ _____ _____    ______ ____
ROOT
ATOM      1  C   UNL A   1     -17.172 -22.023   8.218  0.00  0.00    -0.003 A 
ATOM      2  C   UNL A   1     -18.553 -22.038   8.314  0.00  0.00    -0.003 A 
ATOM      3  C   UNL A   1     -19.475 -21.288   7.496  0.00  0.00    +0.001 A 
ATOM      4  C   UNL A   1     -18.951 -20.439   6.491  0.00  0.00    +0.021 A 
ATOM      5  C   UNL A   1     -17.542 -20.374   6.342  0.00  0.00    +0.001 A 
ATOM      6  C   UNL A   1     -16.756 -21.143   7.144  0.00  0.00    -0.003 A 
ENDROOT
BRANCH   1   7
ATOM      7  C   UNL A   1     -16.421 -22.712   8.868  0.00  0.00    +0.136 C 
ATOM      8  N   UNL A   1     -16.041 -22.300  10.108  0.00  0.00    -0.126 NA
ENDBRANCH   1   7
BRANCH   4   9
ATOM      9  C   UNL A   1     -19.799 -19.645   5.636  0.00  0.00    +0.122 C 
ATOM     10  N   UNL A   1     -19.635 -18.339   5.653  0.00  0.00    -0.146 NA
ENDBRANCH   4   9
TORSDOF 2
ENDMDL
ENDMDL
