REMARK  Name = No_2911-gen_results/8p0m/2024-11-27-11-27-31/
REMARK  2 active torsions:
REMARK  status: ('A' for Active; 'I' for Inactive)
REMARK    1  A    between atoms: C_1  and  C_2
REMARK    2  A    between atoms: C_5  and  C_9
REMARK                            x       y       z     vdW  Elec       q    Type
REMARK                         _______ _______ _______ _____ _____    ______ ____
ROOT
ATOM      1  C   UNL A   1     -27.064  -0.119  28.608  0.00  0.00    -0.003 A 
ATOM      2  C   UNL A   1     -26.972   0.714  27.506  0.00  0.00    -0.003 A 
ATOM      3  C   UNL A   1     -25.820   1.491  27.116  0.00  0.00    +0.001 A 
ATOM      4  C   UNL A   1     -24.656   1.424  27.918  0.00  0.00    +0.021 A 
ATOM      5  C   UNL A   1     -24.685   0.590  29.066  0.00  0.00    +0.001 A 
ATOM      6  C   UNL A   1     -25.810  -0.127  29.334  0.00  0.00    -0.003 A 
ENDROOT
BRANCH   1   7
ATOM      7  C   UNL A   1     -28.016  -0.814  28.878  0.00  0.00    +0.136 C 
ATOM      8  N   UNL A   1     -28.710  -0.581  30.025  0.00  0.00    -0.126 NA
ENDBRANCH   1   7
BRANCH   4   9
ATOM      9  C   UNL A   1     -23.464   2.175  27.609  0.00  0.00    +0.122 C 
ATOM     10  N   UNL A   1     -22.506   2.203  28.512  0.00  0.00    -0.146 NA
ENDBRANCH   4   9
TORSDOF 2
