MODEL 2912
MODEL 1
REMARK VINA RESULT:    -6.703      0.000      0.000
REMARK INTER + INTRA:          -9.651
REMARK INTER:                  -8.662
REMARK INTRA:                  -0.989
REMARK UNBOUND:                -0.989
REMARK  Name = No_2912-gen_results/8p0m/2024-11-27-11-27-31/
REMARK  5 active torsions:
REMARK  status: ('A' for Active; 'I' for Inactive)
REMARK    1  A    between atoms: C_2  and  C_11
REMARK    2  A    between atoms: C_3  and  C_4
REMARK    3  A    between atoms: N_13  and  C_15
REMARK    4  A    between atoms: C_16  and  C_17
REMARK    5  A    between atoms: C_17  and  C_18
REMARK                            x       y       z     vdW  Elec       q    Type
REMARK                         _______ _______ _______ _____ _____    ______ ____
ROOT
ATOM      1  C   UNL A   1     -23.862   1.420  28.832  0.00  0.00    +0.008 A 
ATOM      2  C   UNL A   1     -23.645   0.821  29.671  0.00  0.00    +0.054 A 
ATOM      3  C   UNL A   1     -22.835   1.363  27.792  0.00  0.00    +0.072 A 
ATOM      4  C   UNL A   1     -22.551  -0.063  30.051  0.00  0.00    +0.004 A 
ATOM      5  C   UNL A   1     -21.555  -0.133  29.099  0.00  0.00    +0.000 A 
ATOM      6  C   UNL A   1     -21.696   0.530  27.937  0.00  0.00    +0.004 A 
ENDROOT
BRANCH   3   7
ATOM      7  C   UNL A   1     -22.960   2.033  26.477  0.00  0.00    +0.419 C 
ATOM      8  F   UNL A   1     -22.115   2.330  25.972  0.00  0.00    -0.166 F 
ATOM      9  F   UNL A   1     -23.818   1.251  25.665  0.00  0.00    -0.166 F 
ATOM     10  F   UNL A   1     -23.804   3.246  26.591  0.00  0.00    -0.166 F 
ENDBRANCH   3   7
BRANCH   2  11
ATOM     11  C   UNL A   1     -24.770   0.762  30.848  0.00  0.00    +0.253 C 
ATOM     12  O   UNL A   1     -24.656   1.379  31.925  0.00  0.00    -0.270 OA
ATOM     13  N   UNL A   1     -25.854   0.023  30.670  0.00  0.00    -0.253 N 
ATOM     14  C   UNL A   1     -26.838  -0.143  31.674  0.00  0.00    +0.120 C 
BRANCH  13  15
ATOM     15  C   UNL A   1     -26.060  -0.729  29.425  0.00  0.00    +0.064 C 
ATOM     16  C   UNL A   1     -26.189  -2.072  29.731  0.00  0.00    -0.005 C 
BRANCH  16  17
ATOM     17  C   UNL A   1     -25.263  -2.850  29.844  0.00  0.00    +0.053 C 
BRANCH  17  18
ATOM     18  C   UNL A   1     -24.239  -3.107  28.874  0.00  0.00    -0.026 C 
ATOM     19  C   UNL A   1     -24.090  -4.389  28.515  0.00  0.00    -0.030 C 
ATOM     20  C   UNL A   1     -24.906  -5.365  29.067  0.00  0.00    +0.030 C 
ENDBRANCH  17  18
ENDBRANCH  16  17
ENDBRANCH  13  15
ENDBRANCH   2  11
TORSDOF 5
ENDMDL
ENDMDL
