REMARK  Name = No_2912-gen_results/8p0m/2024-11-27-11-27-31/
REMARK  5 active torsions:
REMARK  status: ('A' for Active; 'I' for Inactive)
REMARK    1  A    between atoms: C_2  and  C_11
REMARK    2  A    between atoms: C_3  and  C_4
REMARK    3  A    between atoms: N_13  and  C_15
REMARK    4  A    between atoms: C_16  and  C_17
REMARK    5  A    between atoms: C_17  and  C_18
REMARK                            x       y       z     vdW  Elec       q    Type
REMARK                         _______ _______ _______ _____ _____    ______ ____
ROOT
ATOM      1  C   UNL A   1     -28.016  -0.814  28.878  0.00  0.00    +0.008 A 
ATOM      2  C   UNL A   1     -28.469  -0.785  29.829  0.00  0.00    +0.054 A 
ATOM      3  C   UNL A   1     -27.087   0.290  28.638  0.00  0.00    +0.072 A 
ATOM      4  C   UNL A   1     -28.391   0.104  30.980  0.00  0.00    +0.004 A 
ATOM      5  C   UNL A   1     -27.533   1.167  30.787  0.00  0.00    +0.000 A 
ATOM      6  C   UNL A   1     -26.828   1.256  29.645  0.00  0.00    +0.004 A 
ENDROOT
BRANCH   3   7
ATOM      7  C   UNL A   1     -26.252   0.411  27.422  0.00  0.00    +0.419 C 
ATOM      8  F   UNL A   1     -26.289  -0.321  26.701  0.00  0.00    -0.166 F 
ATOM      9  F   UNL A   1     -26.450   1.704  26.878  0.00  0.00    -0.166 F 
ATOM     10  F   UNL A   1     -24.821   0.539  27.786  0.00  0.00    -0.166 F 
ENDBRANCH   3   7
BRANCH   2  11
ATOM     11  C   UNL A   1     -29.462  -2.018  30.213  0.00  0.00    +0.253 C 
ATOM     12  O   UNL A   1     -29.057  -3.183  30.395  0.00  0.00    -0.270 OA
ATOM     13  N   UNL A   1     -30.761  -1.789  30.332  0.00  0.00    -0.253 N 
ATOM     14  C   UNL A   1     -31.698  -2.820  30.585  0.00  0.00    +0.120 C 
BRANCH  13  15
ATOM     15  C   UNL A   1     -31.312  -0.441  30.137  0.00  0.00    +0.064 C 
ATOM     16  C   UNL A   1     -32.321  -0.505  29.193  0.00  0.00    -0.005 C 
BRANCH  16  17
ATOM     17  C   UNL A   1     -32.155  -0.422  27.993  0.00  0.00    +0.053 C 
BRANCH  17  18
ATOM     18  C   UNL A   1     -33.169  -0.495  26.982  0.00  0.00    -0.026 C 
ATOM     19  C   UNL A   1     -34.423  -0.642  27.428  0.00  0.00    -0.030 C 
ATOM     20  C   UNL A   1     -34.674  -0.702  28.791  0.00  0.00    +0.030 C 
ENDBRANCH  17  18
ENDBRANCH  16  17
ENDBRANCH  13  15
ENDBRANCH   2  11
TORSDOF 5
