REMARK  Name = No_2913-gen_results/8p0m/2024-11-27-11-27-31/
REMARK  5 active torsions:
REMARK  status: ('A' for Active; 'I' for Inactive)
REMARK    1  A    between atoms: C_4  and  C_13
REMARK    2  A    between atoms: C_5  and  N_7
REMARK    3  A    between atoms: C_13  and  C_14
REMARK    4  A    between atoms: C_14  and  C_15
REMARK    5  A    between atoms: C_15  and  C_16
REMARK                            x       y       z     vdW  Elec       q    Type
REMARK                         _______ _______ _______ _____ _____    ______ ____
ROOT
ATOM      1  C   UNL A   1     -28.016  -0.814  28.878  0.00  0.00    +0.001 C 
ATOM      2  C   UNL A   1     -28.469  -0.785  29.829  0.00  0.00    +0.016 C 
ATOM      3  C   UNL A   1     -26.504  -0.778  28.877  0.00  0.00    +0.000 C 
ATOM      4  C   UNL A   1     -25.831  -1.681  29.685  0.00  0.00    +0.001 C 
ATOM      5  C   UNL A   1     -28.149  -1.885  30.903  0.00  0.00    +0.058 C 
ATOM      6  C   UNL A   1     -26.646  -1.956  31.033  0.00  0.00    +0.016 C 
ENDROOT
BRANCH   5   7
ATOM      7  N   UNL A   1     -28.686  -1.756  32.203  0.00  0.00    -0.274 NA
ATOM      8  C   UNL A   1     -28.703  -0.737  32.900  0.00  0.00    +0.072 C 
ATOM      9  C   UNL A   1     -29.211  -0.800  34.195  0.00  0.00    +0.017 C 
ATOM     10  C   UNL A   1     -29.583  -2.922  32.616  0.00  0.00    +0.072 C 
ATOM     11  C   UNL A   1     -30.053  -2.949  33.920  0.00  0.00    +0.017 C 
ATOM     12  C   UNL A   1     -29.973  -1.820  34.698  0.00  0.00    +0.003 C 
ENDBRANCH   5   7
BRANCH   4  13
ATOM     13  C   UNL A   1     -24.425  -1.324  29.991  0.00  0.00    +0.000 C 
BRANCH  13  14
ATOM     14  C   UNL A   1     -24.095  -0.596  31.069  0.00  0.00    +0.003 C 
BRANCH  14  15
ATOM     15  C   UNL A   1     -23.310   0.554  30.858  0.00  0.00    +0.030 C 
BRANCH  15  16
ATOM     16  C   UNL A   1     -24.009   1.790  30.803  0.00  0.00    +0.120 C 
ATOM     17  O   UNL A   1     -24.505   2.253  31.895  0.00  0.00    -0.351 OA
ATOM     18  C   UNL A   1     -25.764   2.903  31.922  0.00  0.00    +0.168 C 
ATOM     19  C   UNL A   1     -26.373   2.961  30.875  0.00  0.00    +0.001 C 
ATOM     20  C   UNL A   1     -25.794   2.624  29.640  0.00  0.00    -0.026 C 
ATOM     21  C   UNL A   1     -24.461   2.247  29.579  0.00  0.00    +0.055 C 
ENDBRANCH  15  16
ENDBRANCH  14  15
ENDBRANCH  13  14
ENDBRANCH   4  13
TORSDOF 5
