MODEL 2913
MODEL 1
REMARK VINA RESULT:    -7.135      0.000      0.000
REMARK INTER + INTRA:         -10.759
REMARK INTER:                  -9.220
REMARK INTRA:                  -1.539
REMARK UNBOUND:                -1.539
REMARK  Name = No_2913-gen_results/8p0m/2024-11-27-11-27-31/
REMARK  5 active torsions:
REMARK  status: ('A' for Active; 'I' for Inactive)
REMARK    1  A    between atoms: C_4  and  C_13
REMARK    2  A    between atoms: C_5  and  N_7
REMARK    3  A    between atoms: C_13  and  C_14
REMARK    4  A    between atoms: C_14  and  C_15
REMARK    5  A    between atoms: C_15  and  C_16
REMARK                            x       y       z     vdW  Elec       q    Type
REMARK                         _______ _______ _______ _____ _____    ______ ____
ROOT
ATOM      1  C   UNL A   1     -24.144   0.245  31.470  0.00  0.00    +0.001 C 
ATOM      2  C   UNL A   1     -24.310  -0.780  31.286  0.00  0.00    +0.016 C 
ATOM      3  C   UNL A   1     -23.327   0.970  30.424  0.00  0.00    +0.000 C 
ATOM      4  C   UNL A   1     -23.710   0.843  29.098  0.00  0.00    +0.001 C 
ATOM      5  C   UNL A   1     -25.031  -1.251  29.973  0.00  0.00    +0.058 C 
ATOM      6  C   UNL A   1     -24.304  -0.613  28.813  0.00  0.00    +0.016 C 
ENDROOT
BRANCH   5   7
ATOM      7  N   UNL A   1     -25.139  -2.633  29.704  0.00  0.00    -0.274 NA
ATOM      8  C   UNL A   1     -26.122  -3.353  29.905  0.00  0.00    +0.072 C 
ATOM      9  C   UNL A   1     -26.036  -4.719  29.647  0.00  0.00    +0.017 C 
ATOM     10  C   UNL A   1     -24.027  -3.173  28.806  0.00  0.00    +0.072 C 
ATOM     11  C   UNL A   1     -23.974  -4.542  28.590  0.00  0.00    +0.017 C 
ATOM     12  C   UNL A   1     -25.055  -5.326  28.911  0.00  0.00    +0.003 C 
ENDBRANCH   5   7
BRANCH   4  13
ATOM     13  C   UNL A   1     -22.660   1.180  28.106  0.00  0.00    +0.000 C 
BRANCH  13  14
ATOM     14  C   UNL A   1     -22.800   2.195  27.240  0.00  0.00    +0.003 C 
BRANCH  14  15
ATOM     15  C   UNL A   1     -23.024   1.867  25.889  0.00  0.00    +0.030 C 
BRANCH  15  16
ATOM     16  C   UNL A   1     -24.372   1.602  25.523  0.00  0.00    +0.120 C 
ATOM     17  O   UNL A   1     -25.303   2.228  26.150  0.00  0.00    -0.351 OA
ATOM     18  C   UNL A   1     -26.521   1.593  26.498  0.00  0.00    +0.168 C 
ATOM     19  C   UNL A   1     -26.626   0.418  26.218  0.00  0.00    +0.001 C 
ATOM     20  C   UNL A   1     -25.710  -0.249  25.387  0.00  0.00    -0.026 C 
ATOM     21  C   UNL A   1     -24.657   0.449  24.815  0.00  0.00    +0.055 C 
ENDBRANCH  15  16
ENDBRANCH  14  15
ENDBRANCH  13  14
ENDBRANCH   4  13
TORSDOF 5
ENDMDL
ENDMDL
