MODEL 2914
MODEL 1
REMARK VINA RESULT:    -7.153      0.000      0.000
REMARK INTER + INTRA:          -7.153
REMARK INTER:                  -7.153
REMARK INTRA:                   0.000
REMARK UNBOUND:                 0.000
REMARK  Name = No_2914-gen_results/8p0m/2024-11-27-11-27-31/
REMARK  0 active torsions:
REMARK  status: ('A' for Active; 'I' for Inactive)
REMARK                            x       y       z     vdW  Elec       q    Type
REMARK                         _______ _______ _______ _____ _____    ______ ____
ROOT
ATOM      1  C   UNL A   1     -24.251   1.001  31.082  0.00  0.00    +0.039 A 
ATOM      2  C   UNL A   1     -24.944   1.168  31.858  0.00  0.00    +0.141 A 
ATOM      3  C   UNL A   1     -24.306  -0.313  30.421  0.00  0.00    +0.110 A 
ATOM      4  C   UNL A   1     -25.342  -1.240  30.735  0.00  0.00    +0.012 A 
ATOM      5  C   UNL A   1     -26.211  -0.858  31.727  0.00  0.00    +0.003 A 
ATOM      6  C   UNL A   1     -26.098   0.351  32.318  0.00  0.00    +0.030 A 
ATOM      7  C   UNL A   1     -25.423  -2.523  30.086  0.00  0.00    +0.035 A 
ATOM      8  C   UNL A   1     -26.185  -3.196  30.114  0.00  0.00    +0.003 A 
ATOM      9  C   UNL A   1     -26.181  -4.649  29.594  0.00  0.00    +0.000 A 
ATOM     10  C   UNL A   1     -24.998  -4.965  28.954  0.00  0.00    +0.003 A 
ATOM     11  C   UNL A   1     -24.149  -2.946  29.411  0.00  0.00    +0.148 A 
ATOM     12  C   UNL A   1     -23.988  -4.150  28.907  0.00  0.00    +0.037 A 
ATOM     13  F   UNL A   1     -24.893   2.426  32.559  0.00  0.00    -0.204 F 
ATOM     14  P   UNL A   1     -23.118  -0.795  29.193  0.00  0.00    +0.502 P 
ATOM     15  O   UNL A   1     -23.266  -2.317  28.876  0.00  0.00    -0.409 OA
ATOM     16  O   UNL A   1     -21.800  -0.590  29.980  0.00  0.00    -0.225 OA
ATOM     17  O   UNL A   1     -23.142  -0.035  28.062  0.00  0.00    -0.225 OA
ENDROOT
TORSDOF 0
ENDMDL
ENDMDL
