REMARK  Name = outputs/IAG933/test6/raw/output_2915_IAG933_linker_design_.xyz
REMARK  12 active torsions:
REMARK  status: ('A' for Active; 'I' for Inactive)
REMARK    1  A    between atoms: C_1  and  C_2
REMARK    2  A    between atoms: C_1  and  C_8
REMARK    3  A    between atoms: C_9  and  N_35
REMARK    4  A    between atoms: C_13  and  C_29
REMARK    5  A    between atoms: C_14  and  C_15
REMARK    6  A    between atoms: C_21  and  O_22
REMARK    7  A    between atoms: O_22  and  C_23
REMARK    8  A    between atoms: C_23  and  C_24
REMARK    9  A    between atoms: C_29  and  C_33
REMARK   10  A    between atoms: N_32  and  C_36
REMARK   11  A    between atoms: C_33  and  O_34
REMARK   12  A    between atoms: C_33  and  C_36
REMARK                            x       y       z     vdW  Elec       q    Type
REMARK                         _______ _______ _______ _____ _____    ______ ____
ROOT
ATOM      1  N   UNL A   1     -20.395   0.873  28.066  0.00  0.00    -0.267 NA
ATOM      2  C   UNL A   1     -21.715  -0.733  28.991  0.00  0.00    +0.190 C 
ATOM      3  O   UNL A   1     -22.931   0.073  29.006  0.00  0.00    -0.330 OA
ATOM      4  C   UNL A   1     -22.840   1.393  28.520  0.00  0.00    +0.220 C 
ATOM      5  C   UNL A   1     -21.404   1.829  27.971  0.00  0.00    +0.176 C 
ATOM      6  C   UNL A   1     -20.715  -0.272  28.555  0.00  0.00    +0.099 C 
ENDROOT
BRANCH   4   7
ATOM      7  N   UNL A   1     -23.455   2.243  29.392  0.00  0.00    -0.159 NA
ATOM      8  N   UNL A   1     -25.276   1.639  30.872  0.00  0.00    -0.187 NA
ATOM      9  O   UNL A   1     -23.805   2.871  31.687  0.00  0.00    -0.249 OA
ATOM     10  C   UNL A   1     -24.153   2.293  30.650  0.00  0.00    +0.341 C 
BRANCH   8  12
ATOM     11  C   UNL A   1     -25.387  -0.679  31.571  0.00  0.00    +0.097 C 
ATOM     12  C   UNL A   1     -25.189   0.773  32.028  0.00  0.00    +0.115 C 
ATOM     13  C   UNL A   1     -25.336   0.684  33.544  0.00  0.00    +0.042 C 
ATOM     14  C   UNL A   1     -24.829  -0.715  33.905  0.00  0.00    +0.090 C 
ATOM     15  N   UNL A   1     -24.758  -1.481  32.646  0.00  0.00    -0.217 NA
BRANCH  11  16
ATOM     16  C   UNL A   1     -24.855  -1.012  30.143  0.00  0.00    +0.045 C 
BRANCH  16  17
ATOM     17  C   UNL A   1     -24.973  -2.505  29.788  0.00  0.00    -0.021 C 
ATOM     18  C   UNL A   1     -23.906  -3.173  29.146  0.00  0.00    -0.004 C 
ATOM     19  C   UNL A   1     -23.989  -4.549  28.853  0.00  0.00    -0.000 C 
ATOM     20  C   UNL A   1     -25.137  -5.280  29.205  0.00  0.00    -0.000 C 
ATOM     21  C   UNL A   1     -26.232  -4.611  29.784  0.00  0.00    -0.000 C 
ATOM     22  C   UNL A   1     -26.155  -3.232  30.065  0.00  0.00    -0.004 C 
ENDBRANCH  16  17
ENDBRANCH  11  16
ENDBRANCH   8  12
ENDBRANCH   4   7
BRANCH   4  23
ATOM     23  C   UNL A   1     -23.431   1.122  27.189  0.00  0.00    +0.162 C 
BRANCH  23  24
ATOM     24  O   UNL A   1     -23.202   1.414  25.703  0.00  0.00    -0.349 OA
ATOM     25  C   UNL A   1     -22.822   2.698  25.275  0.00  0.00    +0.174 C 
ENDBRANCH  23  24
BRANCH  23  26
ATOM     26  C   UNL A   1     -24.768   1.157  27.444  0.00  0.00    +0.042 C 
BRANCH  26  27
ATOM     27  C   UNL A   1     -25.688   1.614  26.461  0.00  0.00    +0.073 C 
ATOM     28  C   UNL A   1     -26.250   2.920  26.395  0.00  0.00    +0.055 C 
ATOM     29  C   UNL A   1     -27.438   3.091  25.645  0.00  0.00    +0.102 C 
ATOM     30  N   UNL A   1     -28.075   2.089  25.003  0.00  0.00    -0.212 NA
ATOM     31  C   UNL A   1     -27.543   0.849  25.079  0.00  0.00    +0.234 C 
ATOM     32  C   UNL A   1     -26.354   0.576  25.777  0.00  0.00    +0.240 C 
ATOM     33  F   UNL A   1     -25.860  -0.681  25.795  0.00  0.00    -0.227 F 
BRANCH  28  34
ATOM     34  C   UNL A   1     -25.642   4.093  27.123  0.00  0.00    +0.262 C 
ATOM     35  N   UNL A   1     -25.614   5.252  26.449  0.00  0.00    -0.200 NA
ATOM     36  C   UNL A   1     -25.026   6.479  26.963  0.00  0.00    +0.139 C 
ATOM     37  O   UNL A   1     -25.143   3.966  28.243  0.00  0.00    -0.269 OA
ENDBRANCH  28  34
BRANCH  31  38
ATOM     38  O   UNL A   1     -28.193  -0.208  24.477  0.00  0.00    -0.459 OA
BRANCH  38  39
ATOM     39  C   UNL A   1     -29.460   0.005  23.866  0.00  0.00    +0.242 C 
BRANCH  39  40
ATOM     40  C   UNL A   1     -30.065  -1.377  23.573  0.00  0.00    +0.229 C 
ATOM     41  O   UNL A   1     -30.729  -1.878  24.721  0.00  0.00    -0.216 OA
ENDBRANCH  39  40
ENDBRANCH  38  39
ENDBRANCH  31  38
ENDBRANCH  26  27
ENDBRANCH  23  26
ENDBRANCH   4  23
TORSDOF 12
