MODEL 2915
MODEL 1
REMARK VINA RESULT:    -8.078      0.000      0.000
REMARK INTER + INTRA:         -10.763
REMARK INTER:                 -10.440
REMARK INTRA:                  -0.324
REMARK UNBOUND:                -0.324
REMARK  Name = No_2915-gen_results/8p0m/2024-11-27-11-27-31/
REMARK  5 active torsions:
REMARK  status: ('A' for Active; 'I' for Inactive)
REMARK    1  A    between atoms: C_3  and  C_4
REMARK    2  A    between atoms: C_7  and  C_13
REMARK    3  A    between atoms: N_15  and  C_16
REMARK    4  A    between atoms: C_21  and  C_22
REMARK    5  A    between atoms: C_28  and  C_30
REMARK                            x       y       z     vdW  Elec       q    Type
REMARK                         _______ _______ _______ _____ _____    ______ ____
ROOT
ATOM      1  C   UNL A   1     -28.678  -8.595  36.458  0.00  0.00    +0.074 A 
ATOM      2  C   UNL A   1     -29.054  -8.988  37.492  0.00  0.00    +0.017 A 
ATOM      3  C   UNL A   1     -28.907  -8.235  38.650  0.00  0.00    +0.006 A 
ATOM      4  C   UNL A   1     -27.838  -7.459  36.292  0.00  0.00    +0.017 A 
ATOM      5  C   UNL A   1     -27.583  -6.721  37.452  0.00  0.00    +0.006 A 
ATOM      6  C   UNL A   1     -28.091  -7.154  38.650  0.00  0.00    +0.054 A 
ENDROOT
BRANCH   6   7
ATOM      7  C   UNL A   1     -27.794  -6.384  39.876  0.00  0.00    +0.249 C 
ATOM      8  N   UNL A   1     -26.937  -6.843  40.648  0.00  0.00    -0.276 N 
ATOM      9  C   UNL A   1     -26.105  -7.634  40.539  0.00  0.00    +0.094 C 
ATOM     10  C   UNL A   1     -25.176  -8.010  41.701  0.00  0.00    +0.026 C 
ATOM     11  C   UNL A   1     -26.952  -6.371  42.129  0.00  0.00    +0.094 C 
ATOM     12  C   UNL A   1     -26.130  -6.675  43.038  0.00  0.00    +0.026 C 
ATOM     13  C   UNL A   1     -25.176  -7.564  42.849  0.00  0.00    +0.025 C 
ATOM     14  O   UNL A   1     -28.694  -5.535  40.149  0.00  0.00    -0.270 OA
BRANCH  13  15
ATOM     15  C   UNL A   1     -24.208  -7.970  43.864  0.00  0.00    -0.031 C 
ATOM     16  C   UNL A   1     -24.526  -8.927  44.690  0.00  0.00    -0.030 C 
ATOM     17  C   UNL A   1     -25.840  -9.558  44.567  0.00  0.00    +0.030 C 
ENDBRANCH  13  15
ENDBRANCH   6   7
BRANCH   1  20
ATOM     18  C   UNL A   1     -28.006 -10.057  34.615  0.00  0.00    +0.269 C 
ATOM     19  O   UNL A   1     -26.927 -10.203  35.182  0.00  0.00    -0.268 OA
ATOM     20  N   UNL A   1     -28.923  -9.252  35.171  0.00  0.00    -0.175 NA
BRANCH  18  24
ATOM     21  C   UNL A   1     -27.504 -11.834  32.812  0.00  0.00    +0.005 A 
ATOM     22  C   UNL A   1     -27.806 -12.337  31.754  0.00  0.00    +0.000 A 
ATOM     23  C   UNL A   1     -28.759 -11.801  30.889  0.00  0.00    +0.000 A 
ATOM     24  C   UNL A   1     -28.304 -10.670  33.300  0.00  0.00    +0.055 A 
ATOM     25  C   UNL A   1     -29.201 -10.022  32.498  0.00  0.00    +0.005 A 
ATOM     26  C   UNL A   1     -29.527 -10.580  31.232  0.00  0.00    +0.000 A 
BRANCH  23  27
ATOM     27  C   UNL A   1     -29.196 -12.352  29.592  0.00  0.00    +0.000 A 
ATOM     28  C   UNL A   1     -29.907 -13.590  29.400  0.00  0.00    +0.000 A 
ATOM     29  C   UNL A   1     -30.288 -14.011  28.111  0.00  0.00    +0.000 A 
ATOM     30  C   UNL A   1     -30.248 -13.121  26.994  0.00  0.00    +0.000 A 
ATOM     31  C   UNL A   1     -29.130 -11.552  28.369  0.00  0.00    +0.000 A 
ATOM     32  C   UNL A   1     -29.622 -11.949  27.161  0.00  0.00    +0.000 A 
ENDBRANCH  23  27
ENDBRANCH  18  24
ENDBRANCH   1  20
TORSDOF 5
ENDMDL
ENDMDL
