REMARK  Name = outputs/IAG933/test6/raw/output_2916_IAG933_linker_design_.xyz
REMARK  12 active torsions:
REMARK  status: ('A' for Active; 'I' for Inactive)
REMARK    1  A    between atoms: C_1  and  C_2
REMARK    2  A    between atoms: C_1  and  C_8
REMARK    3  A    between atoms: C_9  and  C_40
REMARK    4  A    between atoms: C_13  and  C_33
REMARK    5  A    between atoms: C_14  and  C_15
REMARK    6  A    between atoms: C_21  and  O_22
REMARK    7  A    between atoms: O_22  and  C_23
REMARK    8  A    between atoms: C_23  and  C_24
REMARK    9  A    between atoms: C_34  and  C_41
REMARK   10  A    between atoms: C_35  and  C_37
REMARK   11  A    between atoms: C_36  and  C_40
REMARK   12  A    between atoms: C_37  and  C_40
REMARK                            x       y       z     vdW  Elec       q    Type
REMARK                         _______ _______ _______ _____ _____    ______ ____
ROOT
ATOM      1  C   UNL A   1     -24.621   1.913  29.943  0.00  0.00    +0.025 C 
ENDROOT
BRANCH   1   5
ATOM      2  N   UNL A   1     -24.387   0.555  27.800  0.00  0.00    -0.214 NA
ATOM      3  F   UNL A   1     -22.202   0.334  29.773  0.00  0.00    -0.236 F 
ATOM      4  C   UNL A   1     -24.523   1.342  26.839  0.00  0.00    +0.098 C 
ATOM      5  C   UNL A   1     -23.886   1.358  28.801  0.00  0.00    +0.106 C 
ATOM      6  C   UNL A   1     -23.180   1.988  26.430  0.00  0.00    +0.025 C 
ATOM      7  C   UNL A   1     -22.595   0.858  28.662  0.00  0.00    +0.177 C 
ATOM      8  C   UNL A   1     -22.019   1.601  27.460  0.00  0.00    +0.038 C 
BRANCH   4   9
ATOM      9  C   UNL A   1     -25.688   1.614  26.461  0.00  0.00    +0.032 C 
ATOM     10  C   UNL A   1     -26.250   2.920  26.395  0.00  0.00    +0.074 C 
ATOM     11  C   UNL A   1     -27.438   3.091  25.645  0.00  0.00    +0.106 C 
ATOM     12  N   UNL A   1     -28.075   2.089  25.003  0.00  0.00    -0.208 NA
ATOM     13  C   UNL A   1     -27.543   0.849  25.079  0.00  0.00    +0.253 C 
ATOM     14  C   UNL A   1     -26.354   0.576  25.777  0.00  0.00    +0.190 C 
ATOM     15  F   UNL A   1     -25.860  -0.681  25.795  0.00  0.00    -0.200 F 
BRANCH  10  16
ATOM     16  C   UNL A   1     -25.642   4.093  27.123  0.00  0.00    +0.266 C 
ATOM     17  N   UNL A   1     -25.614   5.252  26.449  0.00  0.00    -0.200 NA
ATOM     18  C   UNL A   1     -25.026   6.479  26.963  0.00  0.00    +0.139 C 
ATOM     19  O   UNL A   1     -25.143   3.966  28.243  0.00  0.00    -0.268 OA
ENDBRANCH  10  16
BRANCH  13  20
ATOM     20  O   UNL A   1     -28.193  -0.208  24.477  0.00  0.00    -0.456 OA
BRANCH  20  21
ATOM     21  C   UNL A   1     -29.460   0.005  23.866  0.00  0.00    +0.243 C 
BRANCH  21  22
ATOM     22  C   UNL A   1     -30.065  -1.377  23.573  0.00  0.00    +0.229 C 
ATOM     23  O   UNL A   1     -30.729  -1.878  24.721  0.00  0.00    -0.216 OA
ENDBRANCH  21  22
ENDBRANCH  20  21
ENDBRANCH  13  20
ENDBRANCH   4   9
ENDBRANCH   1   5
BRANCH   1  24
ATOM     24  C   UNL A   1     -25.562   2.082  31.200  0.00  0.00    +0.025 C 
BRANCH  24  26
ATOM     25  C   UNL A   1     -25.071   5.332  34.188  0.00  0.00    +0.005 C 
ATOM     26  C   UNL A   1     -25.504   3.336  32.166  0.00  0.00    -0.022 C 
ATOM     27  C   UNL A   1     -24.332   4.050  32.230  0.00  0.00    -0.004 C 
ATOM     28  C   UNL A   1     -26.366   4.835  34.032  0.00  0.00    +0.068 C 
ATOM     29  C   UNL A   1     -26.581   3.821  33.037  0.00  0.00    +0.001 C 
ATOM     30  C   UNL A   1     -24.091   5.019  33.226  0.00  0.00    -0.000 C 
BRANCH  28  33
ATOM     31  F   UNL A   1     -26.850   6.119  36.082  0.00  0.00    -0.159 F 
ATOM     32  O   UNL A   1     -28.411   6.044  34.552  0.00  0.00    -0.254 OA
ATOM     33  C   UNL A   1     -27.313   5.659  34.937  0.00  0.00    +0.333 C 
ENDBRANCH  28  33
ENDBRANCH  24  26
BRANCH  24  35
ATOM     34  C   UNL A   1     -25.387  -0.679  31.571  0.00  0.00    +0.077 C 
ATOM     35  C   UNL A   1     -25.189   0.773  32.028  0.00  0.00    +0.022 C 
ATOM     36  C   UNL A   1     -25.336   0.684  33.544  0.00  0.00    +0.021 C 
ATOM     37  C   UNL A   1     -24.829  -0.715  33.905  0.00  0.00    +0.089 C 
ATOM     38  N   UNL A   1     -24.758  -1.481  32.646  0.00  0.00    -0.219 NA
BRANCH  34  39
ATOM     39  C   UNL A   1     -24.855  -1.012  30.143  0.00  0.00    +0.044 C 
BRANCH  39  40
ATOM     40  C   UNL A   1     -24.973  -2.505  29.788  0.00  0.00    -0.021 C 
ATOM     41  C   UNL A   1     -23.906  -3.173  29.146  0.00  0.00    -0.004 C 
ATOM     42  C   UNL A   1     -23.989  -4.549  28.853  0.00  0.00    -0.000 C 
ATOM     43  C   UNL A   1     -25.137  -5.280  29.205  0.00  0.00    -0.000 C 
ATOM     44  C   UNL A   1     -26.232  -4.611  29.784  0.00  0.00    -0.000 C 
ATOM     45  C   UNL A   1     -26.155  -3.232  30.065  0.00  0.00    -0.004 C 
ENDBRANCH  39  40
ENDBRANCH  34  39
ENDBRANCH  24  35
ENDBRANCH   1  24
TORSDOF 12
