MODEL 2917
MODEL 1
REMARK VINA RESULT:    -6.438      0.000      0.000
REMARK INTER + INTRA:          -7.687
REMARK INTER:                  -7.190
REMARK INTRA:                  -0.496
REMARK UNBOUND:                -0.496
REMARK  Name = No_2917-gen_results/8p0m/2024-11-27-11-27-31/
REMARK  2 active torsions:
REMARK  status: ('A' for Active; 'I' for Inactive)
REMARK    1  A    between atoms: C_2  and  C_7
REMARK    2  A    between atoms: C_7  and  C_8
REMARK                            x       y       z     vdW  Elec       q    Type
REMARK                         _______ _______ _______ _____ _____    ______ ____
ROOT
ATOM      1  C   UNL A   1     -24.799  -1.110  29.188  0.00  0.00    +0.053 C 
ENDROOT
BRANCH   1   3
ATOM      2  C   UNL A   1     -23.936  -3.245  28.526  0.00  0.00    -0.004 A 
ATOM      3  C   UNL A   1     -24.821  -2.624  29.067  0.00  0.00    -0.018 A 
ATOM      4  C   UNL A   1     -25.917  -3.198  29.628  0.00  0.00    -0.004 A 
ATOM      5  C   UNL A   1     -26.035  -4.600  29.580  0.00  0.00    -0.000 A 
ATOM      6  C   UNL A   1     -23.945  -4.686  28.525  0.00  0.00    -0.000 A 
ATOM      7  C   UNL A   1     -25.037  -5.310  29.050  0.00  0.00    -0.000 A 
ENDBRANCH   1   3
BRANCH   1   8
ATOM      8  C   UNL A   1     -24.184  -0.355  28.188  0.00  0.00    -0.018 A 
ATOM      9  C   UNL A   1     -24.945  -0.006  27.100  0.00  0.00    -0.004 A 
ATOM     10  C   UNL A   1     -24.300   0.964  26.307  0.00  0.00    -0.000 A 
ATOM     11  C   UNL A   1     -23.062   1.476  26.707  0.00  0.00    -0.000 A 
ATOM     12  C   UNL A   1     -22.503   1.186  27.947  0.00  0.00    -0.000 A 
ATOM     13  C   UNL A   1     -23.197   0.371  28.762  0.00  0.00    -0.004 A 
ENDBRANCH   1   8
TORSDOF 2
ENDMDL
ENDMDL
