REMARK  Name = outputs/IAG933/test6/raw/output_2917_IAG933_linker_design_.xyz
REMARK  10 active torsions:
REMARK  status: ('A' for Active; 'I' for Inactive)
REMARK    1  A    between atoms: C_1  and  C_2
REMARK    2  A    between atoms: C_1  and  C_8
REMARK    3  A    between atoms: C_1  and  C_38
REMARK    4  A    between atoms: C_13  and  C_45
REMARK    5  A    between atoms: C_14  and  C_15
REMARK    6  A    between atoms: C_21  and  O_22
REMARK    7  A    between atoms: O_22  and  C_23
REMARK    8  A    between atoms: C_23  and  C_24
REMARK    9  A    between atoms: C_29  and  C_44
REMARK   10  A    between atoms: N_41  and  C_44
REMARK                            x       y       z     vdW  Elec       q    Type
REMARK                         _______ _______ _______ _____ _____    ______ ____
ROOT
ATOM      1  C   UNL A   1     -22.783   0.479  28.839  0.00  0.00    +0.031 C 
ATOM      2  O   UNL A   1     -21.453   1.670  27.247  0.00  0.00    -0.297 OA
ATOM      3  C   UNL A   1     -22.584   1.157  27.635  0.00  0.00    +0.184 C 
ATOM      4  C   UNL A   1     -23.129   1.683  25.172  0.00  0.00    +0.225 C 
ATOM      5  C   UNL A   1     -24.115  -0.034  29.216  0.00  0.00    +0.089 C 
ATOM      6  O   UNL A   1     -21.018   1.967  26.070  0.00  0.00    +0.043 OA
ATOM      7  C   UNL A   1     -23.551   1.296  26.746  0.00  0.00    +0.075 C 
ATOM      8  N   UNL A   1     -25.264   0.952  28.697  0.00  0.00    -0.264 NA
ATOM      9  O   UNL A   1     -21.961   1.957  25.029  0.00  0.00    -0.294 OA
ATOM     10  C   UNL A   1     -24.691   1.185  27.321  0.00  0.00    +0.112 C 
ENDROOT
BRANCH  10  11
ATOM     11  C   UNL A   1     -25.688   1.614  26.461  0.00  0.00    +0.035 C 
ATOM     12  C   UNL A   1     -26.250   2.920  26.395  0.00  0.00    +0.074 C 
ATOM     13  C   UNL A   1     -27.438   3.091  25.645  0.00  0.00    +0.106 C 
ATOM     14  N   UNL A   1     -28.075   2.089  25.003  0.00  0.00    -0.208 NA
ATOM     15  C   UNL A   1     -27.543   0.849  25.079  0.00  0.00    +0.253 C 
ATOM     16  C   UNL A   1     -26.354   0.576  25.777  0.00  0.00    +0.191 C 
ATOM     17  F   UNL A   1     -25.860  -0.681  25.795  0.00  0.00    -0.200 F 
BRANCH  12  18
ATOM     18  C   UNL A   1     -25.642   4.093  27.123  0.00  0.00    +0.266 C 
ATOM     19  N   UNL A   1     -25.614   5.252  26.449  0.00  0.00    -0.200 NA
ATOM     20  C   UNL A   1     -25.026   6.479  26.963  0.00  0.00    +0.139 C 
ATOM     21  O   UNL A   1     -25.143   3.966  28.243  0.00  0.00    -0.268 OA
ENDBRANCH  12  18
BRANCH  15  22
ATOM     22  O   UNL A   1     -28.193  -0.208  24.477  0.00  0.00    -0.456 OA
BRANCH  22  23
ATOM     23  C   UNL A   1     -29.460   0.005  23.866  0.00  0.00    +0.243 C 
BRANCH  23  24
ATOM     24  C   UNL A   1     -30.065  -1.377  23.573  0.00  0.00    +0.229 C 
ATOM     25  O   UNL A   1     -30.729  -1.878  24.721  0.00  0.00    -0.216 OA
ENDBRANCH  23  24
ENDBRANCH  22  23
ENDBRANCH  15  22
ENDBRANCH  10  11
BRANCH   5  26
ATOM     26  C   UNL A   1     -24.855  -1.012  30.143  0.00  0.00    +0.057 C 
BRANCH  26  27
ATOM     27  C   UNL A   1     -24.973  -2.505  29.788  0.00  0.00    -0.019 C 
ATOM     28  C   UNL A   1     -23.906  -3.173  29.146  0.00  0.00    -0.004 C 
ATOM     29  C   UNL A   1     -23.989  -4.549  28.853  0.00  0.00    -0.000 C 
ATOM     30  C   UNL A   1     -25.137  -5.280  29.205  0.00  0.00    -0.000 C 
ATOM     31  C   UNL A   1     -26.232  -4.611  29.784  0.00  0.00    -0.000 C 
ATOM     32  C   UNL A   1     -26.155  -3.232  30.065  0.00  0.00    -0.004 C 
ENDBRANCH  26  27
BRANCH  26  33
ATOM     33  C   UNL A   1     -25.387  -0.679  31.571  0.00  0.00    +0.078 C 
ATOM     34  C   UNL A   1     -25.189   0.773  32.028  0.00  0.00    +0.019 C 
ATOM     35  C   UNL A   1     -25.336   0.684  33.544  0.00  0.00    +0.020 C 
ATOM     36  C   UNL A   1     -24.829  -0.715  33.905  0.00  0.00    +0.089 C 
ATOM     37  N   UNL A   1     -24.758  -1.481  32.646  0.00  0.00    -0.219 NA
ENDBRANCH  26  33
ENDBRANCH   5  26
BRANCH   8  38
ATOM     38  C   UNL A   1     -26.776   0.607  29.086  0.00  0.00    +0.075 C 
BRANCH  38  40
ATOM     39  C   UNL A   1     -27.562   2.681  30.234  0.00  0.00    +0.004 C 
ATOM     40  C   UNL A   1     -27.846   1.634  29.152  0.00  0.00    +0.044 C 
ATOM     41  C   UNL A   1     -30.213   1.618  28.329  0.00  0.00    +0.033 C 
ATOM     42  O   UNL A   1     -29.465  -0.441  28.953  0.00  0.00    -0.226 OA
ATOM     43  C   UNL A   1     -29.187   1.000  29.307  0.00  0.00    +0.128 C 
ATOM     44  C   UNL A   1     -29.518   1.331  30.770  0.00  0.00    +0.030 C 
ATOM     45  C   UNL A   1     -28.636   2.455  31.267  0.00  0.00    +0.003 C 
ENDBRANCH  38  40
ENDBRANCH   8  38
TORSDOF 10
