REMARK  Name = outputs/IAG933/test6/raw/output_2918_IAG933_linker_design_.xyz
REMARK  10 active torsions:
REMARK  status: ('A' for Active; 'I' for Inactive)
REMARK    1  A    between atoms: C_1  and  C_2
REMARK    2  A    between atoms: C_1  and  C_8
REMARK    3  A    between atoms: C_1  and  C_34
REMARK    4  A    between atoms: C_13  and  C_29
REMARK    5  A    between atoms: C_14  and  C_15
REMARK    6  A    between atoms: C_21  and  O_22
REMARK    7  A    between atoms: O_22  and  C_23
REMARK    8  A    between atoms: C_23  and  C_24
REMARK    9  A    between atoms: C_34  and  N_35
REMARK   10  A    between atoms: C_34  and  N_38
REMARK                            x       y       z     vdW  Elec       q    Type
REMARK                         _______ _______ _______ _____ _____    ______ ____
ROOT
ATOM      1  C   UNL A   1     -25.364   0.114  29.049  0.00  0.00    +0.163 C 
ENDROOT
BRANCH   1   6
ATOM      2  O   UNL A   1     -30.369  -0.510  27.669  0.00  0.00    -0.223 OA
ATOM      3  C   UNL A   1     -29.379   1.660  28.672  0.00  0.00    +0.118 C 
ATOM      4  C   UNL A   1     -27.685  -0.521  29.396  0.00  0.00    +0.097 C 
ATOM      5  C   UNL A   1     -29.946   0.247  28.797  0.00  0.00    +0.163 C 
ATOM      6  N   UNL A   1     -26.812   0.797  29.452  0.00  0.00    -0.264 N 
ATOM      7  O   UNL A   1     -27.565   2.803  30.038  0.00  0.00    -0.275 OA
ATOM      8  C   UNL A   1     -28.236   2.022  29.466  0.00  0.00    +0.229 C 
ATOM      9  C   UNL A   1     -29.690  -2.017  30.184  0.00  0.00    +0.004 C 
ATOM     10  C   UNL A   1     -29.221  -0.601  29.869  0.00  0.00    +0.051 C 
ENDBRANCH   1   6
BRANCH   1  14
ATOM     11  C   UNL A   1     -22.868   0.454  28.883  0.00  0.00    +0.231 C 
ATOM     12  C   UNL A   1     -24.294   1.258  26.997  0.00  0.00    +0.053 C 
ATOM     13  C   UNL A   1     -23.045   1.870  26.260  0.00  0.00    -0.011 C 
ATOM     14  N   UNL A   1     -24.170   0.671  28.246  0.00  0.00    -0.243 N 
ATOM     15  C   UNL A   1     -21.555   0.829  28.082  0.00  0.00    +0.090 C 
ATOM     16  O   UNL A   1     -22.570   0.062  30.057  0.00  0.00    -0.275 OA
ATOM     17  C   UNL A   1     -21.628   1.822  26.918  0.00  0.00    +0.037 C 
BRANCH  12  18
ATOM     18  C   UNL A   1     -25.688   1.614  26.461  0.00  0.00    +0.051 C 
ATOM     19  C   UNL A   1     -26.250   2.920  26.395  0.00  0.00    +0.078 C 
ATOM     20  C   UNL A   1     -27.438   3.091  25.645  0.00  0.00    +0.107 C 
ATOM     21  N   UNL A   1     -28.075   2.089  25.003  0.00  0.00    -0.208 NA
ATOM     22  C   UNL A   1     -27.543   0.849  25.079  0.00  0.00    +0.253 C 
ATOM     23  C   UNL A   1     -26.354   0.576  25.777  0.00  0.00    +0.194 C 
ATOM     24  F   UNL A   1     -25.860  -0.681  25.795  0.00  0.00    -0.199 F 
BRANCH  19  25
ATOM     25  C   UNL A   1     -25.642   4.093  27.123  0.00  0.00    +0.267 C 
ATOM     26  N   UNL A   1     -25.614   5.252  26.449  0.00  0.00    -0.200 NA
ATOM     27  C   UNL A   1     -25.026   6.479  26.963  0.00  0.00    +0.139 C 
ATOM     28  O   UNL A   1     -25.143   3.966  28.243  0.00  0.00    -0.268 OA
ENDBRANCH  19  25
BRANCH  22  29
ATOM     29  O   UNL A   1     -28.193  -0.208  24.477  0.00  0.00    -0.456 OA
BRANCH  29  30
ATOM     30  C   UNL A   1     -29.460   0.005  23.866  0.00  0.00    +0.243 C 
BRANCH  30  31
ATOM     31  C   UNL A   1     -30.065  -1.377  23.573  0.00  0.00    +0.229 C 
ATOM     32  O   UNL A   1     -30.729  -1.878  24.721  0.00  0.00    -0.216 OA
ENDBRANCH  30  31
ENDBRANCH  29  30
ENDBRANCH  22  29
ENDBRANCH  12  18
ENDBRANCH   1  14
BRANCH   1  33
ATOM     33  C   UNL A   1     -24.855  -1.012  30.143  0.00  0.00    +0.076 C 
BRANCH  33  34
ATOM     34  C   UNL A   1     -24.973  -2.505  29.788  0.00  0.00    -0.018 C 
ATOM     35  C   UNL A   1     -23.906  -3.173  29.146  0.00  0.00    -0.004 C 
ATOM     36  C   UNL A   1     -23.989  -4.549  28.853  0.00  0.00    -0.000 C 
ATOM     37  C   UNL A   1     -25.137  -5.280  29.205  0.00  0.00    -0.000 C 
ATOM     38  C   UNL A   1     -26.232  -4.611  29.784  0.00  0.00    -0.000 C 
ATOM     39  C   UNL A   1     -26.155  -3.232  30.065  0.00  0.00    -0.004 C 
ENDBRANCH  33  34
BRANCH  33  40
ATOM     40  C   UNL A   1     -25.387  -0.679  31.571  0.00  0.00    +0.080 C 
ATOM     41  C   UNL A   1     -25.189   0.773  32.028  0.00  0.00    +0.019 C 
ATOM     42  C   UNL A   1     -25.336   0.684  33.544  0.00  0.00    +0.020 C 
ATOM     43  C   UNL A   1     -24.829  -0.715  33.905  0.00  0.00    +0.089 C 
ATOM     44  N   UNL A   1     -24.758  -1.481  32.646  0.00  0.00    -0.219 NA
ENDBRANCH  33  40
ENDBRANCH   1  33
TORSDOF 10
