MODEL 2918
MODEL 1
REMARK VINA RESULT:    -4.503      0.000      0.000
REMARK INTER + INTRA:          -4.503
REMARK INTER:                  -4.503
REMARK INTRA:                   0.000
REMARK UNBOUND:                 0.000
REMARK  Name = No_2918-gen_results/8p0m/2024-11-27-11-27-31/
REMARK  0 active torsions:
REMARK  status: ('A' for Active; 'I' for Inactive)
REMARK                            x       y       z     vdW  Elec       q    Type
REMARK                         _______ _______ _______ _____ _____    ______ ____
ROOT
ATOM      1  C   UNL A   1      -9.276  -9.260  20.163  0.00  0.00    +0.011 A 
ATOM      2  C   UNL A   1      -8.226  -9.791  19.882  0.00  0.00    +0.058 A 
ATOM      3 CL   UNL A   1      -6.939  -9.609  20.681  0.00  0.00    -0.082 Cl
ATOM      4  C   UNL A   1     -10.281  -9.210  19.176  0.00  0.00    +0.001 A 
ATOM      5  C   UNL A   1     -10.212 -10.068  18.102  0.00  0.00    +0.000 A 
ATOM      6  C   UNL A   1      -9.074 -10.792  17.859  0.00  0.00    +0.001 A 
ATOM      7  C   UNL A   1      -8.006 -10.674  18.770  0.00  0.00    +0.011 A 
ENDROOT
TORSDOF 0
ENDMDL
ENDMDL
