MODEL 2919
MODEL 1
REMARK VINA RESULT:    -7.067      0.000      0.000
REMARK INTER + INTRA:          -8.364
REMARK INTER:                  -7.894
REMARK INTRA:                  -0.470
REMARK UNBOUND:                -0.470
REMARK  Name = No_2919-gen_results/8p0m/2024-11-27-11-27-31/
REMARK  2 active torsions:
REMARK  status: ('A' for Active; 'I' for Inactive)
REMARK    1  A    between atoms: C_3  and  C_4
REMARK    2  A    between atoms: C_6  and  C_13
REMARK                            x       y       z     vdW  Elec       q    Type
REMARK                         _______ _______ _______ _____ _____    ______ ____
ROOT
ATOM      1  C   UNL A   1     -29.532 -10.901  30.307  0.00  0.00    +0.000 A 
ATOM      2  C   UNL A   1     -28.505 -11.559  30.966  0.00  0.00    +0.005 A 
ATOM      3  C   UNL A   1     -28.188 -11.393  32.373  0.00  0.00    +0.057 A 
ATOM      4  C   UNL A   1     -28.834 -10.286  33.047  0.00  0.00    +0.005 A 
ATOM      5  C   UNL A   1     -29.804  -9.550  32.315  0.00  0.00    +0.000 A 
ATOM      6  C   UNL A   1     -30.120  -9.833  31.007  0.00  0.00    +0.000 A 
ENDROOT
BRANCH   1   9
ATOM      7  C   UNL A   1     -29.177 -12.408  28.266  0.00  0.00    +0.000 A 
ATOM      8  C   UNL A   1     -28.932 -12.220  27.258  0.00  0.00    +0.000 A 
ATOM      9  C   UNL A   1     -29.860 -11.270  28.992  0.00  0.00    +0.000 A 
ATOM     10  C   UNL A   1     -29.765 -11.512  26.231  0.00  0.00    +0.000 A 
ATOM     11  C   UNL A   1     -30.591 -10.549  26.848  0.00  0.00    +0.000 A 
ATOM     12  C   UNL A   1     -30.637 -10.377  28.174  0.00  0.00    +0.000 A 
ENDBRANCH   1   9
BRANCH   3  13
ATOM     13  C   UNL A   1     -27.273 -12.264  33.072  0.00  0.00    +0.284 C 
ATOM     14  N   UNL A   1     -27.303 -12.306  34.377  0.00  0.00    -0.084 NA
ATOM     15  O   UNL A   1     -26.439 -12.985  32.420  0.00  0.00    -0.267 OA
ENDBRANCH   3  13
TORSDOF 2
ENDMDL
ENDMDL
