REMARK  Name = No_2919-gen_results/8p0m/2024-11-27-11-27-31/
REMARK  2 active torsions:
REMARK  status: ('A' for Active; 'I' for Inactive)
REMARK    1  A    between atoms: C_3  and  C_4
REMARK    2  A    between atoms: C_6  and  C_13
REMARK                            x       y       z     vdW  Elec       q    Type
REMARK                         _______ _______ _______ _____ _____    ______ ____
ROOT
ATOM      1  C   UNL A   1     -25.762  -0.002  27.971  0.00  0.00    +0.000 A 
ATOM      2  C   UNL A   1     -24.391   0.120  28.138  0.00  0.00    +0.005 A 
ATOM      3  C   UNL A   1     -23.545   1.026  27.382  0.00  0.00    +0.057 A 
ATOM      4  C   UNL A   1     -24.150   1.645  26.220  0.00  0.00    +0.005 A 
ATOM      5  C   UNL A   1     -25.535   1.413  26.002  0.00  0.00    +0.000 A 
ATOM      6  C   UNL A   1     -26.293   0.615  26.825  0.00  0.00    +0.000 A 
ENDROOT
BRANCH   1   9
ATOM      7  C   UNL A   1     -28.016  -0.814  28.878  0.00  0.00    +0.000 A 
ATOM      8  C   UNL A   1     -28.469  -0.785  29.829  0.00  0.00    +0.000 A 
ATOM      9  C   UNL A   1     -26.504  -0.778  28.877  0.00  0.00    +0.000 A 
ATOM     10  C   UNL A   1     -28.036  -1.506  31.071  0.00  0.00    +0.000 A 
ATOM     11  C   UNL A   1     -26.637  -1.693  31.067  0.00  0.00    +0.000 A 
ATOM     12  C   UNL A   1     -25.860  -1.322  30.043  0.00  0.00    +0.000 A 
ENDBRANCH   1   9
BRANCH   3  13
ATOM     13  C   UNL A   1     -22.174   1.295  27.744  0.00  0.00    +0.284 C 
ATOM     14  N   UNL A   1     -21.523   0.427  28.471  0.00  0.00    -0.084 NA
ATOM     15  O   UNL A   1     -21.602   2.374  27.359  0.00  0.00    -0.267 OA
ENDBRANCH   3  13
TORSDOF 2
