MODEL 291
MODEL 1
REMARK VINA RESULT:    -5.016      0.000      0.000
REMARK INTER + INTRA:          -5.016
REMARK INTER:                  -5.016
REMARK INTRA:                   0.000
REMARK UNBOUND:                 0.000
REMARK  Name = No_291-gen_results/8p0m/2024-11-27-11-27-31/
REMARK  0 active torsions:
REMARK  status: ('A' for Active; 'I' for Inactive)
REMARK                            x       y       z     vdW  Elec       q    Type
REMARK                         _______ _______ _______ _____ _____    ______ ____
ROOT
ATOM      1  C   UNL A   1     -10.358  -9.302  19.075  0.00  0.00    +0.042 A 
ATOM      2  C   UNL A   1      -9.534  -9.166  19.949  0.00  0.00    +0.003 A 
ATOM      3  C   UNL A   1      -8.307  -9.817  19.886  0.00  0.00    +0.000 A 
ATOM      4  C   UNL A   1      -7.997 -10.712  18.801  0.00  0.00    +0.003 A 
ATOM      5  C   UNL A   1      -9.016 -10.829  17.847  0.00  0.00    +0.042 A 
ATOM      6  C   UNL A   1     -10.166 -10.204  17.961  0.00  0.00    +0.196 A 
ATOM      7  O   UNL A   1     -11.118 -10.403  17.009  0.00  0.00    -0.287 OA
ENDROOT
TORSDOF 0
ENDMDL
ENDMDL
