REMARK  Name = No_292-gen_results/8p0m/2024-11-27-11-27-31/
REMARK  4 active torsions:
REMARK  status: ('A' for Active; 'I' for Inactive)
REMARK    1  A    between atoms: C_3  and  C_8
REMARK    2  A    between atoms: C_6  and  O_7
REMARK    3  A    between atoms: O_7  and  C_14
REMARK    4  A    between atoms: C_14  and  C_15
REMARK                            x       y       z     vdW  Elec       q    Type
REMARK                         _______ _______ _______ _____ _____    ______ ____
ROOT
ATOM      1  C   UNL A   1     -28.016  -0.814  28.878  0.00  0.00    +0.037 A 
ATOM      2  C   UNL A   1     -27.064  -0.119  28.608  0.00  0.00    +0.003 A 
ATOM      3  C   UNL A   1     -25.792  -0.430  29.076  0.00  0.00    +0.000 A 
ATOM      4  C   UNL A   1     -25.576  -1.565  29.936  0.00  0.00    +0.003 A 
ATOM      5  C   UNL A   1     -26.735  -2.300  30.217  0.00  0.00    +0.037 A 
ATOM      6  C   UNL A   1     -27.918  -1.954  29.763  0.00  0.00    +0.139 A 
ENDROOT
BRANCH   3   7
ATOM      7  C   UNL A   1     -24.529   0.349  28.800  0.00  0.00    +0.000 A 
ATOM      8  C   UNL A   1     -24.481   1.211  27.800  0.00  0.00    +0.000 A 
ATOM      9  C   UNL A   1     -23.276   1.818  27.421  0.00  0.00    +0.000 A 
ATOM     10  C   UNL A   1     -22.049   1.525  28.113  0.00  0.00    +0.000 A 
ATOM     11  C   UNL A   1     -23.297  -0.016  29.436  0.00  0.00    +0.000 A 
ATOM     12  C   UNL A   1     -22.077   0.651  29.104  0.00  0.00    +0.000 A 
ENDBRANCH   3   7
BRANCH   6  13
ATOM     13  O   UNL A   1     -29.000  -2.701  30.115  0.00  0.00    -0.471 OA
BRANCH  13  14
ATOM     14  C   UNL A   1     -28.888  -3.969  30.589  0.00  0.00    +0.232 C 
BRANCH  14  15
ATOM     15  C   UNL A   1     -30.092  -4.542  31.077  0.00  0.00    +0.016 C 
ATOM     16  C   UNL A   1     -30.857  -3.981  31.567  0.00  0.00    -0.027 C 
ATOM     17  C   UNL A   1     -30.729  -2.572  31.779  0.00  0.00    +0.030 C 
ENDBRANCH  14  15
ENDBRANCH  13  14
ENDBRANCH   6  13
TORSDOF 4
