MODEL 2920
MODEL 1
REMARK VINA RESULT:    -6.793      0.000      0.000
REMARK INTER + INTRA:          -8.272
REMARK INTER:                  -7.587
REMARK INTRA:                  -0.685
REMARK UNBOUND:                -0.685
REMARK  Name = No_2920-gen_results/8p0m/2024-11-27-11-27-31/
REMARK  2 active torsions:
REMARK  status: ('A' for Active; 'I' for Inactive)
REMARK    1  A    between atoms: C_3  and  C_4
REMARK    2  A    between atoms: C_4  and  C_8
REMARK                            x       y       z     vdW  Elec       q    Type
REMARK                         _______ _______ _______ _____ _____    ______ ____
ROOT
ATOM      1  C   UNL A   1     -24.988  -1.178  29.498  0.00  0.00    +0.052 C 
ENDROOT
BRANCH   1   2
ATOM      2  C   UNL A   1     -24.405  -0.375  28.411  0.00  0.00    -0.022 A 
ATOM      3  C   UNL A   1     -23.192   0.200  28.637  0.00  0.00    -0.025 A 
ATOM      4  C   UNL A   1     -25.034  -0.152  27.196  0.00  0.00    -0.004 A 
ATOM      5  C   UNL A   1     -24.467   0.703  26.259  0.00  0.00    -0.000 A 
ATOM      6  C   UNL A   1     -22.453  -0.029  29.863  0.00  0.00    +0.031 C 
ATOM      7  C   UNL A   1     -23.257   1.341  26.554  0.00  0.00    -0.000 A 
ATOM      8  C   UNL A   1     -22.609   1.076  27.730  0.00  0.00    -0.005 A 
ENDBRANCH   1   2
BRANCH   1  11
ATOM      9  C   UNL A   1     -23.839  -3.402  28.722  0.00  0.00    -0.004 A 
ATOM     10  C   UNL A   1     -24.021  -4.430  28.572  0.00  0.00    -0.000 A 
ATOM     11  C   UNL A   1     -24.931  -2.621  29.325  0.00  0.00    -0.018 A 
ATOM     12  C   UNL A   1     -25.113  -5.314  29.044  0.00  0.00    -0.000 A 
ATOM     13  C   UNL A   1     -26.183  -4.651  29.632  0.00  0.00    -0.000 A 
ATOM     14  C   UNL A   1     -26.139  -3.286  29.826  0.00  0.00    -0.004 A 
ENDBRANCH   1  11
TORSDOF 2
ENDMDL
ENDMDL
