MODEL 2921
MODEL 1
REMARK VINA RESULT:    -5.997      0.000      0.000
REMARK INTER + INTRA:          -7.633
REMARK INTER:                  -7.048
REMARK INTRA:                  -0.585
REMARK UNBOUND:                -0.585
REMARK  Name = No_2921-gen_results/8p0m/2024-11-27-11-27-31/
REMARK  3 active torsions:
REMARK  status: ('A' for Active; 'I' for Inactive)
REMARK    1  A    between atoms: C_3  and  C_7
REMARK    2  A    between atoms: C_7  and  C_9
REMARK    3  A    between atoms: C_9  and  C_10
REMARK                            x       y       z     vdW  Elec       q    Type
REMARK                         _______ _______ _______ _____ _____    ______ ____
ROOT
ATOM      1  C   UNL A   1     -23.657   0.430  27.924  0.00  0.00    -0.004 A 
ATOM      2  C   UNL A   1     -23.053   1.172  27.483  0.00  0.00    -0.000 A 
ATOM      3  C   UNL A   1     -23.022  -0.552  28.717  0.00  0.00    -0.022 A 
ATOM      4  C   UNL A   1     -21.655  -0.563  28.910  0.00  0.00    -0.004 A 
ATOM      5  C   UNL A   1     -21.594   1.388  27.532  0.00  0.00    -0.000 A 
ATOM      6  C   UNL A   1     -20.946   0.469  28.281  0.00  0.00    -0.000 A 
ENDROOT
BRANCH   3   7
ATOM      7  C   UNL A   1     -23.771  -1.641  29.429  0.00  0.00    +0.027 C 
ATOM      8  C   UNL A   1     -23.723  -1.549  30.792  0.00  0.00    +0.005 C 
BRANCH   7   9
ATOM      9  C   UNL A   1     -24.449  -2.644  28.775  0.00  0.00    +0.030 C 
BRANCH   9  10
ATOM     10  C   UNL A   1     -24.008  -3.925  28.722  0.00  0.00    -0.030 C 
ATOM     11  C   UNL A   1     -24.901  -4.921  29.158  0.00  0.00    -0.030 C 
ATOM     12  C   UNL A   1     -26.139  -4.550  29.616  0.00  0.00    +0.030 C 
ENDBRANCH   9  10
ENDBRANCH   7   9
ENDBRANCH   3   7
TORSDOF 3
ENDMDL
ENDMDL
