MODEL 2922
MODEL 1
REMARK VINA RESULT:    -6.797      0.000      0.000
REMARK INTER + INTRA:          -8.220
REMARK INTER:                  -7.592
REMARK INTRA:                  -0.628
REMARK UNBOUND:                -0.628
REMARK  Name = No_2922-gen_results/8p0m/2024-11-27-11-27-31/
REMARK  2 active torsions:
REMARK  status: ('A' for Active; 'I' for Inactive)
REMARK    1  A    between atoms: C_3  and  C_7
REMARK    2  A    between atoms: C_7  and  C_8
REMARK                            x       y       z     vdW  Elec       q    Type
REMARK                         _______ _______ _______ _____ _____    ______ ____
ROOT
ATOM      1  C   UNL A   1     -23.406  -1.451  29.635  0.00  0.00    +0.045 C 
ATOM      2  C   UNL A   1     -23.421  -0.989  31.006  0.00  0.00    +0.009 C 
ENDROOT
BRANCH   1   5
ATOM      3  C   UNL A   1     -24.481  -0.296  27.616  0.00  0.00    -0.004 A 
ATOM      4  C   UNL A   1     -24.428   0.484  26.909  0.00  0.00    -0.000 A 
ATOM      5  C   UNL A   1     -23.432  -0.408  28.555  0.00  0.00    -0.018 A 
ATOM      6  C   UNL A   1     -22.357   0.458  28.555  0.00  0.00    -0.004 A 
ATOM      7  C   UNL A   1     -23.409   1.531  26.697  0.00  0.00    -0.000 A 
ATOM      8  C   UNL A   1     -22.385   1.459  27.575  0.00  0.00    -0.000 A 
ENDBRANCH   1   5
BRANCH   1   9
ATOM      9  C   UNL A   1     -24.246  -2.505  29.410  0.00  0.00    -0.018 A 
ATOM     10  C   UNL A   1     -23.879  -3.714  28.859  0.00  0.00    -0.004 A 
ATOM     11  C   UNL A   1     -24.749  -4.856  28.836  0.00  0.00    -0.000 A 
ATOM     12  C   UNL A   1     -26.012  -4.715  29.498  0.00  0.00    -0.000 A 
ATOM     13  C   UNL A   1     -26.458  -3.482  29.981  0.00  0.00    -0.000 A 
ATOM     14  C   UNL A   1     -25.596  -2.423  30.010  0.00  0.00    -0.004 A 
ENDBRANCH   1   9
TORSDOF 2
ENDMDL
ENDMDL
