REMARK  Name = outputs/IAG933/test6/raw/output_2922_IAG933_linker_design_.xyz
REMARK  8 active torsions:
REMARK  status: ('A' for Active; 'I' for Inactive)
REMARK    1  A    between atoms: C_1  and  C_2
REMARK    2  A    between atoms: C_1  and  C_8
REMARK    3  A    between atoms: C_1  and  O_28
REMARK    4  A    between atoms: C_21  and  O_22
REMARK    5  A    between atoms: O_22  and  C_23
REMARK    6  A    between atoms: C_23  and  C_24
REMARK    7  A    between atoms: O_28  and  C_29
REMARK    8  A    between atoms: C_32  and  C_45
REMARK                            x       y       z     vdW  Elec       q    Type
REMARK                         _______ _______ _______ _____ _____    ______ ____
ROOT
ATOM      1  C   UNL A   1     -25.688   1.614  26.461  0.00  0.00    +0.092 C 
ATOM      2  C   UNL A   1     -26.250   2.920  26.395  0.00  0.00    +0.057 C 
ATOM      3  C   UNL A   1     -25.642   4.093  27.123  0.00  0.00    +0.219 C 
ATOM      4  N   UNL A   1     -25.614   5.252  26.449  0.00  0.00    -0.236 NA
ATOM      5  C   UNL A   1     -25.026   6.479  26.963  0.00  0.00    +0.155 C 
ATOM      6  O   UNL A   1     -25.143   3.966  28.243  0.00  0.00    -0.452 OA
ATOM      7  C   UNL A   1     -27.438   3.091  25.645  0.00  0.00    +0.102 C 
ATOM      8  N   UNL A   1     -28.075   2.089  25.003  0.00  0.00    -0.212 NA
ATOM      9  C   UNL A   1     -27.543   0.849  25.079  0.00  0.00    +0.234 C 
ATOM     10  C   UNL A   1     -26.354   0.576  25.777  0.00  0.00    +0.244 C 
ATOM     11  F   UNL A   1     -25.860  -0.681  25.795  0.00  0.00    -0.227 F 
ATOM     12  C   UNL A   1     -24.569   1.259  29.164  0.00  0.00    +0.190 C 
ATOM     13  C   UNL A   1     -21.400   1.250  27.275  0.00  0.00    +0.042 C 
ATOM     14  C   UNL A   1     -23.266   1.767  25.828  0.00  0.00    -0.004 C 
ATOM     15  O   UNL A   1     -21.940   0.453  29.531  0.00  0.00    -0.287 OA
ATOM     16  C   UNL A   1     -21.895   1.698  26.033  0.00  0.00    +0.003 C 
ATOM     17  C   UNL A   1     -23.690   1.210  28.090  0.00  0.00    +0.044 C 
ATOM     18  C   UNL A   1     -22.321   0.955  28.287  0.00  0.00    +0.194 C 
ATOM     19  C   UNL A   1     -24.216   1.511  26.856  0.00  0.00    -0.013 C 
ATOM     20  C   UNL A   1     -24.827   3.109  29.436  0.00  0.00    +0.274 C 
ENDROOT
BRANCH  20  22
ATOM     21  C   UNL A   1     -28.677   6.048  29.782  0.00  0.00    +0.022 C 
ATOM     22  C   UNL A   1     -25.762   3.736  30.523  0.00  0.00    +0.269 C 
ATOM     23  C   UNL A   1     -28.208   3.443  29.888  0.00  0.00    +0.093 C 
ATOM     24  C   UNL A   1     -29.011   3.894  28.648  0.00  0.00    +0.022 C 
ATOM     25  C   UNL A   1     -28.859   5.413  28.410  0.00  0.00    +0.004 C 
ATOM     26  N   UNL A   1     -26.974   4.194  30.246  0.00  0.00    -0.277 N 
ATOM     27  C   UNL A   1     -27.288   5.644  30.293  0.00  0.00    +0.093 C 
ATOM     28  O   UNL A   1     -25.318   3.783  31.681  0.00  0.00    -0.271 OA
ENDBRANCH  20  22
BRANCH   9  29
ATOM     29  O   UNL A   1     -28.193  -0.208  24.477  0.00  0.00    -0.459 OA
BRANCH  29  30
ATOM     30  C   UNL A   1     -29.460   0.005  23.866  0.00  0.00    +0.242 C 
BRANCH  30  31
ATOM     31  C   UNL A   1     -30.065  -1.377  23.573  0.00  0.00    +0.229 C 
ATOM     32  O   UNL A   1     -30.729  -1.878  24.721  0.00  0.00    -0.216 OA
ENDBRANCH  30  31
ENDBRANCH  29  30
ENDBRANCH   9  29
BRANCH  12  33
ATOM     33  O   UNL A   1     -24.988  -0.147  29.002  0.00  0.00    -0.344 OA
BRANCH  33  34
ATOM     34  C   UNL A   1     -24.855  -1.012  30.143  0.00  0.00    +0.154 C 
BRANCH  34  35
ATOM     35  C   UNL A   1     -24.973  -2.505  29.788  0.00  0.00    +0.006 C 
ATOM     36  C   UNL A   1     -23.906  -3.173  29.146  0.00  0.00    -0.002 C 
ATOM     37  C   UNL A   1     -23.989  -4.549  28.853  0.00  0.00    -0.000 C 
ATOM     38  C   UNL A   1     -25.137  -5.280  29.205  0.00  0.00    -0.000 C 
ATOM     39  C   UNL A   1     -26.232  -4.611  29.784  0.00  0.00    -0.000 C 
ATOM     40  C   UNL A   1     -26.155  -3.232  30.065  0.00  0.00    -0.002 C 
ENDBRANCH  34  35
BRANCH  34  41
ATOM     41  C   UNL A   1     -25.387  -0.679  31.571  0.00  0.00    +0.104 C 
ATOM     42  C   UNL A   1     -25.189   0.773  32.028  0.00  0.00    +0.022 C 
ATOM     43  C   UNL A   1     -25.336   0.684  33.544  0.00  0.00    +0.020 C 
ATOM     44  C   UNL A   1     -24.829  -0.715  33.905  0.00  0.00    +0.089 C 
ATOM     45  N   UNL A   1     -24.758  -1.481  32.646  0.00  0.00    -0.217 NA
ENDBRANCH  34  41
ENDBRANCH  33  34
ENDBRANCH  12  33
TORSDOF 8
