MODEL 2923
MODEL 1
REMARK VINA RESULT:    -5.368      0.000      0.000
REMARK INTER + INTRA:          -5.714
REMARK INTER:                  -5.681
REMARK INTRA:                  -0.032
REMARK UNBOUND:                -0.032
REMARK  Name = No_2923-gen_results/8p0m/2024-11-27-11-27-31/
REMARK  1 active torsions:
REMARK  status: ('A' for Active; 'I' for Inactive)
REMARK    1  A    between atoms: C_5  and  C_11
REMARK                            x       y       z     vdW  Elec       q    Type
REMARK                         _______ _______ _______ _____ _____    ______ ____
ROOT
ATOM      1  C   UNL A   1     -30.740  -9.766  29.593  0.00  0.00    +0.021 A 
ATOM      2  C   UNL A   1     -30.015 -10.317  30.388  0.00  0.00    +0.003 A 
ATOM      3  C   UNL A   1     -29.065 -11.274  30.033  0.00  0.00    +0.019 A 
ATOM      4  C   UNL A   1     -28.151 -12.002  30.934  0.00  0.00    +0.003 A 
ATOM      5  C   UNL A   1     -28.101 -11.530  32.281  0.00  0.00    +0.021 A 
ATOM      6  C   UNL A   1     -29.009 -10.500  32.632  0.00  0.00    +0.002 A 
ATOM      7  C   UNL A   1     -29.870  -9.941  31.780  0.00  0.00    +0.000 A 
ATOM      8  C   UNL A   1     -31.085 -10.493  28.318  0.00  0.00    +0.099 A 
ATOM      9  N   UNL A   1     -30.089 -11.317  27.827  0.00  0.00    -0.242 NA
ATOM     10  C   UNL A   1     -29.158 -11.888  28.679  0.00  0.00    +0.099 A 
ENDROOT
BRANCH   5  11
ATOM     11  C   UNL A   1     -27.142 -12.174  33.201  0.00  0.00    +0.122 C 
ATOM     12  N   UNL A   1     -27.426 -12.338  34.450  0.00  0.00    -0.146 NA
ENDBRANCH   5  11
TORSDOF 1
ENDMDL
ENDMDL
