REMARK  Name = No_2924-gen_results/8p0m/2024-11-27-11-27-31/
REMARK  7 active torsions:
REMARK  status: ('A' for Active; 'I' for Inactive)
REMARK    1  A    between atoms: C_10  and  C_11
REMARK    2  A    between atoms: C_11  and  O_13
REMARK    3  A    between atoms: O_13  and  C_14
REMARK    4  A    between atoms: C_14  and  C_15
REMARK    5  A    between atoms: C_15  and  O_16
REMARK    6  A    between atoms: C_15  and  C_18
REMARK    7  A    between atoms: C_19  and  C_20
REMARK                            x       y       z     vdW  Elec       q    Type
REMARK                         _______ _______ _______ _____ _____    ______ ____
ROOT
ATOM      1  C   UNL A   1     -25.833   3.559  30.016  0.00  0.00    +0.341 C 
ATOM      2  O   UNL A   1     -25.141   3.363  30.985  0.00  0.00    -0.245 OA
ENDROOT
BRANCH   1  12
ATOM      3  C   UNL A   1     -28.016  -0.814  28.878  0.00  0.00    +0.000 A 
ATOM      4  C   UNL A   1     -28.469  -0.785  29.829  0.00  0.00    +0.000 A 
ATOM      5  C   UNL A   1     -27.136   0.236  28.535  0.00  0.00    +0.000 A 
ATOM      6  C   UNL A   1     -26.875   1.282  29.398  0.00  0.00    +0.006 A 
ATOM      7  C   UNL A   1     -27.507   1.238  30.630  0.00  0.00    +0.000 A 
ATOM      8  C   UNL A   1     -28.329   0.174  30.935  0.00  0.00    +0.000 A 
ATOM      9  C   UNL A   1     -26.408   0.307  27.226  0.00  0.00    +0.000 A 
ATOM     10  C   UNL A   1     -25.713   1.490  26.921  0.00  0.00    +0.000 A 
ATOM     11  C   UNL A   1     -25.430   2.454  27.866  0.00  0.00    +0.006 A 
ATOM     12  C   UNL A   1     -26.092   2.416  29.092  0.00  0.00    +0.076 A 
ENDBRANCH   1  12
BRANCH   1  13
ATOM     13  O   UNL A   1     -26.603   4.580  29.905  0.00  0.00    -0.442 OA
BRANCH  13  14
ATOM     14  C   UNL A   1     -26.412   5.622  30.702  0.00  0.00    +0.242 C 
BRANCH  14  15
ATOM     15  C   UNL A   1     -25.969   6.855  30.128  0.00  0.00    +0.181 C 
BRANCH  15  16
ATOM     16  O   UNL A   1     -25.691   6.766  28.959  0.00  0.00    -0.345 OA
ATOM     17  C   UNL A   1     -25.692   5.989  28.180  0.00  0.00    +0.175 C 
ENDBRANCH  15  16
BRANCH  15  18
ATOM     18  C   UNL A   1     -26.266   7.838  30.555  0.00  0.00    +0.007 C 
ATOM     19  C   UNL A   1     -27.073   8.214  31.638  0.00  0.00    -0.002 C 
BRANCH  19  20
ATOM     20  C   UNL A   1     -27.289   9.481  32.218  0.00  0.00    -0.005 C 
ATOM     21  C   UNL A   1     -26.653  10.549  31.550  0.00  0.00    -0.026 C 
ATOM     22  C   UNL A   1     -25.793  10.367  30.487  0.00  0.00    +0.031 C 
ENDBRANCH  19  20
ENDBRANCH  15  18
ENDBRANCH  14  15
ENDBRANCH  13  14
ENDBRANCH   1  13
TORSDOF 7
