MODEL 2924
MODEL 1
REMARK VINA RESULT:    -5.262      0.000      0.000
REMARK INTER + INTRA:          -9.917
REMARK INTER:                  -7.415
REMARK INTRA:                  -2.502
REMARK UNBOUND:                -2.502
REMARK  Name = No_2924-gen_results/8p0m/2024-11-27-11-27-31/
REMARK  7 active torsions:
REMARK  status: ('A' for Active; 'I' for Inactive)
REMARK    1  A    between atoms: C_10  and  C_11
REMARK    2  A    between atoms: C_11  and  O_13
REMARK    3  A    between atoms: O_13  and  C_14
REMARK    4  A    between atoms: C_14  and  C_15
REMARK    5  A    between atoms: C_15  and  O_16
REMARK    6  A    between atoms: C_15  and  C_18
REMARK    7  A    between atoms: C_19  and  C_20
REMARK                            x       y       z     vdW  Elec       q    Type
REMARK                         _______ _______ _______ _____ _____    ______ ____
ROOT
ATOM      1  C   UNL A   1      -6.743  -0.445   9.955  0.00  0.00    +0.341 C 
ATOM      2  O   UNL A   1      -7.180  -1.557  10.126  0.00  0.00    -0.245 OA
ENDROOT
BRANCH   1  12
ATOM      3  C   UNL A   1     -10.322   2.820  11.266  0.00  0.00    +0.000 A 
ATOM      4  C   UNL A   1     -10.255   2.433  12.244  0.00  0.00    +0.000 A 
ATOM      5  C   UNL A   1      -9.504   2.241  10.271  0.00  0.00    +0.000 A 
ATOM      6  C   UNL A   1      -8.629   1.211  10.553  0.00  0.00    +0.006 A 
ATOM      7  C   UNL A   1      -8.609   0.758  11.863  0.00  0.00    +0.000 A 
ATOM      8  C   UNL A   1      -9.453   1.329  12.792  0.00  0.00    +0.000 A 
ATOM      9  C   UNL A   1      -9.515   2.679   8.837  0.00  0.00    +0.000 A 
ATOM     10  C   UNL A   1      -8.525   2.164   7.983  0.00  0.00    +0.000 A 
ATOM     11  C   UNL A   1      -7.741   1.080   8.316  0.00  0.00    +0.006 A 
ATOM     12  C   UNL A   1      -7.708   0.650   9.642  0.00  0.00    +0.076 A 
ENDBRANCH   1  12
BRANCH   1  13
ATOM     13  O   UNL A   1      -5.569  -0.092  10.333  0.00  0.00    -0.442 OA
BRANCH  13  14
ATOM     14  C   UNL A   1      -5.099  -0.545  11.487  0.00  0.00    +0.242 C 
BRANCH  14  15
ATOM     15  C   UNL A   1      -4.632   0.397  12.457  0.00  0.00    +0.181 C 
BRANCH  15  16
ATOM     16  O   UNL A   1      -3.431   0.478  12.508  0.00  0.00    -0.345 OA
ATOM     17  C   UNL A   1      -2.570   0.178  11.892  0.00  0.00    +0.175 C 
ENDBRANCH  15  16
BRANCH  15  18
ATOM     18  C   UNL A   1      -5.261   1.253  12.790  0.00  0.00    +0.007 C 
ATOM     19  C   UNL A   1      -5.421   2.567  12.329  0.00  0.00    -0.002 C 
BRANCH  19  20
ATOM     20  C   UNL A   1      -6.349   3.559  12.707  0.00  0.00    -0.005 C 
ATOM     21  C   UNL A   1      -6.843   4.339  11.639  0.00  0.00    -0.026 C 
ATOM     22  C   UNL A   1      -6.376   4.227  10.346  0.00  0.00    +0.031 C 
ENDBRANCH  19  20
ENDBRANCH  15  18
ENDBRANCH  14  15
ENDBRANCH  13  14
ENDBRANCH   1  13
TORSDOF 7
ENDMDL
ENDMDL
