REMARK  Name = No_2925-gen_results/8p0m/2024-11-27-11-27-31/
REMARK  2 active torsions:
REMARK  status: ('A' for Active; 'I' for Inactive)
REMARK    1  A    between atoms: C_3  and  C_11
REMARK    2  A    between atoms: C_5  and  C_6
REMARK                            x       y       z     vdW  Elec       q    Type
REMARK                         _______ _______ _______ _____ _____    ______ ____
ROOT
ATOM      1  C   UNL A   1     -28.016  -0.814  28.878  0.00  0.00    +0.058 A 
ATOM      2  C   UNL A   1     -27.064  -0.119  28.608  0.00  0.00    +0.007 A 
ATOM      3  C   UNL A   1     -27.001   0.691  27.491  0.00  0.00    -0.022 A 
ATOM      4  C   UNL A   1     -28.137   0.736  26.635  0.00  0.00    +0.002 A 
ATOM      5  C   UNL A   1     -29.236   0.076  27.069  0.00  0.00    +0.080 A 
ATOM      6  C   UNL A   1     -29.180  -0.642  28.183  0.00  0.00    +0.018 A 
ATOM      7 CL   UNL A   1     -28.000  -1.782  30.359  0.00  0.00    -0.082 Cl
ENDROOT
BRANCH   3   8
ATOM      8  C   UNL A   1     -25.863   1.519  26.986  0.00  0.00    +0.019 C 
ATOM      9  C   UNL A   1     -24.629   1.261  27.568  0.00  0.00    +0.004 C 
ATOM     10  C   UNL A   1     -23.985   2.033  28.408  0.00  0.00    +0.000 C 
ATOM     11  C   UNL A   1     -24.531   3.147  28.886  0.00  0.00    +0.000 C 
ATOM     12  C   UNL A   1     -25.497   3.827  28.098  0.00  0.00    +0.000 C 
ATOM     13  C   UNL A   1     -26.148   3.166  27.430  0.00  0.00    +0.004 C 
ATOM     14  C   UNL A   1     -25.720   1.419  25.509  0.00  0.00    +0.004 C 
ENDBRANCH   3   8
BRANCH   5  15
ATOM     15  C   UNL A   1     -30.381   0.205  26.266  0.00  0.00    +0.388 C 
ATOM     16  O   UNL A   1     -31.319  -0.384  26.550  0.00  0.00    -0.241 OA
ATOM     17  O   UNL A   1     -30.241   0.585  24.968  0.00  0.00    -0.241 OA
ENDBRANCH   5  15
TORSDOF 2
