MODEL 2925
MODEL 1
REMARK VINA RESULT:    -6.761      0.000      0.000
REMARK INTER + INTRA:          -7.927
REMARK INTER:                  -7.552
REMARK INTRA:                  -0.375
REMARK UNBOUND:                -0.375
REMARK  Name = No_2925-gen_results/8p0m/2024-11-27-11-27-31/
REMARK  2 active torsions:
REMARK  status: ('A' for Active; 'I' for Inactive)
REMARK    1  A    between atoms: C_3  and  C_11
REMARK    2  A    between atoms: C_5  and  C_6
REMARK                            x       y       z     vdW  Elec       q    Type
REMARK                         _______ _______ _______ _____ _____    ______ ____
ROOT
ATOM      1  C   UNL A   1     -25.255  -0.387  26.346  0.00  0.00    +0.058 A 
ATOM      2  C   UNL A   1     -25.361  -1.176  27.256  0.00  0.00    +0.007 A 
ATOM      3  C   UNL A   1     -24.547  -1.170  28.372  0.00  0.00    -0.022 A 
ATOM      4  C   UNL A   1     -23.556  -0.154  28.469  0.00  0.00    +0.002 A 
ATOM      5  C   UNL A   1     -23.589   0.803  27.512  0.00  0.00    +0.080 A 
ATOM      6  C   UNL A   1     -24.447   0.703  26.505  0.00  0.00    +0.018 A 
ATOM      7 CL   UNL A   1     -26.382  -0.466  24.984  0.00  0.00    -0.082 Cl
ENDROOT
BRANCH   3   8
ATOM      8  C   UNL A   1     -24.501  -2.134  29.514  0.00  0.00    +0.019 C 
ATOM      9  C   UNL A   1     -23.994  -3.392  29.218  0.00  0.00    +0.004 C 
ATOM     10  C   UNL A   1     -24.674  -4.508  29.133  0.00  0.00    +0.000 C 
ATOM     11  C   UNL A   1     -26.000  -4.523  29.227  0.00  0.00    +0.000 C 
ATOM     12  C   UNL A   1     -26.642  -3.509  29.986  0.00  0.00    +0.000 C 
ATOM     13  C   UNL A   1     -26.125  -2.490  29.993  0.00  0.00    +0.004 C 
ATOM     14  C   UNL A   1     -23.750  -1.581  30.673  0.00  0.00    +0.004 C 
ENDBRANCH   3   8
BRANCH   5  15
ATOM     15  C   UNL A   1     -22.670   1.853  27.669  0.00  0.00    +0.388 C 
ATOM     16  O   UNL A   1     -23.069   2.919  27.783  0.00  0.00    -0.241 OA
ATOM     17  O   UNL A   1     -21.401   1.699  27.204  0.00  0.00    -0.241 OA
ENDBRANCH   5  15
TORSDOF 2
ENDMDL
ENDMDL
