MODEL 2927
MODEL 1
REMARK VINA RESULT:    -6.833      0.000      0.000
REMARK INTER + INTRA:          -8.244
REMARK INTER:                  -7.632
REMARK INTRA:                  -0.611
REMARK UNBOUND:                -0.611
REMARK  Name = No_2927-gen_results/8p0m/2024-11-27-11-27-31/
REMARK  2 active torsions:
REMARK  status: ('A' for Active; 'I' for Inactive)
REMARK    1  A    between atoms: C_3  and  C_15
REMARK    2  A    between atoms: C_6  and  C_8
REMARK                            x       y       z     vdW  Elec       q    Type
REMARK                         _______ _______ _______ _____ _____    ______ ____
ROOT
ATOM      1  C   UNL A   1     -27.350  -0.105  24.279  0.00  0.00    +0.027 A 
ATOM      2  C   UNL A   1     -26.238  -0.039  24.748  0.00  0.00    +0.140 A 
ATOM      3  C   UNL A   1     -25.820   1.085  25.452  0.00  0.00    +0.028 A 
ATOM      4  C   UNL A   1     -26.685   2.226  25.606  0.00  0.00    +0.002 A 
ATOM      5  C   UNL A   1     -27.945   2.074  25.012  0.00  0.00    -0.003 A 
ATOM      6  C   UNL A   1     -28.285   0.997  24.342  0.00  0.00    -0.005 A 
ATOM      7  F   UNL A   1     -25.318  -0.997  24.625  0.00  0.00    -0.204 F 
ENDROOT
BRANCH   6   8
ATOM      8  C   UNL A   1     -29.638   0.998  23.723  0.00  0.00    +0.081 C 
ATOM      9  N   UNL A   1     -30.721   0.709  24.406  0.00  0.00    -0.263 NA
ATOM     10  C   UNL A   1     -29.874   2.345  23.030  0.00  0.00    +0.028 C 
ATOM     11  C   UNL A   1     -32.008   1.008  24.137  0.00  0.00    +0.138 C 
ATOM     12  C   UNL A   1     -31.166   2.545  22.458  0.00  0.00    +0.068 C 
ATOM     13  C   UNL A   1     -32.274   2.145  23.394  0.00  0.00    +0.167 C 
ATOM     14  O   UNL A   1     -33.483   2.623  23.219  0.00  0.00    -0.295 OA
ATOM     15  C   UNL A   1     -30.537  -0.208  25.580  0.00  0.00    +0.090 C 
ENDBRANCH   6   8
BRANCH   3  16
ATOM     16  C   UNL A   1     -24.472   1.189  26.162  0.00  0.00    +0.004 A 
ATOM     17  C   UNL A   1     -23.528   2.115  25.704  0.00  0.00    +0.000 A 
ATOM     18  C   UNL A   1     -22.287   2.093  26.391  0.00  0.00    +0.002 A 
ATOM     19  C   UNL A   1     -22.109   1.361  27.583  0.00  0.00    +0.030 A 
ATOM     20  C   UNL A   1     -23.066   0.464  27.988  0.00  0.00    +0.140 A 
ATOM     21  C   UNL A   1     -24.245   0.389  27.275  0.00  0.00    +0.030 A 
ATOM     22  F   UNL A   1     -22.825  -0.299  29.019  0.00  0.00    -0.204 F 
ENDBRANCH   3  16
TORSDOF 2
ENDMDL
ENDMDL
