MODEL 2929
MODEL 1
REMARK VINA RESULT:    -6.317      0.000      0.000
REMARK INTER + INTRA:          -6.084
REMARK INTER:                  -6.686
REMARK INTRA:                   0.602
REMARK UNBOUND:                 0.602
REMARK  Name = No_2929-gen_results/8p0m/2024-11-27-11-27-31/
REMARK  1 active torsions:
REMARK  status: ('A' for Active; 'I' for Inactive)
REMARK    1  A    between atoms: C_5  and  C_7
REMARK                            x       y       z     vdW  Elec       q    Type
REMARK                         _______ _______ _______ _____ _____    ______ ____
ROOT
ATOM      1  N   UNL A   1     -30.027  -9.797  31.946  0.00  0.00    -0.225 NA
ATOM      2  C   UNL A   1     -29.946 -10.422  30.887  0.00  0.00    +0.162 A 
ATOM      3  C   UNL A   1     -29.089 -11.300  30.531  0.00  0.00    +0.036 A 
ATOM      4  C   UNL A   1     -28.141 -11.737  31.571  0.00  0.00    +0.012 A 
ATOM      5  C   UNL A   1     -28.317 -11.149  32.773  0.00  0.00    +0.110 A 
ATOM      6  C   UNL A   1     -29.253 -10.273  32.950  0.00  0.00    +0.108 A 
ATOM      7  N   UNL A   1     -30.837  -9.953  29.774  0.00  0.00    -0.225 NA
ATOM      8  C   UNL A   1     -30.621 -10.175  28.518  0.00  0.00    +0.101 A 
ATOM      9  C   UNL A   1     -29.865 -11.258  28.189  0.00  0.00    +0.021 A 
ATOM     10  C   UNL A   1     -28.929 -11.781  29.124  0.00  0.00    +0.005 A 
ENDROOT
BRANCH   5  11
ATOM     11  C   UNL A   1     -27.354 -11.588  33.811  0.00  0.00    +0.415 C 
ATOM     12  N   UNL A   1     -26.870 -12.685  33.780  0.00  0.00    +0.197 NA
ATOM     13  N   UNL A   1     -26.870 -10.694  34.657  0.00  0.00    -0.023 NA
ATOM     14  C   UNL A   1     -27.228  -9.398  34.758  0.00  0.00    +0.306 C 
ENDBRANCH   5  11
TORSDOF 1
ENDMDL
ENDMDL
