MODEL 292
MODEL 1
REMARK VINA RESULT:    -6.029      0.000      0.000
REMARK INTER + INTRA:          -8.057
REMARK INTER:                  -7.439
REMARK INTRA:                  -0.618
REMARK UNBOUND:                -0.618
REMARK  Name = No_292-gen_results/8p0m/2024-11-27-11-27-31/
REMARK  4 active torsions:
REMARK  status: ('A' for Active; 'I' for Inactive)
REMARK    1  A    between atoms: C_3  and  C_8
REMARK    2  A    between atoms: C_6  and  O_7
REMARK    3  A    between atoms: O_7  and  C_14
REMARK    4  A    between atoms: C_14  and  C_15
REMARK                            x       y       z     vdW  Elec       q    Type
REMARK                         _______ _______ _______ _____ _____    ______ ____
ROOT
ATOM      1  C   UNL A   1     -10.184   1.625  33.906  0.00  0.00    +0.037 A 
ATOM      2  C   UNL A   1     -11.228   2.047  34.347  0.00  0.00    +0.003 A 
ATOM      3  C   UNL A   1     -11.621   1.768  35.652  0.00  0.00    +0.000 A 
ATOM      4  C   UNL A   1     -10.818   0.929  36.504  0.00  0.00    +0.003 A 
ATOM      5  C   UNL A   1      -9.640   0.465  35.906  0.00  0.00    +0.037 A 
ATOM      6  C   UNL A   1      -9.322   0.744  34.662  0.00  0.00    +0.139 A 
ENDROOT
BRANCH   3   7
ATOM      7  C   UNL A   1     -12.889   2.243  36.319  0.00  0.00    +0.000 A 
ATOM      8  C   UNL A   1     -13.871   2.756  35.598  0.00  0.00    +0.000 A 
ATOM      9  C   UNL A   1     -14.982   3.356  36.206  0.00  0.00    +0.000 A 
ATOM     10  C   UNL A   1     -15.092   3.430  37.639  0.00  0.00    +0.000 A 
ATOM     11  C   UNL A   1     -12.948   2.393  37.743  0.00  0.00    +0.000 A 
ATOM     12  C   UNL A   1     -14.110   2.938  38.373  0.00  0.00    +0.000 A 
ENDBRANCH   3   7
BRANCH   6  13
ATOM     13  O   UNL A   1      -8.177   0.221  34.145  0.00  0.00    -0.471 OA
BRANCH  13  14
ATOM     14  C   UNL A   1      -7.254  -0.415  34.912  0.00  0.00    +0.232 C 
BRANCH  14  15
ATOM     15  C   UNL A   1      -6.917  -1.729  34.490  0.00  0.00    +0.016 C 
ATOM     16  C   UNL A   1      -5.917  -2.102  34.462  0.00  0.00    -0.027 C 
ATOM     17  C   UNL A   1      -4.806  -1.290  34.855  0.00  0.00    +0.030 C 
ENDBRANCH  14  15
ENDBRANCH  13  14
ENDBRANCH   6  13
TORSDOF 4
ENDMDL
ENDMDL
