REMARK  Name = No_293-gen_results/8p0m/2024-11-27-11-27-31/
REMARK  2 active torsions:
REMARK  status: ('A' for Active; 'I' for Inactive)
REMARK    1  A    between atoms: C_2  and  C_13
REMARK    2  A    between atoms: C_4  and  C_7
REMARK                            x       y       z     vdW  Elec       q    Type
REMARK                         _______ _______ _______ _____ _____    ______ ____
ROOT
ATOM      1  C   UNL A   1     -28.016  -0.814  28.878  0.00  0.00    +0.007 A 
ATOM      2  C   UNL A   1     -28.469  -0.785  29.829  0.00  0.00    +0.080 A 
ATOM      3  C   UNL A   1     -26.504  -0.778  28.877  0.00  0.00    +0.000 A 
ATOM      4  C   UNL A   1     -25.915  -0.658  29.923  0.00  0.00    +0.000 A 
ATOM      5  C   UNL A   1     -27.969  -0.724  31.205  0.00  0.00    +0.007 A 
ATOM      6  C   UNL A   1     -26.585  -0.639  31.206  0.00  0.00    +0.000 A 
ENDROOT
BRANCH   4   7
ATOM      7  C   UNL A   1     -24.403  -0.585  30.042  0.00  0.00    +0.000 A 
ATOM      8  C   UNL A   1     -23.744  -1.371  30.551  0.00  0.00    +0.000 A 
ATOM      9  C   UNL A   1     -23.768   0.572  29.394  0.00  0.00    +0.000 A 
ATOM     10  C   UNL A   1     -22.398   0.610  29.268  0.00  0.00    +0.000 A 
ATOM     11  C   UNL A   1     -22.283  -1.363  30.665  0.00  0.00    +0.000 A 
ATOM     12  C   UNL A   1     -21.671  -0.383  29.952  0.00  0.00    +0.000 A 
ENDBRANCH   4   7
BRANCH   2  13
ATOM     13  C   UNL A   1     -30.107  -0.842  29.872  0.00  0.00    +0.388 C 
ATOM     14  O   UNL A   1     -30.739  -0.042  30.597  0.00  0.00    -0.241 OA
ATOM     15  O   UNL A   1     -30.625  -1.396  28.887  0.00  0.00    -0.241 OA
ENDBRANCH   2  13
TORSDOF 2
