REMARK  Name = outputs/IAG933/test6/raw/output_2930_IAG933_linker_design_.xyz
REMARK  11 active torsions:
REMARK  status: ('A' for Active; 'I' for Inactive)
REMARK    1  A    between atoms: C_1  and  C_2
REMARK    2  A    between atoms: C_1  and  C_8
REMARK    3  A    between atoms: C_1  and  C_41
REMARK    4  A    between atoms: C_13  and  C_28
REMARK    5  A    between atoms: C_14  and  C_15
REMARK    6  A    between atoms: C_21  and  O_22
REMARK    7  A    between atoms: O_22  and  C_23
REMARK    8  A    between atoms: C_23  and  C_24
REMARK    9  A    between atoms: C_31  and  C_41
REMARK   10  A    between atoms: C_31  and  C_45
REMARK   11  A    between atoms: N_35  and  C_41
REMARK                            x       y       z     vdW  Elec       q    Type
REMARK                         _______ _______ _______ _____ _____    ______ ____
ROOT
ATOM      1  C   UNL A   1     -24.293   1.636  26.927  0.00  0.00    +0.132 C 
ATOM      2  C   UNL A   1     -21.027   1.998  27.657  0.00  0.00    +0.220 C 
ATOM      3  N   UNL A   1     -23.237   1.262  28.714  0.00  0.00    +0.030 NA
ATOM      4  C   UNL A   1     -23.174   2.134  26.267  0.00  0.00    +0.287 C 
ATOM      5  N   UNL A   1     -25.323   0.406  28.387  0.00  0.00    -0.037 NA
ATOM      6  O   UNL A   1     -21.860   2.195  26.648  0.00  0.00    -0.453 OA
ATOM      7  C   UNL A   1     -22.170   0.295  28.754  0.00  0.00    +0.356 C 
ATOM      8  F   UNL A   1     -23.279   2.765  25.129  0.00  0.00    -0.163 F 
ATOM      9  C   UNL A   1     -24.272   1.137  28.097  0.00  0.00    +0.356 C 
ATOM     10  O   UNL A   1     -22.475  -0.872  28.990  0.00  0.00    -0.243 OA
ATOM     11  C   UNL A   1     -20.993   0.791  28.498  0.00  0.00    +0.164 C 
ENDROOT
BRANCH   1  12
ATOM     12  C   UNL A   1     -25.688   1.614  26.461  0.00  0.00    +0.105 C 
ATOM     13  C   UNL A   1     -26.250   2.920  26.395  0.00  0.00    +0.059 C 
ATOM     14  C   UNL A   1     -27.438   3.091  25.645  0.00  0.00    +0.102 C 
ATOM     15  N   UNL A   1     -28.075   2.089  25.003  0.00  0.00    -0.212 NA
ATOM     16  C   UNL A   1     -27.543   0.849  25.079  0.00  0.00    +0.234 C 
ATOM     17  C   UNL A   1     -26.354   0.576  25.777  0.00  0.00    +0.244 C 
ATOM     18  F   UNL A   1     -25.860  -0.681  25.795  0.00  0.00    -0.227 F 
BRANCH  13  19
ATOM     19  C   UNL A   1     -25.642   4.093  27.123  0.00  0.00    +0.263 C 
ATOM     20  N   UNL A   1     -25.614   5.252  26.449  0.00  0.00    -0.200 NA
ATOM     21  C   UNL A   1     -25.026   6.479  26.963  0.00  0.00    +0.139 C 
ATOM     22  O   UNL A   1     -25.143   3.966  28.243  0.00  0.00    -0.269 OA
ENDBRANCH  13  19
BRANCH  16  23
ATOM     23  O   UNL A   1     -28.193  -0.208  24.477  0.00  0.00    -0.459 OA
BRANCH  23  24
ATOM     24  C   UNL A   1     -29.460   0.005  23.866  0.00  0.00    +0.242 C 
BRANCH  24  25
ATOM     25  C   UNL A   1     -30.065  -1.377  23.573  0.00  0.00    +0.229 C 
ATOM     26  O   UNL A   1     -30.729  -1.878  24.721  0.00  0.00    -0.216 OA
ENDBRANCH  24  25
ENDBRANCH  23  24
ENDBRANCH  16  23
ENDBRANCH   1  12
BRANCH   5  27
ATOM     27  C   UNL A   1     -25.919  -0.524  29.099  0.00  0.00    +0.210 C 
BRANCH  27  28
ATOM     28  C   UNL A   1     -24.855  -1.012  30.143  0.00  0.00    +0.085 C 
BRANCH  28  29
ATOM     29  C   UNL A   1     -24.973  -2.505  29.788  0.00  0.00    -0.017 C 
ATOM     30  C   UNL A   1     -23.906  -3.173  29.146  0.00  0.00    -0.004 C 
ATOM     31  C   UNL A   1     -23.989  -4.549  28.853  0.00  0.00    -0.000 C 
ATOM     32  C   UNL A   1     -25.137  -5.280  29.205  0.00  0.00    -0.000 C 
ATOM     33  C   UNL A   1     -26.232  -4.611  29.784  0.00  0.00    -0.000 C 
ATOM     34  C   UNL A   1     -26.155  -3.232  30.065  0.00  0.00    -0.004 C 
ENDBRANCH  28  29
BRANCH  28  35
ATOM     35  C   UNL A   1     -25.387  -0.679  31.571  0.00  0.00    +0.081 C 
ATOM     36  C   UNL A   1     -25.189   0.773  32.028  0.00  0.00    +0.019 C 
ATOM     37  C   UNL A   1     -25.336   0.684  33.544  0.00  0.00    +0.020 C 
ATOM     38  C   UNL A   1     -24.829  -0.715  33.905  0.00  0.00    +0.089 C 
ATOM     39  N   UNL A   1     -24.758  -1.481  32.646  0.00  0.00    -0.219 NA
ENDBRANCH  28  35
ENDBRANCH  27  28
BRANCH  27  40
ATOM     40  C   UNL A   1     -27.378  -0.381  29.386  0.00  0.00    +0.054 C 
BRANCH  40  45
ATOM     41  C   UNL A   1     -29.219   0.614  30.610  0.00  0.00    +0.035 C 
ATOM     42  C   UNL A   1     -29.039   1.402  31.902  0.00  0.00    +0.142 C 
ATOM     43  O   UNL A   1     -27.759   2.061  31.824  0.00  0.00    -0.354 OA
ATOM     44  C   UNL A   1     -27.302   2.110  30.483  0.00  0.00    +0.142 C 
ATOM     45  C   UNL A   1     -28.019   0.938  29.745  0.00  0.00    +0.036 C 
ENDBRANCH  40  45
ENDBRANCH  27  40
ENDBRANCH   5  27
TORSDOF 11
