MODEL 2930
MODEL 1
REMARK VINA RESULT:    -5.799      0.000      0.000
REMARK INTER + INTRA:          -7.721
REMARK INTER:                  -7.155
REMARK INTRA:                  -0.565
REMARK UNBOUND:                -0.565
REMARK  Name = No_2930-gen_results/8p0m/2024-11-27-11-27-31/
REMARK  4 active torsions:
REMARK  status: ('A' for Active; 'I' for Inactive)
REMARK    1  A    between atoms: C_1  and  C_8
REMARK    2  A    between atoms: C_5  and  C_10
REMARK    3  A    between atoms: C_8  and  N_9
REMARK    4  A    between atoms: N_9  and  C_13
REMARK                            x       y       z     vdW  Elec       q    Type
REMARK                         _______ _______ _______ _____ _____    ______ ____
ROOT
ATOM      1  C   UNL A   1     -30.362 -10.371  29.233  0.00  0.00    -0.011 C 
ATOM      2  C   UNL A   1     -29.764 -10.648  30.247  0.00  0.00    -0.047 C 
ATOM      3  C   UNL A   1     -29.923 -10.010  31.465  0.00  0.00    +0.022 C 
ATOM      4  C   UNL A   1     -29.167 -10.265  32.668  0.00  0.00    +0.016 C 
ATOM      5  C   UNL A   1     -28.163 -11.261  32.637  0.00  0.00    +0.104 C 
ATOM      6  C   UNL A   1     -27.951 -11.957  31.418  0.00  0.00    +0.016 C 
ATOM      7  C   UNL A   1     -28.696 -11.623  30.329  0.00  0.00    +0.022 C 
ENDROOT
BRANCH   5   8
ATOM      8  C   UNL A   1     -27.380 -11.592  33.821  0.00  0.00    +0.364 C 
ATOM      9  O   UNL A   1     -26.935 -10.748  34.587  0.00  0.00    -0.246 OA
ATOM     10  O   UNL A   1     -26.745 -12.789  33.844  0.00  0.00    -0.246 OA
ENDBRANCH   5   8
BRANCH   1  11
ATOM     11  C   UNL A   1     -31.260 -11.471  28.709  0.00  0.00    +0.138 C 
BRANCH  11  12
ATOM     12  N   UNL A   1     -31.030 -11.984  27.533  0.00  0.00    -0.227 NA
BRANCH  12  13
ATOM     13  C   UNL A   1     -30.580 -13.085  27.368  0.00  0.00    +0.141 C 
ATOM     14  C   UNL A   1     -29.172 -13.139  27.020  0.00  0.00    +0.295 C 
ATOM     15  F   UNL A   1     -28.669 -12.225  26.716  0.00  0.00    -0.171 F 
ATOM     16  F   UNL A   1     -28.947 -14.166  25.964  0.00  0.00    -0.171 F 
ENDBRANCH  12  13
ENDBRANCH  11  12
ENDBRANCH   1  11
TORSDOF 4
ENDMDL
ENDMDL
