REMARK  Name = outputs/IAG933/test6/raw/output_2931_IAG933_linker_design_.xyz
REMARK  14 active torsions:
REMARK  status: ('A' for Active; 'I' for Inactive)
REMARK    1  A    between atoms: C_1  and  C_2
REMARK    2  A    between atoms: C_1  and  C_8
REMARK    3  A    between atoms: C_1  and  N_29
REMARK    4  A    between atoms: C_13  and  C_34
REMARK    5  A    between atoms: C_14  and  C_15
REMARK    6  A    between atoms: C_21  and  O_22
REMARK    7  A    between atoms: O_22  and  C_23
REMARK    8  A    between atoms: C_23  and  C_24
REMARK    9  A    between atoms: C_28  and  C_33
REMARK   10  A    between atoms: C_28  and  C_44
REMARK   11  A    between atoms: N_29  and  C_32
REMARK   12  A    between atoms: N_29  and  C_38
REMARK   13  A    between atoms: C_33  and  C_38
REMARK   14  A    between atoms: C_43  and  C_44
REMARK                            x       y       z     vdW  Elec       q    Type
REMARK                         _______ _______ _______ _____ _____    ______ ____
ROOT
ATOM      1  N   UNL A   1     -25.404  -0.131  29.178  0.00  0.00    -0.304 N 
ENDROOT
BRANCH   1   2
ATOM      2  C   UNL A   1     -24.343   0.578  28.364  0.00  0.00    +0.055 C 
ATOM      3  C   UNL A   1     -24.416   1.344  27.148  0.00  0.00    +0.018 C 
ATOM      4  S   UNL A   1     -21.908   1.287  27.620  0.00  0.00    -0.089 S 
ATOM      5  C   UNL A   1     -22.928   0.437  28.769  0.00  0.00    +0.050 C 
ATOM      6  C   UNL A   1     -23.049   2.456  25.298  0.00  0.00    +0.038 C 
ATOM      7  C   UNL A   1     -23.149   1.812  26.608  0.00  0.00    +0.009 C 
BRANCH   3   8
ATOM      8  C   UNL A   1     -25.688   1.614  26.461  0.00  0.00    +0.040 C 
ATOM      9  C   UNL A   1     -26.250   2.920  26.395  0.00  0.00    +0.077 C 
ATOM     10  C   UNL A   1     -27.438   3.091  25.645  0.00  0.00    +0.107 C 
ATOM     11  N   UNL A   1     -28.075   2.089  25.003  0.00  0.00    -0.208 NA
ATOM     12  C   UNL A   1     -27.543   0.849  25.079  0.00  0.00    +0.253 C 
ATOM     13  C   UNL A   1     -26.354   0.576  25.777  0.00  0.00    +0.193 C 
ATOM     14  F   UNL A   1     -25.860  -0.681  25.795  0.00  0.00    -0.199 F 
BRANCH   9  15
ATOM     15  C   UNL A   1     -25.642   4.093  27.123  0.00  0.00    +0.266 C 
ATOM     16  N   UNL A   1     -25.614   5.252  26.449  0.00  0.00    -0.200 NA
ATOM     17  C   UNL A   1     -25.026   6.479  26.963  0.00  0.00    +0.139 C 
ATOM     18  O   UNL A   1     -25.143   3.966  28.243  0.00  0.00    -0.268 OA
ENDBRANCH   9  15
BRANCH  12  19
ATOM     19  O   UNL A   1     -28.193  -0.208  24.477  0.00  0.00    -0.456 OA
BRANCH  19  20
ATOM     20  C   UNL A   1     -29.460   0.005  23.866  0.00  0.00    +0.243 C 
BRANCH  20  21
ATOM     21  C   UNL A   1     -30.065  -1.377  23.573  0.00  0.00    +0.229 C 
ATOM     22  O   UNL A   1     -30.729  -1.878  24.721  0.00  0.00    -0.216 OA
ENDBRANCH  20  21
ENDBRANCH  19  20
ENDBRANCH  12  19
ENDBRANCH   3   8
ENDBRANCH   1   2
BRANCH   1  23
ATOM     23  C   UNL A   1     -24.855  -1.012  30.143  0.00  0.00    +0.111 C 
BRANCH  23  24
ATOM     24  C   UNL A   1     -24.973  -2.505  29.788  0.00  0.00    -0.003 C 
ATOM     25  C   UNL A   1     -23.906  -3.173  29.146  0.00  0.00    -0.003 C 
ATOM     26  C   UNL A   1     -23.989  -4.549  28.853  0.00  0.00    -0.000 C 
ATOM     27  C   UNL A   1     -25.137  -5.280  29.205  0.00  0.00    -0.000 C 
ATOM     28  C   UNL A   1     -26.232  -4.611  29.784  0.00  0.00    -0.000 C 
ATOM     29  C   UNL A   1     -26.155  -3.232  30.065  0.00  0.00    -0.003 C 
ENDBRANCH  23  24
BRANCH  23  30
ATOM     30  C   UNL A   1     -25.387  -0.679  31.571  0.00  0.00    +0.095 C 
ATOM     31  C   UNL A   1     -25.189   0.773  32.028  0.00  0.00    +0.021 C 
ATOM     32  C   UNL A   1     -25.336   0.684  33.544  0.00  0.00    +0.020 C 
ATOM     33  C   UNL A   1     -24.829  -0.715  33.905  0.00  0.00    +0.089 C 
ATOM     34  N   UNL A   1     -24.758  -1.481  32.646  0.00  0.00    -0.217 NA
ENDBRANCH  23  30
ENDBRANCH   1  23
BRANCH   1  35
ATOM     35  C   UNL A   1     -26.677  -0.337  28.956  0.00  0.00    +0.091 C 
BRANCH  35  36
ATOM     36  C   UNL A   1     -27.939  -0.555  28.910  0.00  0.00    +0.021 C 
BRANCH  36  37
ATOM     37  C   UNL A   1     -29.048   0.078  28.730  0.00  0.00    +0.002 C 
BRANCH  37  38
ATOM     38  C   UNL A   1     -29.496   1.160  29.641  0.00  0.00    +0.004 C 
BRANCH  38  45
ATOM     39  C   UNL A   1     -30.660   3.476  26.974  0.00  0.00    -0.032 C 
ATOM     40  C   UNL A   1     -28.644   5.236  29.518  0.00  0.00    +0.036 C 
ATOM     41  C   UNL A   1     -30.773   2.285  27.667  0.00  0.00    -0.048 C 
ATOM     42  C   UNL A   1     -30.188   3.498  29.680  0.00  0.00    +0.037 C 
ATOM     43  C   UNL A   1     -31.512   1.086  27.008  0.00  0.00    +0.026 C 
ATOM     44  C   UNL A   1     -30.160   4.634  27.592  0.00  0.00    +0.058 C 
ATOM     45  C   UNL A   1     -30.223   2.318  28.997  0.00  0.00    +0.021 C 
ATOM     46  F   UNL A   1     -30.699   6.001  29.385  0.00  0.00    -0.240 F 
ATOM     47  C   UNL A   1     -29.918   4.726  28.997  0.00  0.00    +0.138 C 
ENDBRANCH  38  45
ENDBRANCH  37  38
ENDBRANCH  36  37
ENDBRANCH  35  36
ENDBRANCH   1  35
TORSDOF 14
