MODEL 2933
MODEL 1
REMARK VINA RESULT:    -6.731      0.000      0.000
REMARK INTER + INTRA:          -9.028
REMARK INTER:                  -8.305
REMARK INTRA:                  -0.723
REMARK UNBOUND:                -0.723
REMARK  Name = No_2933-gen_results/8p0m/2024-11-27-11-27-31/
REMARK  4 active torsions:
REMARK  status: ('A' for Active; 'I' for Inactive)
REMARK    1  A    between atoms: C_2  and  C_15
REMARK    2  A    between atoms: C_15  and  O_16
REMARK    3  A    between atoms: O_16  and  C_18
REMARK    4  A    between atoms: C_19  and  C_20
REMARK                            x       y       z     vdW  Elec       q    Type
REMARK                         _______ _______ _______ _____ _____    ______ ____
ROOT
ATOM      1  C   UNL A   1     -24.290   0.550  26.331  0.00  0.00    +0.027 A 
ATOM      2  C   UNL A   1     -24.053   1.371  26.948  0.00  0.00    +0.078 A 
ATOM      3  C   UNL A   1     -25.527   0.656  25.541  0.00  0.00    +0.103 A 
ATOM      4  C   UNL A   1     -26.271   1.872  25.518  0.00  0.00    +0.021 A 
ATOM      5  C   UNL A   1     -25.805   2.877  26.328  0.00  0.00    +0.002 A 
ATOM      6  C   UNL A   1     -24.677   2.716  27.053  0.00  0.00    +0.007 A 
ATOM      7  C   UNL A   1     -27.473   2.000  24.736  0.00  0.00    +0.021 A 
ATOM      8  C   UNL A   1     -27.999   2.845  24.525  0.00  0.00    +0.002 A 
ATOM      9  C   UNL A   1     -29.393   2.949  23.869  0.00  0.00    +0.000 A 
ATOM     10  C   UNL A   1     -29.873   1.715  23.477  0.00  0.00    +0.002 A 
ATOM     11  C   UNL A   1     -27.909   0.653  24.176  0.00  0.00    +0.103 A 
ATOM     12  C   UNL A   1     -29.180   0.599  23.637  0.00  0.00    +0.021 A 
ATOM     13  N   UNL A   1     -26.005  -0.347  24.789  0.00  0.00    -0.148 NA
ATOM     14  N   UNL A   1     -27.150  -0.429  24.357  0.00  0.00    -0.148 NA
ENDROOT
BRANCH   2  15
ATOM     15  C   UNL A   1     -22.710   1.362  27.814  0.00  0.00    +0.346 C 
ATOM     16  O   UNL A   1     -21.624   1.947  27.411  0.00  0.00    -0.244 OA
BRANCH  15  17
ATOM     17  O   UNL A   1     -22.759   0.798  28.793  0.00  0.00    -0.418 OA
BRANCH  17  18
ATOM     18  C   UNL A   1     -21.997  -0.347  29.164  0.00  0.00    +0.183 C 
ATOM     19  C   UNL A   1     -22.654  -1.443  29.215  0.00  0.00    +0.041 C 
BRANCH  19  20
ATOM     20  C   UNL A   1     -24.001  -1.517  29.430  0.00  0.00    -0.001 C 
ATOM     21  C   UNL A   1     -24.821  -2.723  29.169  0.00  0.00    -0.026 C 
ATOM     22  C   UNL A   1     -24.062  -3.847  28.684  0.00  0.00    +0.031 C 
ENDBRANCH  19  20
ENDBRANCH  17  18
ENDBRANCH  15  17
ENDBRANCH   2  15
TORSDOF 4
ENDMDL
ENDMDL
