REMARK  Name = No_2934-gen_results/8p0m/2024-11-27-11-27-31/
REMARK  5 active torsions:
REMARK  status: ('A' for Active; 'I' for Inactive)
REMARK    1  A    between atoms: C_3  and  C_7
REMARK    2  A    between atoms: C_6  and  O_11
REMARK    3  A    between atoms: O_11  and  C_12
REMARK    4  A    between atoms: C_12  and  C_13
REMARK    5  A    between atoms: C_17  and  C_20
REMARK                            x       y       z     vdW  Elec       q    Type
REMARK                         _______ _______ _______ _____ _____    ______ ____
ROOT
ATOM      1  O   UNL A   1     -28.958  -2.696  30.109  0.00  0.00    -0.421 OA
ENDROOT
BRANCH   1   7
ATOM      2  C   UNL A   1     -28.016  -0.814  28.878  0.00  0.00    +0.038 A 
ATOM      3  C   UNL A   1     -27.064  -0.119  28.608  0.00  0.00    +0.007 A 
ATOM      4  C   UNL A   1     -25.765  -0.390  29.036  0.00  0.00    +0.072 A 
ATOM      5  C   UNL A   1     -25.530  -1.530  29.901  0.00  0.00    +0.007 A 
ATOM      6  C   UNL A   1     -26.689  -2.289  30.181  0.00  0.00    +0.038 A 
ATOM      7  C   UNL A   1     -27.873  -1.951  29.737  0.00  0.00    +0.149 A 
BRANCH   4   8
ATOM      8  C   UNL A   1     -24.549   0.410  28.734  0.00  0.00    +0.419 C 
ATOM      9  F   UNL A   1     -24.541   0.896  27.595  0.00  0.00    -0.166 F 
ATOM     10  F   UNL A   1     -23.381  -0.385  28.848  0.00  0.00    -0.166 F 
ATOM     11  F   UNL A   1     -24.374   1.392  29.660  0.00  0.00    -0.166 F 
ENDBRANCH   4   8
ENDBRANCH   1   7
BRANCH   1  12
ATOM     12  C   UNL A   1     -28.746  -3.958  30.633  0.00  0.00    +0.346 C 
ATOM     13  O   UNL A   1     -27.688  -4.568  30.608  0.00  0.00    -0.244 OA
BRANCH  12  14
ATOM     14  C   UNL A   1     -29.950  -4.583  31.181  0.00  0.00    +0.076 A 
ATOM     15  C   UNL A   1     -29.821  -5.731  31.735  0.00  0.00    +0.006 A 
ATOM     16  C   UNL A   1     -30.977  -6.418  32.251  0.00  0.00    +0.000 A 
ATOM     17  C   UNL A   1     -32.234  -5.806  32.130  0.00  0.00    +0.007 A 
ATOM     18  C   UNL A   1     -32.313  -4.593  31.521  0.00  0.00    +0.080 A 
ATOM     19  C   UNL A   1     -31.182  -3.953  31.063  0.00  0.00    +0.013 A 
BRANCH  18  20
ATOM     20  C   UNL A   1     -33.653  -3.923  31.399  0.00  0.00    +0.388 C 
ATOM     21  O   UNL A   1     -33.814  -3.252  30.591  0.00  0.00    -0.241 OA
ATOM     22  O   UNL A   1     -34.329  -3.936  32.499  0.00  0.00    -0.241 OA
ENDBRANCH  18  20
ENDBRANCH  12  14
ENDBRANCH   1  12
TORSDOF 5
