MODEL 2935
MODEL 1
REMARK VINA RESULT:    -7.886      0.000      0.000
REMARK INTER + INTRA:         -12.980
REMARK INTER:                 -11.574
REMARK INTRA:                  -1.406
REMARK UNBOUND:                -1.406
REMARK  Name = No_2935-gen_results/8p0m/2024-11-27-11-27-31/
REMARK  8 active torsions:
REMARK  status: ('A' for Active; 'I' for Inactive)
REMARK    1  A    between atoms: C_3  and  C_4
REMARK    2  A    between atoms: C_10  and  C_13
REMARK    3  A    between atoms: C_13  and  O_15
REMARK    4  A    between atoms: O_15  and  C_17
REMARK    5  A    between atoms: C_17  and  C_18
REMARK    6  A    between atoms: C_18  and  C_20
REMARK    7  A    between atoms: C_19  and  C_24
REMARK    8  A    between atoms: C_24  and  C_25
REMARK                            x       y       z     vdW  Elec       q    Type
REMARK                         _______ _______ _______ _____ _____    ______ ____
ROOT
ATOM      1  C   UNL A   1     -23.086   1.364  27.230  0.00  0.00    +0.342 C 
ATOM      2  O   UNL A   1     -22.120   1.869  26.707  0.00  0.00    -0.245 OA
ENDROOT
BRANCH   1   6
ATOM      3  C   UNL A   1     -24.605   0.382  25.416  0.00  0.00    +0.006 A 
ATOM      4  C   UNL A   1     -25.681   0.318  24.867  0.00  0.00    +0.000 A 
ATOM      5  C   UNL A   1     -26.706   1.241  25.069  0.00  0.00    +0.000 A 
ATOM      6  C   UNL A   1     -24.381   1.317  26.509  0.00  0.00    +0.076 A 
ATOM      7  C   UNL A   1     -25.262   2.364  26.744  0.00  0.00    +0.006 A 
ATOM      8  C   UNL A   1     -26.488   2.326  26.054  0.00  0.00    +0.000 A 
BRANCH   5   9
ATOM      9  C   UNL A   1     -28.048   1.233  24.454  0.00  0.00    +0.001 A 
ATOM     10  C   UNL A   1     -28.693  -0.040  24.386  0.00  0.00    +0.011 A 
ATOM     11  C   UNL A   1     -29.946  -0.131  23.782  0.00  0.00    +0.058 A 
ATOM     12  C   UNL A   1     -30.462   0.994  23.126  0.00  0.00    +0.011 A 
ATOM     13  C   UNL A   1     -29.836   2.218  23.171  0.00  0.00    +0.001 A 
ATOM     14  C   UNL A   1     -28.585   2.313  23.817  0.00  0.00    +0.000 A 
ATOM     15 CL   UNL A   1     -30.716  -1.658  23.664  0.00  0.00    -0.082 Cl
ENDBRANCH   5   9
ENDBRANCH   1   6
BRANCH   1  16
ATOM     16  O   UNL A   1     -23.021   0.944  28.413  0.00  0.00    -0.441 OA
BRANCH  16  17
ATOM     17  C   UNL A   1     -22.468   0.021  28.885  0.00  0.00    +0.239 C 
BRANCH  17  18
ATOM     18  C   UNL A   1     -23.175  -1.061  29.409  0.00  0.00    +0.089 C 
ATOM     19  C   UNL A   1     -23.577  -2.015  28.784  0.00  0.00    -0.018 C 
BRANCH  18  20
ATOM     20  C   UNL A   1     -23.575  -0.912  30.826  0.00  0.00    +0.418 C 
ATOM     21  F   UNL A   1     -24.821  -1.072  31.124  0.00  0.00    -0.166 F 
ATOM     22  F   UNL A   1     -22.880  -1.671  31.645  0.00  0.00    -0.166 F 
ATOM     23  F   UNL A   1     -23.297   0.337  31.277  0.00  0.00    -0.166 F 
ENDBRANCH  18  20
BRANCH  19  24
ATOM     24  C   UNL A   1     -24.306  -2.887  28.930  0.00  0.00    +0.051 C 
BRANCH  24  25
ATOM     25  C   UNL A   1     -24.087  -4.333  28.811  0.00  0.00    -0.026 C 
ATOM     26  C   UNL A   1     -25.158  -5.047  29.206  0.00  0.00    -0.030 C 
ATOM     27  C   UNL A   1     -26.306  -4.547  29.673  0.00  0.00    +0.030 C 
ENDBRANCH  24  25
ENDBRANCH  19  24
ENDBRANCH  17  18
ENDBRANCH  16  17
ENDBRANCH   1  16
TORSDOF 8
ENDMDL
ENDMDL
