MODEL 2938
MODEL 1
REMARK VINA RESULT:    -5.062      0.000      0.000
REMARK INTER + INTRA:          -5.937
REMARK INTER:                  -5.654
REMARK INTRA:                  -0.283
REMARK UNBOUND:                -0.283
REMARK  Name = No_2938-gen_results/8p0m/2024-11-27-11-27-31/
REMARK  2 active torsions:
REMARK  status: ('A' for Active; 'I' for Inactive)
REMARK    1  A    between atoms: C_3  and  C_7
REMARK    2  A    between atoms: C_8  and  C_9
REMARK                            x       y       z     vdW  Elec       q    Type
REMARK                         _______ _______ _______ _____ _____    ______ ____
ROOT
ATOM      1  C   UNL A   1     -11.315  -1.073  40.055  0.00  0.00    +0.000 A 
ATOM      2  C   UNL A   1     -10.706  -0.603  39.122  0.00  0.00    +0.000 A 
ATOM      3  C   UNL A   1     -10.669  -1.033  37.893  0.00  0.00    +0.000 A 
ATOM      4  C   UNL A   1     -11.413  -2.208  37.570  0.00  0.00    +0.000 A 
ATOM      5  C   UNL A   1     -12.173  -2.715  38.570  0.00  0.00    +0.000 A 
ATOM      6  C   UNL A   1     -12.182  -2.157  39.822  0.00  0.00    +0.000 A 
ENDROOT
BRANCH   3   7
ATOM      7  C   UNL A   1      -9.827  -0.434  36.805  0.00  0.00    +0.001 C 
ATOM      8  C   UNL A   1     -10.045   0.384  36.138  0.00  0.00    +0.010 C 
BRANCH   8   9
ATOM      9  C   UNL A   1     -11.321   1.048  36.033  0.00  0.00    +0.063 C 
ATOM     10  C   UNL A   1     -11.741   1.510  34.799  0.00  0.00    +0.021 C 
ATOM     11  N   UNL A   1     -12.354   2.076  33.858  0.00  0.00    -0.095 NA
ENDBRANCH   8   9
ENDBRANCH   3   7
TORSDOF 2
ENDMDL
ENDMDL
