REMARK  Name = outputs/IAG933/test6/raw/output_2939_IAG933_linker_design_.xyz
REMARK  14 active torsions:
REMARK  status: ('A' for Active; 'I' for Inactive)
REMARK    1  A    between atoms: C_1  and  C_2
REMARK    2  A    between atoms: C_1  and  C_8
REMARK    3  A    between atoms: C_1  and  N_47
REMARK    4  A    between atoms: C_14  and  C_15
REMARK    5  A    between atoms: C_15  and  O_18
REMARK    6  A    between atoms: O_18  and  C_44
REMARK    7  A    between atoms: C_21  and  O_22
REMARK    8  A    between atoms: O_22  and  C_23
REMARK    9  A    between atoms: C_23  and  C_24
REMARK   10  A    between atoms: C_31  and  C_40
REMARK   11  A    between atoms: C_33  and  C_44
REMARK   12  A    between atoms: C_35  and  O_37
REMARK   13  A    between atoms: O_37  and  C_38
REMARK   14  A    between atoms: C_40  and  C_44
REMARK                            x       y       z     vdW  Elec       q    Type
REMARK                         _______ _______ _______ _____ _____    ______ ____
ROOT
ATOM      1  C   UNL A   1     -25.362   3.516  29.401  0.00  0.00    +0.173 C 
ENDROOT
BRANCH   1   6
ATOM      2  C   UNL A   1     -27.569   4.370  29.383  0.00  0.00    +0.056 C 
ATOM      3  N   UNL A   1     -28.468   5.386  31.421  0.00  0.00    -0.173 NA
ATOM      4  N   UNL A   1     -25.508   5.284  32.988  0.00  0.00    -0.138 NA
ATOM      5  N   UNL A   1     -29.439   6.366  31.582  0.00  0.00    -0.112 NA
ATOM      6  C   UNL A   1     -26.423   4.221  30.304  0.00  0.00    +0.087 C 
ATOM      7  C   UNL A   1     -28.664   5.001  30.092  0.00  0.00    +0.192 C 
ATOM      8  C   UNL A   1     -30.127   6.403  30.494  0.00  0.00    +0.252 C 
ATOM      9  C   UNL A   1     -25.290   7.084  31.705  0.00  0.00    +0.314 C 
ATOM     10  O   UNL A   1     -29.873   5.373  29.577  0.00  0.00    -0.321 OA
ATOM     11  O   UNL A   1     -25.363   5.872  31.113  0.00  0.00    -0.312 OA
ATOM     12  C   UNL A   1     -27.479   5.064  32.227  0.00  0.00    +0.138 C 
ATOM     13  C   UNL A   1     -26.057   4.821  31.543  0.00  0.00    +0.184 C 
ATOM     14  C   UNL A   1     -25.278   4.623  33.977  0.00  0.00    +0.123 C 
ATOM     15  O   UNL A   1     -25.465   6.527  33.092  0.00  0.00    -0.247 OA
ENDBRANCH   1   6
BRANCH   1  16
ATOM     16  O   UNL A   1     -25.143   3.966  28.243  0.00  0.00    -0.464 OA
BRANCH  16  17
ATOM     17  C   UNL A   1     -25.642   4.093  27.123  0.00  0.00    +0.222 C 
ATOM     18  N   UNL A   1     -25.614   5.252  26.449  0.00  0.00    -0.236 NA
ATOM     19  C   UNL A   1     -25.026   6.479  26.963  0.00  0.00    +0.155 C 
BRANCH  17  21
ATOM     20  C   UNL A   1     -25.688   1.614  26.461  0.00  0.00    +0.041 C 
ATOM     21  C   UNL A   1     -26.250   2.920  26.395  0.00  0.00    +0.074 C 
ATOM     22  C   UNL A   1     -27.438   3.091  25.645  0.00  0.00    +0.107 C 
ATOM     23  N   UNL A   1     -28.075   2.089  25.003  0.00  0.00    -0.208 NA
ATOM     24  C   UNL A   1     -27.543   0.849  25.079  0.00  0.00    +0.253 C 
ATOM     25  C   UNL A   1     -26.354   0.576  25.777  0.00  0.00    +0.193 C 
ATOM     26  F   UNL A   1     -25.860  -0.681  25.795  0.00  0.00    -0.199 F 
BRANCH  24  27
ATOM     27  O   UNL A   1     -28.193  -0.208  24.477  0.00  0.00    -0.456 OA
BRANCH  27  28
ATOM     28  C   UNL A   1     -29.460   0.005  23.866  0.00  0.00    +0.243 C 
BRANCH  28  29
ATOM     29  C   UNL A   1     -30.065  -1.377  23.573  0.00  0.00    +0.229 C 
ATOM     30  O   UNL A   1     -30.729  -1.878  24.721  0.00  0.00    -0.216 OA
ENDBRANCH  28  29
ENDBRANCH  27  28
ENDBRANCH  24  27
ENDBRANCH  17  21
ENDBRANCH  16  17
ENDBRANCH   1  16
BRANCH   1  31
ATOM     31  C   UNL A   1     -24.025   2.498  29.634  0.00  0.00    +0.062 C 
BRANCH  31  32
ATOM     32  C   UNL A   1     -23.605   1.173  28.736  0.00  0.00    +0.091 C 
ATOM     33  C   UNL A   1     -22.117   0.966  28.527  0.00  0.00    +0.147 C 
ATOM     34  N   UNL A   1     -23.986  -0.096  29.699  0.00  0.00    -0.266 NA
ATOM     35  C   UNL A   1     -22.606   0.120  29.620  0.00  0.00    +0.102 C 
BRANCH  34  36
ATOM     36  C   UNL A   1     -24.855  -1.012  30.143  0.00  0.00    +0.096 C 
BRANCH  36  37
ATOM     37  C   UNL A   1     -24.973  -2.505  29.788  0.00  0.00    -0.006 C 
ATOM     38  C   UNL A   1     -23.906  -3.173  29.146  0.00  0.00    -0.003 C 
ATOM     39  C   UNL A   1     -23.989  -4.549  28.853  0.00  0.00    -0.000 C 
ATOM     40  C   UNL A   1     -25.137  -5.280  29.205  0.00  0.00    -0.000 C 
ATOM     41  C   UNL A   1     -26.232  -4.611  29.784  0.00  0.00    -0.000 C 
ATOM     42  C   UNL A   1     -26.155  -3.232  30.065  0.00  0.00    -0.003 C 
ENDBRANCH  36  37
BRANCH  36  43
ATOM     43  C   UNL A   1     -25.387  -0.679  31.571  0.00  0.00    +0.092 C 
ATOM     44  C   UNL A   1     -25.189   0.773  32.028  0.00  0.00    +0.021 C 
ATOM     45  C   UNL A   1     -25.336   0.684  33.544  0.00  0.00    +0.020 C 
ATOM     46  C   UNL A   1     -24.829  -0.715  33.905  0.00  0.00    +0.089 C 
ATOM     47  N   UNL A   1     -24.758  -1.481  32.646  0.00  0.00    -0.218 NA
ENDBRANCH  36  43
ENDBRANCH  34  36
BRANCH  33  48
ATOM     48  O   UNL A   1     -21.202   1.220  27.805  0.00  0.00    -0.335 OA
BRANCH  48  49
ATOM     49  C   UNL A   1     -21.867   1.702  27.032  0.00  0.00    +0.252 C 
ATOM     50  N   UNL A   1     -22.298   2.281  25.991  0.00  0.00    -0.096 NA
ENDBRANCH  48  49
ENDBRANCH  33  48
ENDBRANCH  31  32
ENDBRANCH   1  31
TORSDOF 14
