MODEL 2939
MODEL 1
REMARK VINA RESULT:    -7.150      0.000      0.000
REMARK INTER + INTRA:          -8.912
REMARK INTER:                  -8.404
REMARK INTRA:                  -0.509
REMARK UNBOUND:                -0.509
REMARK  Name = No_2939-gen_results/8p0m/2024-11-27-11-27-31/
REMARK  3 active torsions:
REMARK  status: ('A' for Active; 'I' for Inactive)
REMARK    1  A    between atoms: C_2  and  O_14
REMARK    2  A    between atoms: C_3  and  C_4
REMARK    3  A    between atoms: O_14  and  C_15
REMARK                            x       y       z     vdW  Elec       q    Type
REMARK                         _______ _______ _______ _____ _____    ______ ____
ROOT
ATOM      1  C   UNL A   1     -23.827   0.133  27.802  0.00  0.00    +0.037 A 
ATOM      2  C   UNL A   1     -22.987   0.762  27.712  0.00  0.00    +0.146 A 
ATOM      3  C   UNL A   1     -23.591  -1.044  28.639  0.00  0.00    +0.003 A 
ATOM      4  C   UNL A   1     -21.625   0.742  28.228  0.00  0.00    +0.037 A 
ATOM      5  C   UNL A   1     -21.360  -0.361  29.013  0.00  0.00    +0.003 A 
ATOM      6  C   UNL A   1     -22.340  -1.243  29.278  0.00  0.00    +0.000 A 
ENDROOT
BRANCH   3   7
ATOM      7  C   UNL A   1     -24.644  -2.019  29.001  0.00  0.00    +0.002 A 
ATOM      8  C   UNL A   1     -25.722  -1.924  29.417  0.00  0.00    +0.000 A 
ATOM      9  C   UNL A   1     -26.558  -2.989  29.967  0.00  0.00    +0.002 A 
ATOM     10  C   UNL A   1     -26.150  -4.313  29.604  0.00  0.00    +0.030 A 
ATOM     11  C   UNL A   1     -24.379  -3.481  28.804  0.00  0.00    +0.030 A 
ATOM     12  C   UNL A   1     -25.039  -4.465  29.090  0.00  0.00    +0.140 A 
ATOM     13  F   UNL A   1     -24.628  -5.705  28.788  0.00  0.00    -0.204 F 
ENDBRANCH   3   7
BRANCH   2  14
ATOM     14  O   UNL A   1     -23.162   1.968  26.905  0.00  0.00    -0.446 OA
BRANCH  14  15
ATOM     15  C   UNL A   1     -24.277   2.093  26.054  0.00  0.00    +0.240 C 
ATOM     16  C   UNL A   1     -24.862   3.369  26.060  0.00  0.00    +0.316 C 
ATOM     17  F   UNL A   1     -24.251   4.261  25.462  0.00  0.00    -0.169 F 
ATOM     18  F   UNL A   1     -26.118   3.270  25.342  0.00  0.00    -0.169 F 
ENDBRANCH  14  15
ENDBRANCH   2  14
TORSDOF 3
ENDMDL
ENDMDL
