MODEL 2940
MODEL 1
REMARK VINA RESULT:    -5.505      0.000      0.000
REMARK INTER + INTRA:         -14.341
REMARK INTER:                 -10.332
REMARK INTRA:                  -4.010
REMARK UNBOUND:                -4.010
REMARK  Name = No_2940-gen_results/8p0m/2024-11-27-11-27-31/
REMARK  15 active torsions:
REMARK  status: ('A' for Active; 'I' for Inactive)
REMARK    1  A    between atoms: C_4  and  O_7
REMARK    2  A    between atoms: O_7  and  C_8
REMARK    3  A    between atoms: C_8  and  C_10
REMARK    4  A    between atoms: C_10  and  C_11
REMARK    5  A    between atoms: C_10  and  O_21
REMARK    6  A    between atoms: C_11  and  C_12
REMARK    7  A    between atoms: C_12  and  C_13
REMARK    8  A    between atoms: C_13  and  N_15
REMARK    9  A    between atoms: O_21  and  C_22
REMARK   10  A    between atoms: C_22  and  C_23
REMARK   11  A    between atoms: C_23  and  C_24
REMARK   12  A    between atoms: C_26  and  C_27
REMARK   13  A    between atoms: C_27  and  N_31
REMARK   14  A    between atoms: N_31  and  C_32
REMARK   15  A    between atoms: C_33  and  C_34
REMARK                            x       y       z     vdW  Elec       q    Type
REMARK                         _______ _______ _______ _____ _____    ______ ____
ROOT
ATOM      1  C   UNL A   1     -28.729   0.018  25.203  0.00  0.00    +0.189 C 
ENDROOT
BRANCH   1   2
ATOM      2  C   UNL A   1     -29.645  -0.320  24.267  0.00  0.00    +0.185 C 
ATOM      3  O   UNL A   1     -29.063  -1.456  23.546  0.00  0.00    -0.220 OA
BRANCH   2   4
ATOM      4  C   UNL A   1     -29.933   0.730  23.277  0.00  0.00    +0.068 C 
BRANCH   4   5
ATOM      5  C   UNL A   1     -31.355   1.191  23.260  0.00  0.00    +0.141 C 
ATOM      6 CL   UNL A   1     -32.350   0.714  24.297  0.00  0.00    -0.097 Cl
BRANCH   5   7
ATOM      7  N   UNL A   1     -31.324   2.688  23.201  0.00  0.00    -0.258 NA
ATOM      8  C   UNL A   1     -32.143   3.332  22.372  0.00  0.00    +0.091 C 
ATOM      9  C   UNL A   1     -30.607   3.365  24.148  0.00  0.00    +0.091 C 
ENDBRANCH   5   7
ENDBRANCH   4   5
ENDBRANCH   2   4
ENDBRANCH   1   2
BRANCH   1  10
ATOM     10  C   UNL A   1     -29.384   0.538  26.465  0.00  0.00    +0.237 C 
BRANCH  10  11
ATOM     11  O   UNL A   1     -28.956   0.056  27.517  0.00  0.00    -0.469 OA
BRANCH  11  15
ATOM     12  C   UNL A   1     -26.468   0.434  30.277  0.00  0.00    +0.057 A 
ATOM     13  C   UNL A   1     -26.171   1.422  30.059  0.00  0.00    +0.072 A 
ATOM     14  C   UNL A   1     -27.522  -0.140  29.426  0.00  0.00    +0.230 A 
ATOM     15  C   UNL A   1     -27.999   0.568  28.285  0.00  0.00    +0.178 A 
ATOM     16  C   UNL A   1     -27.475   1.822  28.093  0.00  0.00    +0.052 A 
ATOM     17  C   UNL A   1     -26.527   2.311  28.921  0.00  0.00    +0.071 A 
ATOM     18 CL   UNL A   1     -24.783   2.229  30.974  0.00  0.00    -0.081 Cl
ATOM     19  O   UNL A   1     -28.060  -1.391  29.644  0.00  0.00    -0.283 OA
ATOM     20 CL   UNL A   1     -25.823   3.868  28.641  0.00  0.00    -0.081 Cl
ENDBRANCH  11  15
ENDBRANCH  10  11
ENDBRANCH   1  10
BRANCH   1  21
ATOM     21  O   UNL A   1     -27.854   0.763  24.598  0.00  0.00    -0.349 OA
BRANCH  21  22
ATOM     22  C   UNL A   1     -26.421   0.400  24.396  0.00  0.00    +0.147 C 
BRANCH  22  23
ATOM     23  C   UNL A   1     -25.822  -0.258  25.581  0.00  0.00    +0.058 C 
BRANCH  23  24
ATOM     24  C   UNL A   1     -24.684   0.461  26.086  0.00  0.00    -0.020 A 
ATOM     25  C   UNL A   1     -24.197  -0.006  27.314  0.00  0.00    -0.007 A 
ATOM     26  C   UNL A   1     -23.125   0.829  27.809  0.00  0.00    -0.001 A 
ATOM     27  C   UNL A   1     -22.839   2.091  27.249  0.00  0.00    -0.003 A 
ATOM     28  C   UNL A   1     -23.445   2.530  26.058  0.00  0.00    -0.001 A 
ATOM     29  C   UNL A   1     -24.662   1.829  25.645  0.00  0.00    -0.004 A 
BRANCH  26  30
ATOM     30  C   UNL A   1     -22.407   0.413  28.906  0.00  0.00    +0.139 C 
BRANCH  30  31
ATOM     31  N   UNL A   1     -22.544  -0.821  29.451  0.00  0.00    -0.232 NA
BRANCH  31  32
ATOM     32  C   UNL A   1     -23.274  -1.094  30.539  0.00  0.00    +0.081 C 
ATOM     33  C   UNL A   1     -23.959  -2.348  30.514  0.00  0.00    +0.017 C 
BRANCH  33  34
ATOM     34  C   UNL A   1     -24.211  -2.841  29.563  0.00  0.00    +0.001 C 
ATOM     35  C   UNL A   1     -25.380  -3.613  29.183  0.00  0.00    +0.000 C 
ENDBRANCH  33  34
ENDBRANCH  31  32
ENDBRANCH  30  31
ENDBRANCH  26  30
ENDBRANCH  23  24
ENDBRANCH  22  23
ENDBRANCH  21  22
ENDBRANCH   1  21
TORSDOF 15
ENDMDL
ENDMDL
