MODEL 2944
MODEL 1
REMARK VINA RESULT:    -7.823      0.000      0.000
REMARK INTER + INTRA:         -10.026
REMARK INTER:                  -9.653
REMARK INTRA:                  -0.373
REMARK UNBOUND:                -0.373
REMARK  Name = No_2944-gen_results/8p0m/2024-11-27-11-27-31/
REMARK  4 active torsions:
REMARK  status: ('A' for Active; 'I' for Inactive)
REMARK    1  A    between atoms: C_1  and  C_11
REMARK    2  A    between atoms: C_5  and  C_6
REMARK    3  A    between atoms: C_11  and  O_12
REMARK    4  A    between atoms: O_12  and  C_15
REMARK                            x       y       z     vdW  Elec       q    Type
REMARK                         _______ _______ _______ _____ _____    ______ ____
ROOT
ATOM      1  C   UNL A   1     -23.007  -0.091  28.272  0.00  0.00    +0.106 A 
ATOM      2  C   UNL A   1     -21.986   0.555  28.223  0.00  0.00    +0.174 A 
ATOM      3  C   UNL A   1     -21.819   1.660  27.411  0.00  0.00    +0.168 A 
ATOM      4  C   UNL A   1     -22.926   2.080  26.620  0.00  0.00    +0.038 A 
ATOM      5  C   UNL A   1     -24.093   1.430  26.837  0.00  0.00    +0.082 A 
ATOM      6  C   UNL A   1     -24.132   0.401  27.674  0.00  0.00    +0.015 A 
ATOM      7  F   UNL A   1     -20.800   0.147  28.912  0.00  0.00    -0.202 F 
ATOM      8  F   UNL A   1     -20.606   2.285  27.289  0.00  0.00    -0.202 F 
ENDROOT
BRANCH   5   9
ATOM      9  C   UNL A   1     -25.202   1.913  26.123  0.00  0.00    +0.388 C 
ATOM     10  O   UNL A   1     -25.763   1.184  25.430  0.00  0.00    -0.241 OA
ATOM     11  O   UNL A   1     -25.296   3.245  25.876  0.00  0.00    -0.241 OA
ENDBRANCH   5   9
BRANCH   1  12
ATOM     12  C   UNL A   1     -23.099  -1.319  29.229  0.00  0.00    +0.348 C 
ATOM     13  O   UNL A   1     -23.086  -0.952  30.518  0.00  0.00    -0.244 OA
BRANCH  12  14
ATOM     14  O   UNL A   1     -23.125  -2.419  28.936  0.00  0.00    -0.421 OA
BRANCH  14  15
ATOM     15  C   UNL A   1     -24.256  -3.131  28.826  0.00  0.00    +0.149 A 
ATOM     16  C   UNL A   1     -24.086  -4.480  28.572  0.00  0.00    +0.038 A 
ATOM     17  C   UNL A   1     -24.945  -5.385  29.190  0.00  0.00    +0.003 A 
ATOM     18  C   UNL A   1     -26.188  -4.918  29.632  0.00  0.00    +0.000 A 
ATOM     19  C   UNL A   1     -26.376  -3.543  29.752  0.00  0.00    +0.003 A 
ATOM     20  C   UNL A   1     -25.348  -2.629  29.448  0.00  0.00    +0.038 A 
ENDBRANCH  14  15
ENDBRANCH  12  14
ENDBRANCH   1  12
TORSDOF 4
ENDMDL
ENDMDL
