REMARK  Name = No_2944-gen_results/8p0m/2024-11-27-11-27-31/
REMARK  4 active torsions:
REMARK  status: ('A' for Active; 'I' for Inactive)
REMARK    1  A    between atoms: C_1  and  C_11
REMARK    2  A    between atoms: C_5  and  C_6
REMARK    3  A    between atoms: C_11  and  O_12
REMARK    4  A    between atoms: O_12  and  C_15
REMARK                            x       y       z     vdW  Elec       q    Type
REMARK                         _______ _______ _______ _____ _____    ______ ____
ROOT
ATOM      1  C   UNL A   1     -28.016  -0.814  28.878  0.00  0.00    +0.106 A 
ATOM      2  C   UNL A   1     -27.064  -0.119  28.608  0.00  0.00    +0.174 A 
ATOM      3  C   UNL A   1     -27.001   0.691  27.491  0.00  0.00    +0.168 A 
ATOM      4  C   UNL A   1     -28.137   0.736  26.635  0.00  0.00    +0.038 A 
ATOM      5  C   UNL A   1     -29.236   0.076  27.069  0.00  0.00    +0.082 A 
ATOM      6  C   UNL A   1     -29.180  -0.642  28.183  0.00  0.00    +0.015 A 
ATOM      7  F   UNL A   1     -25.849  -0.178  29.362  0.00  0.00    -0.202 F 
ATOM      8  F   UNL A   1     -25.854   1.361  27.154  0.00  0.00    -0.202 F 
ENDROOT
BRANCH   5   9
ATOM      9  C   UNL A   1     -30.381   0.205  26.266  0.00  0.00    +0.388 C 
ATOM     10  O   UNL A   1     -31.326  -0.381  26.566  0.00  0.00    -0.241 OA
ATOM     11  O   UNL A   1     -30.237   0.582  24.969  0.00  0.00    -0.241 OA
ENDBRANCH   5   9
BRANCH   1  12
ATOM     12  C   UNL A   1     -27.994  -1.688  30.169  0.00  0.00    +0.348 C 
ATOM     13  O   UNL A   1     -27.610  -2.947  29.916  0.00  0.00    -0.244 OA
BRANCH  12  14
ATOM     14  O   UNL A   1     -28.302  -1.372  31.219  0.00  0.00    -0.421 OA
BRANCH  14  15
ATOM     15  C   UNL A   1     -29.538  -0.964  31.539  0.00  0.00    +0.149 A 
ATOM     16  C   UNL A   1     -29.659   0.380  31.844  0.00  0.00    +0.038 A 
ATOM     17  C   UNL A   1     -30.798   1.057  31.416  0.00  0.00    +0.003 A 
ATOM     18  C   UNL A   1     -31.946   0.307  31.138  0.00  0.00    +0.000 A 
ATOM     19  C   UNL A   1     -31.815  -1.069  30.967  0.00  0.00    +0.003 A 
ATOM     20  C   UNL A   1     -30.562  -1.707  31.059  0.00  0.00    +0.038 A 
ENDBRANCH  14  15
ENDBRANCH  12  14
ENDBRANCH   1  12
TORSDOF 4
