MODEL 2945
MODEL 1
REMARK VINA RESULT:    -6.788      0.000      0.000
REMARK INTER + INTRA:          -6.788
REMARK INTER:                  -6.788
REMARK INTRA:                   0.000
REMARK UNBOUND:                 0.000
REMARK  Name = No_2945-gen_results/8p0m/2024-11-27-11-27-31/
REMARK  0 active torsions:
REMARK  status: ('A' for Active; 'I' for Inactive)
REMARK                            x       y       z     vdW  Elec       q    Type
REMARK                         _______ _______ _______ _____ _____    ______ ____
ROOT
ATOM      1 CL   UNL A   1     -26.794  -0.141  29.869  0.00  0.00    -0.082 Cl
ATOM      2  C   UNL A   1     -25.549  -0.668  30.030  0.00  0.00    +0.058 A 
ATOM      3  C   UNL A   1     -24.500  -0.095  29.534  0.00  0.00    +0.011 A 
ATOM      4  C   UNL A   1     -24.653   1.159  28.779  0.00  0.00    +0.001 A 
ATOM      5  C   UNL A   1     -23.750   1.782  27.916  0.00  0.00    +0.000 A 
ATOM      6  C   UNL A   1     -22.451   1.176  27.879  0.00  0.00    +0.000 A 
ATOM      7  C   UNL A   1     -22.109   0.045  28.619  0.00  0.00    +0.000 A 
ATOM      8  C   UNL A   1     -23.100  -0.606  29.366  0.00  0.00    +0.001 A 
ATOM      9  C   UNL A   1     -25.515  -2.160  29.670  0.00  0.00    +0.011 A 
ATOM     10  C   UNL A   1     -26.463  -2.952  29.899  0.00  0.00    +0.001 A 
ATOM     11  C   UNL A   1     -26.434  -4.402  29.645  0.00  0.00    +0.000 A 
ATOM     12  C   UNL A   1     -25.200  -4.951  29.216  0.00  0.00    +0.000 A 
ATOM     13  C   UNL A   1     -24.075  -4.067  29.003  0.00  0.00    +0.000 A 
ATOM     14  C   UNL A   1     -24.212  -2.719  29.273  0.00  0.00    +0.001 A 
ATOM     15  C   UNL A   1     -23.047  -1.892  29.080  0.00  0.00    +0.000 A 
ENDROOT
TORSDOF 0
ENDMDL
ENDMDL
