MODEL 2946
MODEL 1
REMARK VINA RESULT:    -8.726      0.000      0.000
REMARK INTER + INTRA:          -8.724
REMARK INTER:                  -9.236
REMARK INTRA:                   0.513
REMARK UNBOUND:                 0.513
REMARK  Name = No_2946-gen_results/8p0m/2024-11-27-11-27-31/
REMARK  1 active torsions:
REMARK  status: ('A' for Active; 'I' for Inactive)
REMARK    1  A    between atoms: C_16  and  C_17
REMARK                            x       y       z     vdW  Elec       q    Type
REMARK                         _______ _______ _______ _____ _____    ______ ____
ROOT
ATOM      1 BR   UNL A   1     -26.287  -0.250  27.666  0.00  0.00    -0.049 Br
ATOM      2  C   UNL A   1     -25.043   0.259  27.375  0.00  0.00    +0.031 A 
ATOM      3  C   UNL A   1     -23.971  -0.072  28.213  0.00  0.00    -0.007 A 
ATOM      4  C   UNL A   1     -22.749   0.481  28.000  0.00  0.00    +0.016 A 
ATOM      5  C   UNL A   1     -22.490   1.421  26.953  0.00  0.00    +0.001 A 
ATOM      6  C   UNL A   1     -23.524   1.785  26.159  0.00  0.00    +0.001 A 
ATOM      7  C   UNL A   1     -24.759   1.273  26.378  0.00  0.00    +0.006 A 
ATOM      8  C   UNL A   1     -21.597   0.123  28.901  0.00  0.00    +0.099 C 
ATOM      9  N   UNL A   1     -21.693  -0.267  29.926  0.00  0.00    -0.244 NA
ATOM     10  C   UNL A   1     -22.824  -0.390  30.663  0.00  0.00    +0.078 A 
ATOM     11  C   UNL A   1     -22.641  -1.147  31.960  0.00  0.00    +0.019 A 
ATOM     12  C   UNL A   1     -23.825  -1.323  32.729  0.00  0.00    +0.002 A 
ATOM     13  C   UNL A   1     -24.996  -0.625  32.529  0.00  0.00    -0.000 A 
ATOM     14  C   UNL A   1     -25.043   0.158  31.367  0.00  0.00    -0.002 A 
ATOM     15  C   UNL A   1     -23.999   0.301  30.537  0.00  0.00    +0.003 A 
ATOM     16  C   UNL A   1     -24.356  -0.480  29.569  0.00  0.00    +0.069 C 
ENDROOT
BRANCH  16  17
ATOM     17  C   UNL A   1     -24.742  -1.905  29.674  0.00  0.00    -0.014 A 
ATOM     18  C   UNL A   1     -25.896  -2.305  30.066  0.00  0.00    -0.004 A 
ATOM     19  C   UNL A   1     -26.361  -3.633  29.763  0.00  0.00    -0.000 A 
ATOM     20  C   UNL A   1     -25.530  -4.574  29.289  0.00  0.00    -0.000 A 
ATOM     21  C   UNL A   1     -23.865  -2.871  29.070  0.00  0.00    -0.004 A 
ATOM     22  C   UNL A   1     -24.240  -4.181  28.903  0.00  0.00    -0.000 A 
ENDBRANCH  16  17
TORSDOF 1
ENDMDL
ENDMDL
