MODEL 2947
MODEL 1
REMARK VINA RESULT:    -4.468      0.000      0.000
REMARK INTER + INTRA:          -4.468
REMARK INTER:                  -4.468
REMARK INTRA:                   0.000
REMARK UNBOUND:                 0.000
REMARK  Name = No_2947-gen_results/8p0m/2024-11-27-11-27-31/
REMARK  0 active torsions:
REMARK  status: ('A' for Active; 'I' for Inactive)
REMARK                            x       y       z     vdW  Elec       q    Type
REMARK                         _______ _______ _______ _____ _____    ______ ____
ROOT
ATOM      1  C   UNL A   1     -25.306  -2.597  29.599  0.00  0.00    +0.011 A 
ATOM      2  C   UNL A   1     -24.253  -2.924  29.103  0.00  0.00    +0.058 A 
ATOM      3  C   UNL A   1     -24.009  -4.244  28.739  0.00  0.00    +0.011 A 
ATOM      4  C   UNL A   1     -24.986  -5.273  28.985  0.00  0.00    +0.001 A 
ATOM      5  C   UNL A   1     -26.166  -4.812  29.584  0.00  0.00    +0.000 A 
ATOM      6  C   UNL A   1     -26.341  -3.555  29.923  0.00  0.00    +0.001 A 
ATOM      7 CL   UNL A   1     -23.065  -1.728  28.941  0.00  0.00    -0.082 Cl
ENDROOT
TORSDOF 0
ENDMDL
ENDMDL
