MODEL 2948
MODEL 1
REMARK VINA RESULT:    -6.419      0.000      0.000
REMARK INTER + INTRA:          -7.920
REMARK INTER:                  -7.919
REMARK INTRA:                  -0.001
REMARK UNBOUND:                -0.001
REMARK  Name = No_2948-gen_results/8p0m/2024-11-27-11-27-31/
REMARK  4 active torsions:
REMARK  status: ('A' for Active; 'I' for Inactive)
REMARK    1  A    between atoms: C_2  and  C_3
REMARK    2  A    between atoms: C_2  and  C_11
REMARK    3  A    between atoms: C_3  and  C_4
REMARK    4  A    between atoms: C_4  and  C_5
REMARK                            x       y       z     vdW  Elec       q    Type
REMARK                         _______ _______ _______ _____ _____    ______ ____
ROOT
ATOM      1  C   UNL A   1     -23.607  -1.588  29.047  0.00  0.00    +0.029 C 
ENDROOT
BRANCH   1   2
ATOM      2  C   UNL A   1     -24.179  -2.501  29.197  0.00  0.00    +0.111 C 
ATOM      3  C   UNL A   1     -25.593  -2.605  29.764  0.00  0.00    -0.006 C 
ATOM      4  C   UNL A   1     -26.295  -3.831  29.814  0.00  0.00    +0.005 C 
ATOM      5  C   UNL A   1     -25.637  -4.977  29.350  0.00  0.00    +0.041 C 
ATOM      6  C   UNL A   1     -23.906  -3.920  28.722  0.00  0.00    +0.034 C 
ATOM      7  C   UNL A   1     -24.585  -5.024  28.849  0.00  0.00    -0.104 C 
ATOM      8 CL   UNL A   1     -23.777  -2.993  29.166  0.00  0.00    -0.107 Cl
ENDBRANCH   1   2
BRANCH   1   9
ATOM      9  C   UNL A   1     -24.251  -0.378  28.597  0.00  0.00    +0.028 C 
BRANCH   9  11
ATOM     10  C   UNL A   1     -24.320   0.646  26.534  0.00  0.00    -0.005 C 
ATOM     11  C   UNL A   1     -23.792   0.477  27.609  0.00  0.00    -0.022 C 
BRANCH  11  12
ATOM     12  C   UNL A   1     -22.813   1.310  28.186  0.00  0.00    -0.009 C 
ATOM     13  C   UNL A   1     -21.641   1.579  27.430  0.00  0.00    -0.026 C 
ATOM     14  C   UNL A   1     -22.715   1.900  26.977  0.00  0.00    +0.031 C 
ENDBRANCH  11  12
ENDBRANCH   9  11
ENDBRANCH   1   9
TORSDOF 4
ENDMDL
ENDMDL
