MODEL 2949
MODEL 1
REMARK VINA RESULT:    -4.890      0.000      0.000
REMARK INTER + INTRA:          -5.249
REMARK INTER:                  -5.176
REMARK INTRA:                  -0.073
REMARK UNBOUND:                -0.073
REMARK  Name = No_2949-gen_results/8p0m/2024-11-27-11-27-31/
REMARK  1 active torsions:
REMARK  status: ('A' for Active; 'I' for Inactive)
REMARK    1  A    between atoms: C_2  and  C_7
REMARK                            x       y       z     vdW  Elec       q    Type
REMARK                         _______ _______ _______ _____ _____    ______ ____
ROOT
ATOM      1  C   UNL A   1     -23.909  -3.550  28.596  0.00  0.00    -0.000 A 
ATOM      2  C   UNL A   1     -24.622  -2.621  28.896  0.00  0.00    -0.000 A 
ATOM      3  C   UNL A   1     -25.859  -2.830  29.496  0.00  0.00    -0.000 A 
ATOM      4  C   UNL A   1     -26.350  -4.162  29.738  0.00  0.00    -0.000 A 
ATOM      5  C   UNL A   1     -25.471  -5.178  29.339  0.00  0.00    -0.000 A 
ATOM      6  C   UNL A   1     -24.319  -4.928  28.760  0.00  0.00    -0.000 A 
ENDROOT
BRANCH   2   7
ATOM      7  C   UNL A   1     -24.291  -1.185  28.695  0.00  0.00    -0.005 C 
ATOM      8  C   UNL A   1     -23.432  -0.553  29.416  0.00  0.00    -0.026 C 
ATOM      9  C   UNL A   1     -23.248  -1.010  30.858  0.00  0.00    +0.031 C 
ENDBRANCH   2   7
TORSDOF 1
ENDMDL
ENDMDL
