MODEL 294
MODEL 1
REMARK VINA RESULT:    -6.804      0.000      0.000
REMARK INTER + INTRA:         -12.659
REMARK INTER:                 -10.384
REMARK INTRA:                  -2.275
REMARK UNBOUND:                -2.275
REMARK  Name = No_294-gen_results/8p0m/2024-11-27-11-27-31/
REMARK  9 active torsions:
REMARK  status: ('A' for Active; 'I' for Inactive)
REMARK    1  A    between atoms: C_3  and  C_4
REMARK    2  A    between atoms: C_6  and  O_16
REMARK    3  A    between atoms: C_7  and  C_13
REMARK    4  A    between atoms: C_10  and  O_25
REMARK    5  A    between atoms: C_13  and  O_15
REMARK    6  A    between atoms: O_15  and  C_18
REMARK    7  A    between atoms: C_18  and  C_19
REMARK    8  A    between atoms: O_25  and  C_26
REMARK    9  A    between atoms: C_30  and  O_34
REMARK                            x       y       z     vdW  Elec       q    Type
REMARK                         _______ _______ _______ _____ _____    ______ ____
ROOT
ATOM      1  C   UNL A   1     -24.373  -0.367  27.764  0.00  0.00    +0.038 A 
ATOM      2  C   UNL A   1     -23.159   0.395  27.764  0.00  0.00    +0.040 A 
ATOM      3  C   UNL A   1     -22.069   0.029  28.570  0.00  0.00    +0.139 A 
ATOM      4  C   UNL A   1     -24.435  -1.400  28.694  0.00  0.00    +0.145 A 
ATOM      5  C   UNL A   1     -23.450  -1.604  29.719  0.00  0.00    +0.041 A 
ATOM      6  C   UNL A   1     -22.229  -0.893  29.573  0.00  0.00    +0.040 A 
ENDROOT
BRANCH   1   9
ATOM      7  C   UNL A   1     -27.329   1.279  26.443  0.00  0.00    +0.006 A 
ATOM      8  C   UNL A   1     -26.459   0.917  27.201  0.00  0.00    +0.000 A 
ATOM      9  C   UNL A   1     -25.446   0.084  26.850  0.00  0.00    +0.003 A 
ATOM     10  C   UNL A   1     -27.291   0.848  25.033  0.00  0.00    +0.076 A 
ATOM     11  C   UNL A   1     -26.350   0.010  24.614  0.00  0.00    +0.006 A 
ATOM     12  C   UNL A   1     -25.368  -0.398  25.506  0.00  0.00    +0.000 A 
BRANCH  10  13
ATOM     13  C   UNL A   1     -28.371   1.382  24.158  0.00  0.00    +0.345 C 
ATOM     14  O   UNL A   1     -28.573   2.559  24.033  0.00  0.00    -0.245 OA
BRANCH  13  15
ATOM     15  O   UNL A   1     -29.003   0.575  23.396  0.00  0.00    -0.391 OA
BRANCH  15  16
ATOM     16  C   UNL A   1     -30.017   0.002  23.619  0.00  0.00    +0.502 C 
ATOM     17  F   UNL A   1     -30.956   0.688  22.844  0.00  0.00    -0.156 F 
ATOM     18  F   UNL A   1     -30.404   0.522  24.923  0.00  0.00    -0.156 F 
BRANCH  16  19
ATOM     19  C   UNL A   1     -30.127  -1.303  23.581  0.00  0.00    +0.497 C 
ATOM     20  F   UNL A   1     -30.374  -1.889  24.770  0.00  0.00    -0.162 F 
ATOM     21  F   UNL A   1     -31.197  -1.684  22.785  0.00  0.00    -0.162 F 
ATOM     22  F   UNL A   1     -29.087  -1.950  23.001  0.00  0.00    -0.162 F 
ENDBRANCH  16  19
ENDBRANCH  15  16
ENDBRANCH  13  15
ENDBRANCH  10  13
ENDBRANCH   1   9
BRANCH   3  23
ATOM     23  O   UNL A   1     -20.904   0.666  28.337  0.00  0.00    -0.471 OA
ATOM     24  C   UNL A   1     -21.114   1.767  27.389  0.00  0.00    +0.253 C 
ENDBRANCH   3  23
BRANCH   4  25
ATOM     25  O   UNL A   1     -25.597  -2.063  28.862  0.00  0.00    -0.453 OA
BRANCH  25  26
ATOM     26  C   UNL A   1     -26.449  -2.164  29.655  0.00  0.00    +0.149 A 
ATOM     27  C   UNL A   1     -26.942  -3.424  29.984  0.00  0.00    +0.050 A 
ATOM     28  C   UNL A   1     -28.054  -3.474  30.750  0.00  0.00    +0.074 A 
ATOM     29  C   UNL A   1     -27.043  -1.083  30.353  0.00  0.00    +0.075 A 
ATOM     30  C   UNL A   1     -28.118  -1.102  31.162  0.00  0.00    +0.153 A 
ATOM     31  C   UNL A   1     -28.622  -2.385  31.435  0.00  0.00    +0.102 A 
ATOM     32 CL   UNL A   1     -29.941  -2.563  32.495  0.00  0.00    -0.078 Cl
ATOM     33 CL   UNL A   1     -28.722  -5.090  31.127  0.00  0.00    -0.081 Cl
BRANCH  30  34
ATOM     34  O   UNL A   1     -28.575  -0.002  31.793  0.00  0.00    -0.470 OA
ATOM     35  C   UNL A   1     -28.096   0.474  32.950  0.00  0.00    +0.253 C 
ENDBRANCH  30  34
ENDBRANCH  25  26
ENDBRANCH   4  25
TORSDOF 9
ENDMDL
ENDMDL
