MODEL 2950
MODEL 1
REMARK VINA RESULT:    -6.766      0.000      0.000
REMARK INTER + INTRA:          -6.766
REMARK INTER:                  -6.766
REMARK INTRA:                   0.000
REMARK UNBOUND:                 0.000
REMARK  Name = No_2950-gen_results/8p0m/2024-11-27-11-27-31/
REMARK  0 active torsions:
REMARK  status: ('A' for Active; 'I' for Inactive)
REMARK                            x       y       z     vdW  Elec       q    Type
REMARK                         _______ _______ _______ _____ _____    ______ ____
ROOT
ATOM      1  C   UNL A   1     -24.708   0.699  29.438  0.00  0.00    +0.004 C 
ATOM      2  C   UNL A   1     -24.432   0.029  30.202  0.00  0.00    +0.004 C 
ATOM      3  C   UNL A   1     -25.095   0.156  28.193  0.00  0.00    +0.025 C 
ATOM      4  C   UNL A   1     -25.106  -1.205  27.962  0.00  0.00    +0.048 C 
ATOM      5  C   UNL A   1     -24.736  -2.015  29.023  0.00  0.00    +0.166 C 
ATOM      6  C   UNL A   1     -24.404  -1.427  30.230  0.00  0.00    +0.043 C 
ATOM      7  C   UNL A   1     -25.529   0.999  27.025  0.00  0.00    +0.004 C 
ATOM      8  C   UNL A   1     -26.826   0.736  26.560  0.00  0.00    +0.000 C 
ATOM      9  C   UNL A   1     -24.733   1.950  26.431  0.00  0.00    +0.005 C 
ATOM     10  C   UNL A   1     -23.429   2.147  26.779  0.00  0.00    +0.026 C 
ATOM     11  C   UNL A   1     -22.740   1.218  27.502  0.00  0.00    -0.023 A 
ATOM     12  C   UNL A   1     -21.434   1.375  27.533  0.00  0.00    -0.004 A 
ATOM     13  C   UNL A   1     -20.582   0.444  28.311  0.00  0.00    +0.003 A 
ATOM     14  C   UNL A   1     -21.284  -0.529  29.006  0.00  0.00    +0.036 A 
ATOM     15  C   UNL A   1     -22.563  -0.803  28.860  0.00  0.00    +0.134 A 
ATOM     16  C   UNL A   1     -23.295   0.126  27.957  0.00  0.00    +0.007 A 
ATOM     17  O   UNL A   1     -22.884  -1.977  28.977  0.00  0.00    -0.479 OA
ENDROOT
TORSDOF 0
ENDMDL
ENDMDL
