REMARK  Name = outputs/IAG933/test6/raw/output_2950_IAG933_linker_design_.xyz
REMARK  12 active torsions:
REMARK  status: ('A' for Active; 'I' for Inactive)
REMARK    1  A    between atoms: C_1  and  C_2
REMARK    2  A    between atoms: C_1  and  C_8
REMARK    3  A    between atoms: C_1  and  C_37
REMARK    4  A    between atoms: C_13  and  N_35
REMARK    5  A    between atoms: C_14  and  C_15
REMARK    6  A    between atoms: C_21  and  O_22
REMARK    7  A    between atoms: O_22  and  C_23
REMARK    8  A    between atoms: C_23  and  C_24
REMARK    9  A    between atoms: C_29  and  C_37
REMARK   10  A    between atoms: C_31  and  C_32
REMARK   11  A    between atoms: C_32  and  C_42
REMARK   12  A    between atoms: N_34  and  C_37
REMARK                            x       y       z     vdW  Elec       q    Type
REMARK                         _______ _______ _______ _____ _____    ______ ____
ROOT
ATOM      1  C   UNL A   1     -23.925   0.277  28.661  0.00  0.00    +0.041 C 
ATOM      2  C   UNL A   1     -23.122   1.679  26.779  0.00  0.00    +0.080 C 
ATOM      3  N   UNL A   1     -24.235   1.369  26.582  0.00  0.00    -0.265 NA
ATOM      4  C   UNL A   1     -21.635   0.826  28.490  0.00  0.00    -0.029 C 
ATOM      5  C   UNL A   1     -21.768   1.562  27.419  0.00  0.00    -0.015 C 
ATOM      6  C   UNL A   1     -22.642   0.129  29.115  0.00  0.00    +0.029 C 
ATOM      7  C   UNL A   1     -23.929   1.105  27.455  0.00  0.00    +0.077 C 
ENDROOT
BRANCH   3   8
ATOM      8  C   UNL A   1     -25.688   1.614  26.461  0.00  0.00    +0.129 C 
ATOM      9  C   UNL A   1     -26.250   2.920  26.395  0.00  0.00    +0.070 C 
ATOM     10  C   UNL A   1     -27.438   3.091  25.645  0.00  0.00    +0.103 C 
ATOM     11  N   UNL A   1     -28.075   2.089  25.003  0.00  0.00    -0.212 NA
ATOM     12  C   UNL A   1     -27.543   0.849  25.079  0.00  0.00    +0.235 C 
ATOM     13  C   UNL A   1     -26.354   0.576  25.777  0.00  0.00    +0.255 C 
ATOM     14  F   UNL A   1     -25.860  -0.681  25.795  0.00  0.00    -0.225 F 
BRANCH   9  15
ATOM     15  C   UNL A   1     -25.642   4.093  27.123  0.00  0.00    +0.264 C 
ATOM     16  N   UNL A   1     -25.614   5.252  26.449  0.00  0.00    -0.200 NA
ATOM     17  C   UNL A   1     -25.026   6.479  26.963  0.00  0.00    +0.139 C 
ATOM     18  O   UNL A   1     -25.143   3.966  28.243  0.00  0.00    -0.269 OA
ENDBRANCH   9  15
BRANCH  12  19
ATOM     19  O   UNL A   1     -28.193  -0.208  24.477  0.00  0.00    -0.459 OA
BRANCH  19  20
ATOM     20  C   UNL A   1     -29.460   0.005  23.866  0.00  0.00    +0.242 C 
BRANCH  20  21
ATOM     21  C   UNL A   1     -30.065  -1.377  23.573  0.00  0.00    +0.229 C 
ATOM     22  O   UNL A   1     -30.729  -1.878  24.721  0.00  0.00    -0.216 OA
ENDBRANCH  20  21
ENDBRANCH  19  20
ENDBRANCH  12  19
ENDBRANCH   3   8
BRANCH   2  23
ATOM     23  C   UNL A   1     -22.788   2.685  25.527  0.00  0.00    +0.056 C 
BRANCH  23  25
ATOM     24  O   UNL A   1     -24.171   1.051  24.069  0.00  0.00    -0.220 OA
ATOM     25  C   UNL A   1     -23.043   1.823  24.333  0.00  0.00    +0.184 C 
ENDBRANCH  23  25
ENDBRANCH   2  23
BRANCH   1  26
ATOM     26  C   UNL A   1     -25.020   0.343  29.350  0.00  0.00    +0.106 C 
BRANCH  26  29
ATOM     27  C   UNL A   1     -27.357   0.168  28.607  0.00  0.00    +0.463 C 
ATOM     28  O   UNL A   1     -28.009  -0.959  28.884  0.00  0.00    -0.221 OA
ATOM     29  N   UNL A   1     -26.033  -0.128  28.411  0.00  0.00    -0.167 NA
ATOM     30  O   UNL A   1     -28.010   1.165  28.411  0.00  0.00    -0.221 OA
ENDBRANCH  26  29
BRANCH  26  31
ATOM     31  C   UNL A   1     -24.855  -1.012  30.143  0.00  0.00    +0.059 C 
BRANCH  31  32
ATOM     32  C   UNL A   1     -24.973  -2.505  29.788  0.00  0.00    -0.019 C 
ATOM     33  C   UNL A   1     -23.906  -3.173  29.146  0.00  0.00    -0.004 C 
ATOM     34  C   UNL A   1     -23.989  -4.549  28.853  0.00  0.00    -0.000 C 
ATOM     35  C   UNL A   1     -25.137  -5.280  29.205  0.00  0.00    -0.000 C 
ATOM     36  C   UNL A   1     -26.232  -4.611  29.784  0.00  0.00    -0.000 C 
ATOM     37  C   UNL A   1     -26.155  -3.232  30.065  0.00  0.00    -0.004 C 
ENDBRANCH  31  32
BRANCH  31  38
ATOM     38  C   UNL A   1     -25.387  -0.679  31.571  0.00  0.00    +0.079 C 
ATOM     39  C   UNL A   1     -25.189   0.773  32.028  0.00  0.00    +0.019 C 
ATOM     40  C   UNL A   1     -25.336   0.684  33.544  0.00  0.00    +0.020 C 
ATOM     41  C   UNL A   1     -24.829  -0.715  33.905  0.00  0.00    +0.089 C 
ATOM     42  N   UNL A   1     -24.758  -1.481  32.646  0.00  0.00    -0.219 NA
ENDBRANCH  31  38
ENDBRANCH  26  31
ENDBRANCH   1  26
TORSDOF 12
