MODEL 2951
MODEL 1
REMARK VINA RESULT:    -6.613      0.000      0.000
REMARK INTER + INTRA:          -8.630
REMARK INTER:                  -8.160
REMARK INTRA:                  -0.471
REMARK UNBOUND:                -0.471
REMARK  Name = No_2951-gen_results/8p0m/2024-11-27-11-27-31/
REMARK  4 active torsions:
REMARK  status: ('A' for Active; 'I' for Inactive)
REMARK    1  A    between atoms: C_1  and  C_2
REMARK    2  A    between atoms: C_1  and  N_8
REMARK    3  A    between atoms: C_5  and  C_17
REMARK    4  A    between atoms: C_9  and  C_10
REMARK                            x       y       z     vdW  Elec       q    Type
REMARK                         _______ _______ _______ _____ _____    ______ ____
ROOT
ATOM      1  C   UNL A   1     -23.193  -1.573  29.138  0.00  0.00    +0.142 C 
ENDROOT
BRANCH   1   2
ATOM      2  C   UNL A   1     -24.112  -2.326  29.360  0.00  0.00    -0.001 A 
ATOM      3  C   UNL A   1     -25.320  -1.857  29.866  0.00  0.00    -0.003 A 
ATOM      4  C   UNL A   1     -26.519  -2.683  30.190  0.00  0.00    +0.001 A 
ATOM      5  C   UNL A   1     -26.459  -4.051  29.794  0.00  0.00    +0.021 A 
ATOM      6  C   UNL A   1     -25.247  -4.493  29.227  0.00  0.00    +0.001 A 
ATOM      7  C   UNL A   1     -24.180  -3.711  29.009  0.00  0.00    -0.003 A 
BRANCH   5   8
ATOM      8  C   UNL A   1     -27.636  -4.850  30.051  0.00  0.00    +0.122 C 
ATOM      9  N   UNL A   1     -28.876  -4.299  29.946  0.00  0.00    -0.146 NA
ENDBRANCH   5   8
ENDBRANCH   1   2
BRANCH   1  10
ATOM     10  N   UNL A   1     -23.125  -0.422  29.958  0.00  0.00    -0.197 NA
ATOM     11  C   UNL A   1     -23.130   0.822  29.536  0.00  0.00    +0.265 C 
ATOM     12  O   UNL A   1     -23.068   1.764  30.407  0.00  0.00    -0.268 OA
BRANCH  11  13
ATOM     13  C   UNL A   1     -23.088   1.099  28.243  0.00  0.00    +0.055 A 
ATOM     14  C   UNL A   1     -22.185   1.606  27.588  0.00  0.00    +0.005 A 
ATOM     15  C   UNL A   1     -22.227   1.917  26.170  0.00  0.00    +0.000 A 
ATOM     16  C   UNL A   1     -23.491   1.897  25.550  0.00  0.00    +0.000 A 
ATOM     17  C   UNL A   1     -24.630   1.473  26.303  0.00  0.00    +0.000 A 
ATOM     18  C   UNL A   1     -24.527   1.149  27.638  0.00  0.00    +0.005 A 
ENDBRANCH  11  13
ENDBRANCH   1  10
TORSDOF 4
ENDMDL
ENDMDL
