REMARK  Name = outputs/IAG933/test6/raw/output_2951_IAG933_linker_design_.xyz
REMARK  13 active torsions:
REMARK  status: ('A' for Active; 'I' for Inactive)
REMARK    1  A    between atoms: C_1  and  C_2
REMARK    2  A    between atoms: C_1  and  C_8
REMARK    3  A    between atoms: C_1  and  C_28
REMARK    4  A    between atoms: C_13  and  C_40
REMARK    5  A    between atoms: C_14  and  C_15
REMARK    6  A    between atoms: C_21  and  O_22
REMARK    7  A    between atoms: O_22  and  C_23
REMARK    8  A    between atoms: C_23  and  C_24
REMARK    9  A    between atoms: C_29  and  C_31
REMARK   10  A    between atoms: C_29  and  C_45
REMARK   11  A    between atoms: N_30  and  C_34
REMARK   12  A    between atoms: N_30  and  C_43
REMARK   13  A    between atoms: C_31  and  C_36
REMARK                            x       y       z     vdW  Elec       q    Type
REMARK                         _______ _______ _______ _____ _____    ______ ____
ROOT
ATOM      1  C   UNL A   1     -24.114  -0.039  29.160  0.00  0.00    +0.022 C 
ATOM      2  F   UNL A   1     -20.140   2.170  27.918  0.00  0.00    -0.204 F 
ATOM      3  C   UNL A   1     -25.018   1.037  28.708  0.00  0.00    +0.080 C 
ATOM      4  C   UNL A   1     -21.240   1.413  27.630  0.00  0.00    +0.278 C 
ATOM      5  C   UNL A   1     -23.254   2.274  26.604  0.00  0.00    +0.151 C 
ATOM      6  O   UNL A   1     -21.897   1.889  26.362  0.00  0.00    -0.326 OA
ATOM      7  C   UNL A   1     -22.644   0.349  29.403  0.00  0.00    +0.007 C 
ATOM      8  C   UNL A   1     -24.484   1.540  27.331  0.00  0.00    +0.071 C 
ATOM      9  C   UNL A   1     -21.687   0.356  28.279  0.00  0.00    +0.067 C 
ENDROOT
BRANCH   8  10
ATOM     10  C   UNL A   1     -25.688   1.614  26.461  0.00  0.00    +0.019 C 
ATOM     11  C   UNL A   1     -26.250   2.920  26.395  0.00  0.00    +0.073 C 
ATOM     12  C   UNL A   1     -27.438   3.091  25.645  0.00  0.00    +0.106 C 
ATOM     13  N   UNL A   1     -28.075   2.089  25.003  0.00  0.00    -0.208 NA
ATOM     14  C   UNL A   1     -27.543   0.849  25.079  0.00  0.00    +0.253 C 
ATOM     15  C   UNL A   1     -26.354   0.576  25.777  0.00  0.00    +0.189 C 
ATOM     16  F   UNL A   1     -25.860  -0.681  25.795  0.00  0.00    -0.200 F 
BRANCH  11  17
ATOM     17  C   UNL A   1     -25.642   4.093  27.123  0.00  0.00    +0.266 C 
ATOM     18  N   UNL A   1     -25.614   5.252  26.449  0.00  0.00    -0.200 NA
ATOM     19  C   UNL A   1     -25.026   6.479  26.963  0.00  0.00    +0.139 C 
ATOM     20  O   UNL A   1     -25.143   3.966  28.243  0.00  0.00    -0.268 OA
ENDBRANCH  11  17
BRANCH  14  21
ATOM     21  O   UNL A   1     -28.193  -0.208  24.477  0.00  0.00    -0.456 OA
BRANCH  21  22
ATOM     22  C   UNL A   1     -29.460   0.005  23.866  0.00  0.00    +0.243 C 
BRANCH  22  23
ATOM     23  C   UNL A   1     -30.065  -1.377  23.573  0.00  0.00    +0.229 C 
ATOM     24  O   UNL A   1     -30.729  -1.878  24.721  0.00  0.00    -0.216 OA
ENDBRANCH  22  23
ENDBRANCH  21  22
ENDBRANCH  14  21
ENDBRANCH   8  10
BRANCH   1  25
ATOM     25  C   UNL A   1     -24.855  -1.012  30.143  0.00  0.00    +0.040 C 
BRANCH  25  26
ATOM     26  C   UNL A   1     -24.973  -2.505  29.788  0.00  0.00    -0.021 C 
ATOM     27  C   UNL A   1     -23.906  -3.173  29.146  0.00  0.00    -0.004 C 
ATOM     28  C   UNL A   1     -23.989  -4.549  28.853  0.00  0.00    -0.000 C 
ATOM     29  C   UNL A   1     -25.137  -5.280  29.205  0.00  0.00    -0.000 C 
ATOM     30  C   UNL A   1     -26.232  -4.611  29.784  0.00  0.00    -0.000 C 
ATOM     31  C   UNL A   1     -26.155  -3.232  30.065  0.00  0.00    -0.004 C 
ENDBRANCH  25  26
BRANCH  25  32
ATOM     32  C   UNL A   1     -25.387  -0.679  31.571  0.00  0.00    +0.077 C 
ATOM     33  C   UNL A   1     -25.189   0.773  32.028  0.00  0.00    +0.019 C 
ATOM     34  C   UNL A   1     -25.336   0.684  33.544  0.00  0.00    +0.020 C 
ATOM     35  C   UNL A   1     -24.829  -0.715  33.905  0.00  0.00    +0.089 C 
ATOM     36  N   UNL A   1     -24.758  -1.481  32.646  0.00  0.00    -0.219 NA
ENDBRANCH  25  32
ENDBRANCH   1  25
BRANCH   3  37
ATOM     37  N   UNL A   1     -25.266   2.063  29.755  0.00  0.00    -0.218 NA
BRANCH  37  41
ATOM     38  C   UNL A   1     -27.589   2.466  31.065  0.00  0.00    +0.170 C 
ATOM     39  C   UNL A   1     -27.330   3.925  31.326  0.00  0.00    +0.054 C 
ATOM     40  O   UNL A   1     -27.928   1.951  32.409  0.00  0.00    -0.222 OA
ATOM     41  C   UNL A   1     -26.358   2.865  30.341  0.00  0.00    +0.106 C 
BRANCH  38  42
ATOM     42  C   UNL A   1     -28.963   2.172  30.185  0.00  0.00    +0.181 C 
ATOM     43  O   UNL A   1     -29.739   3.366  29.815  0.00  0.00    -0.221 OA
BRANCH  42  44
ATOM     44  C   UNL A   1     -28.949   0.958  29.166  0.00  0.00    +0.035 C 
BRANCH  44  45
ATOM     45  C   UNL A   1     -28.154  -0.357  29.480  0.00  0.00    +0.003 C 
ATOM     46  C   UNL A   1     -26.910  -0.445  28.566  0.00  0.00    +0.000 C 
ENDBRANCH  44  45
ENDBRANCH  42  44
ENDBRANCH  38  42
ENDBRANCH  37  41
ENDBRANCH   3  37
TORSDOF 13
