REMARK  Name = outputs/IAG933/test6/raw/output_2952_IAG933_linker_design_.xyz
REMARK  13 active torsions:
REMARK  status: ('A' for Active; 'I' for Inactive)
REMARK    1  A    between atoms: C_1  and  C_2
REMARK    2  A    between atoms: C_1  and  C_8
REMARK    3  A    between atoms: C_1  and  C_40
REMARK    4  A    between atoms: C_15  and  N_16
REMARK    5  A    between atoms: C_21  and  O_22
REMARK    6  A    between atoms: O_22  and  C_23
REMARK    7  A    between atoms: C_23  and  C_24
REMARK    8  A    between atoms: C_28  and  O_39
REMARK    9  A    between atoms: C_31  and  C_41
REMARK   10  A    between atoms: C_31  and  C_46
REMARK   11  A    between atoms: C_33  and  N_37
REMARK   12  A    between atoms: C_38  and  C_40
REMARK   13  A    between atoms: O_39  and  C_47
REMARK                            x       y       z     vdW  Elec       q    Type
REMARK                         _______ _______ _______ _____ _____    ______ ____
ROOT
ATOM      1  C   UNL A   1     -25.688   1.614  26.461  0.00  0.00    +0.140 C 
ATOM      2  C   UNL A   1     -26.250   2.920  26.395  0.00  0.00    +0.052 C 
ATOM      3  C   UNL A   1     -25.642   4.093  27.123  0.00  0.00    +0.214 C 
ATOM      4  O   UNL A   1     -25.143   3.966  28.243  0.00  0.00    -0.408 OA
ATOM      5  C   UNL A   1     -27.438   3.091  25.645  0.00  0.00    +0.157 C 
ATOM      6  N   UNL A   1     -28.075   2.089  25.003  0.00  0.00    -0.235 NA
ATOM      7  C   UNL A   1     -27.543   0.849  25.079  0.00  0.00    +0.232 C 
ATOM      8  C   UNL A   1     -26.354   0.576  25.777  0.00  0.00    +0.257 C 
ATOM      9  F   UNL A   1     -25.860  -0.681  25.795  0.00  0.00    -0.225 F 
ATOM     10  C   UNL A   1     -25.273   3.002  29.311  0.00  0.00    +0.312 C 
ATOM     11  N   UNL A   1     -24.778   1.333  27.522  0.00  0.00    -0.298 N 
ATOM     12  C   UNL A   1     -25.205   1.407  28.971  0.00  0.00    +0.099 C 
ENDROOT
BRANCH  11  14
ATOM     13  C   UNL A   1     -23.076   2.140  25.140  0.00  0.00    +0.037 C 
ATOM     14  C   UNL A   1     -23.350   1.112  27.267  0.00  0.00    +0.137 C 
ATOM     15  O   UNL A   1     -21.140   1.736  27.266  0.00  0.00    -0.219 OA
ATOM     16  C   UNL A   1     -22.163   1.257  28.288  0.00  0.00    +0.204 C 
ATOM     17  C   UNL A   1     -22.837   2.098  26.250  0.00  0.00    +0.173 C 
ATOM     18  O   UNL A   1     -21.574   1.707  26.103  0.00  0.00    -0.221 OA
ENDBRANCH  11  14
BRANCH   3  19
ATOM     19  N   UNL A   1     -25.614   5.252  26.449  0.00  0.00    -0.204 NA
ATOM     20  C   UNL A   1     -25.026   6.479  26.963  0.00  0.00    +0.139 C 
ENDBRANCH   3  19
BRANCH   7  21
ATOM     21  O   UNL A   1     -28.193  -0.208  24.477  0.00  0.00    -0.459 OA
BRANCH  21  22
ATOM     22  C   UNL A   1     -29.460   0.005  23.866  0.00  0.00    +0.242 C 
BRANCH  22  23
ATOM     23  C   UNL A   1     -30.065  -1.377  23.573  0.00  0.00    +0.229 C 
ATOM     24  O   UNL A   1     -30.729  -1.878  24.721  0.00  0.00    -0.216 OA
ENDBRANCH  22  23
ENDBRANCH  21  22
ENDBRANCH   7  21
BRANCH  10  25
ATOM     25  O   UNL A   1     -26.125   3.810  30.150  0.00  0.00    -0.420 OA
BRANCH  25  31
ATOM     26  C   UNL A   1     -29.520   1.904  28.626  0.00  0.00    +0.005 C 
ATOM     27  C   UNL A   1     -28.316   3.720  29.158  0.00  0.00    -0.007 C 
ATOM     28  C   UNL A   1     -28.406   2.347  29.321  0.00  0.00    +0.025 C 
ATOM     29  C   UNL A   1     -29.531   4.146  28.501  0.00  0.00    +0.025 C 
ATOM     30  C   UNL A   1     -30.249   2.967  28.270  0.00  0.00    +0.007 C 
ATOM     31  C   UNL A   1     -27.068   4.517  29.645  0.00  0.00    +0.174 C 
BRANCH  30  32
ATOM     32  C   UNL A   1     -31.624   2.662  27.717  0.00  0.00    +0.036 C 
BRANCH  32  34
ATOM     33  O   UNL A   1     -31.260   2.868  25.304  0.00  0.00    -0.220 OA
ATOM     34  C   UNL A   1     -31.994   3.332  26.429  0.00  0.00    +0.182 C 
ENDBRANCH  32  34
ENDBRANCH  30  32
ENDBRANCH  25  31
ENDBRANCH  10  25
BRANCH  12  35
ATOM     35  C   UNL A   1     -25.721  -0.118  29.171  0.00  0.00    +0.053 C 
BRANCH  35  36
ATOM     36  C   UNL A   1     -24.855  -1.012  30.143  0.00  0.00    +0.044 C 
BRANCH  36  37
ATOM     37  C   UNL A   1     -24.973  -2.505  29.788  0.00  0.00    -0.021 C 
ATOM     38  C   UNL A   1     -23.906  -3.173  29.146  0.00  0.00    -0.004 C 
ATOM     39  C   UNL A   1     -23.989  -4.549  28.853  0.00  0.00    -0.000 C 
ATOM     40  C   UNL A   1     -25.137  -5.280  29.205  0.00  0.00    -0.000 C 
ATOM     41  C   UNL A   1     -26.232  -4.611  29.784  0.00  0.00    -0.000 C 
ATOM     42  C   UNL A   1     -26.155  -3.232  30.065  0.00  0.00    -0.004 C 
ENDBRANCH  36  37
BRANCH  36  43
ATOM     43  C   UNL A   1     -25.387  -0.679  31.571  0.00  0.00    +0.077 C 
ATOM     44  C   UNL A   1     -25.189   0.773  32.028  0.00  0.00    +0.019 C 
ATOM     45  C   UNL A   1     -25.336   0.684  33.544  0.00  0.00    +0.020 C 
ATOM     46  C   UNL A   1     -24.829  -0.715  33.905  0.00  0.00    +0.089 C 
ATOM     47  N   UNL A   1     -24.758  -1.481  32.646  0.00  0.00    -0.219 NA
ENDBRANCH  36  43
ENDBRANCH  35  36
ENDBRANCH  12  35
TORSDOF 13
