MODEL 2952
MODEL 1
REMARK VINA RESULT:    -4.184      0.000      0.000
REMARK INTER + INTRA:          -4.718
REMARK INTER:                  -4.673
REMARK INTRA:                  -0.045
REMARK UNBOUND:                -0.045
REMARK  Name = No_2952-gen_results/8p0m/2024-11-27-11-27-31/
REMARK  2 active torsions:
REMARK  status: ('A' for Active; 'I' for Inactive)
REMARK    1  A    between atoms: C_2  and  C_3
REMARK    2  A    between atoms: C_3  and  C_4
REMARK                            x       y       z     vdW  Elec       q    Type
REMARK                         _______ _______ _______ _____ _____    ______ ____
ROOT
ATOM      1  C   UNL A   1      -9.338  -9.734  18.141  0.00  0.00    +0.131 C 
ENDROOT
BRANCH   1   2
ATOM      2  C   UNL A   1      -9.905  -9.276  19.412  0.00  0.00    -0.015 C 
ATOM      3  C   UNL A   1      -9.049  -9.235  20.474  0.00  0.00    -0.029 C 
ATOM      4  C   UNL A   1      -7.675  -9.587  20.263  0.00  0.00    +0.030 C 
ENDBRANCH   1   2
BRANCH   1   6
ATOM      5  N   UNL A   1     -11.047 -10.427  16.910  0.00  0.00    -0.196 NA
ATOM      6  C   UNL A   1     -10.010 -10.448  17.144  0.00  0.00    +0.078 C 
ENDBRANCH   1   6
TORSDOF 2
ENDMDL
ENDMDL
