REMARK  Name = outputs/IAG933/test6/raw/output_2953_IAG933_linker_design_.xyz
REMARK  15 active torsions:
REMARK  status: ('A' for Active; 'I' for Inactive)
REMARK    1  A    between atoms: C_1  and  C_2
REMARK    2  A    between atoms: C_14  and  C_15
REMARK    3  A    between atoms: C_15  and  O_18
REMARK    4  A    between atoms: O_18  and  C_32
REMARK    5  A    between atoms: C_21  and  O_22
REMARK    6  A    between atoms: O_22  and  C_23
REMARK    7  A    between atoms: C_23  and  C_24
REMARK    8  A    between atoms: C_28  and  C_41
REMARK    9  A    between atoms: C_28  and  N_43
REMARK   10  A    between atoms: N_29  and  C_35
REMARK   11  A    between atoms: C_32  and  C_37
REMARK   12  A    between atoms: C_32  and  C_42
REMARK   13  A    between atoms: O_34  and  C_37
REMARK   14  A    between atoms: O_34  and  C_45
REMARK   15  A    between atoms: C_40  and  N_43
REMARK                            x       y       z     vdW  Elec       q    Type
REMARK                         _______ _______ _______ _____ _____    ______ ____
ROOT
ATOM      1  N   UNL A   1     -24.834   2.331  30.134  0.00  0.00    -0.236 NA
ATOM      2  C   UNL A   1     -25.857   3.062  30.494  0.00  0.00    +0.247 C 
ENDROOT
BRANCH   1  10
ATOM      3  C   UNL A   1     -24.855  -1.012  30.143  0.00  0.00    +0.155 C 
ATOM      4  C   UNL A   1     -25.387  -0.679  31.571  0.00  0.00    +0.106 C 
ATOM      5  C   UNL A   1     -25.189   0.773  32.028  0.00  0.00    +0.047 C 
ATOM      6  C   UNL A   1     -25.336   0.684  33.544  0.00  0.00    +0.022 C 
ATOM      7  C   UNL A   1     -24.829  -0.715  33.905  0.00  0.00    +0.089 C 
ATOM      8  N   UNL A   1     -24.758  -1.481  32.646  0.00  0.00    -0.217 NA
ATOM      9  O   UNL A   1     -23.667  -0.517  29.020  0.00  0.00    -0.334 OA
ATOM     10  C   UNL A   1     -24.242   1.165  30.794  0.00  0.00    +0.152 C 
ATOM     11  C   UNL A   1     -23.555   0.714  29.368  0.00  0.00    +0.213 C 
BRANCH   3  12
ATOM     12  C   UNL A   1     -24.973  -2.505  29.788  0.00  0.00    +0.006 C 
ATOM     13  C   UNL A   1     -23.906  -3.173  29.146  0.00  0.00    -0.002 C 
ATOM     14  C   UNL A   1     -23.989  -4.549  28.853  0.00  0.00    -0.000 C 
ATOM     15  C   UNL A   1     -25.137  -5.280  29.205  0.00  0.00    -0.000 C 
ATOM     16  C   UNL A   1     -26.232  -4.611  29.784  0.00  0.00    -0.000 C 
ATOM     17  C   UNL A   1     -26.155  -3.232  30.065  0.00  0.00    -0.002 C 
ENDBRANCH   3  12
BRANCH  11  18
ATOM     18  N   UNL A   1     -22.557   1.658  28.818  0.00  0.00    -0.174 NA
BRANCH  18  19
ATOM     19  C   UNL A   1     -21.490   1.272  27.817  0.00  0.00    +0.196 C 
BRANCH  19  20
ATOM     20  C   UNL A   1     -22.032   1.466  26.450  0.00  0.00    +0.093 C 
ATOM     21  N   UNL A   1     -22.506   1.745  25.484  0.00  0.00    -0.194 NA
ENDBRANCH  19  20
ENDBRANCH  18  19
ENDBRANCH  11  18
ENDBRANCH   1  10
BRANCH   2  22
ATOM     22  C   UNL A   1     -26.201   4.149  29.427  0.00  0.00    +0.320 C 
BRANCH  22  24
ATOM     23  O   UNL A   1     -28.022   5.670  29.105  0.00  0.00    -0.267 OA
ATOM     24  C   UNL A   1     -27.718   4.535  29.529  0.00  0.00    +0.310 C 
ATOM     25  N   UNL A   1     -28.549   3.808  30.006  0.00  0.00    -0.084 NA
ENDBRANCH  22  24
BRANCH  22  26
ATOM     26  O   UNL A   1     -25.143   3.966  28.243  0.00  0.00    -0.445 OA
BRANCH  26  27
ATOM     27  C   UNL A   1     -25.642   4.093  27.123  0.00  0.00    +0.223 C 
ATOM     28  N   UNL A   1     -25.614   5.252  26.449  0.00  0.00    -0.236 NA
ATOM     29  C   UNL A   1     -25.026   6.479  26.963  0.00  0.00    +0.155 C 
BRANCH  27  31
ATOM     30  C   UNL A   1     -25.688   1.614  26.461  0.00  0.00    +0.041 C 
ATOM     31  C   UNL A   1     -26.250   2.920  26.395  0.00  0.00    +0.074 C 
ATOM     32  C   UNL A   1     -27.438   3.091  25.645  0.00  0.00    +0.107 C 
ATOM     33  N   UNL A   1     -28.075   2.089  25.003  0.00  0.00    -0.208 NA
ATOM     34  C   UNL A   1     -27.543   0.849  25.079  0.00  0.00    +0.253 C 
ATOM     35  C   UNL A   1     -26.354   0.576  25.777  0.00  0.00    +0.193 C 
ATOM     36  F   UNL A   1     -25.860  -0.681  25.795  0.00  0.00    -0.199 F 
BRANCH  34  37
ATOM     37  O   UNL A   1     -28.193  -0.208  24.477  0.00  0.00    -0.456 OA
BRANCH  37  38
ATOM     38  C   UNL A   1     -29.460   0.005  23.866  0.00  0.00    +0.243 C 
BRANCH  38  39
ATOM     39  C   UNL A   1     -30.065  -1.377  23.573  0.00  0.00    +0.229 C 
ATOM     40  O   UNL A   1     -30.729  -1.878  24.721  0.00  0.00    -0.216 OA
ENDBRANCH  38  39
ENDBRANCH  37  38
ENDBRANCH  34  37
ENDBRANCH  27  31
ENDBRANCH  26  27
ENDBRANCH  22  26
ENDBRANCH   2  22
BRANCH   2  41
ATOM     41  O   UNL A   1     -26.368   2.984  31.750  0.00  0.00    -0.464 OA
BRANCH  41  47
ATOM     42  C   UNL A   1     -27.230   4.853  33.065  0.00  0.00    +0.084 C 
ATOM     43  F   UNL A   1     -27.436   6.559  34.703  0.00  0.00    -0.232 F 
ATOM     44  C   UNL A   1     -25.334   5.889  34.104  0.00  0.00    +0.004 C 
ATOM     45  C   UNL A   1     -25.080   4.875  32.029  0.00  0.00    +0.069 C 
ATOM     46  C   UNL A   1     -24.505   5.532  33.079  0.00  0.00    -0.024 C 
ATOM     47  C   UNL A   1     -26.324   4.259  32.227  0.00  0.00    +0.175 C 
ATOM     48  C   UNL A   1     -26.693   5.755  33.953  0.00  0.00    +0.186 C 
ENDBRANCH  41  47
ENDBRANCH   2  41
TORSDOF 15
