MODEL 2954
MODEL 1
REMARK VINA RESULT:    -4.346      0.000      0.000
REMARK INTER + INTRA:          -4.346
REMARK INTER:                  -4.346
REMARK INTRA:                   0.000
REMARK UNBOUND:                 0.000
REMARK  Name = No_2954-gen_results/8p0m/2024-11-27-11-27-31/
REMARK  0 active torsions:
REMARK  status: ('A' for Active; 'I' for Inactive)
REMARK                            x       y       z     vdW  Elec       q    Type
REMARK                         _______ _______ _______ _____ _____    ______ ____
ROOT
ATOM      1  C   UNL A   1     -24.961  -5.417  29.018  0.00  0.00    +0.000 A 
ATOM      2  C   UNL A   1     -24.206  -4.755  28.699  0.00  0.00    +0.000 A 
ATOM      3  C   UNL A   1     -26.137  -4.739  29.576  0.00  0.00    +0.000 A 
ATOM      4  C   UNL A   1     -26.159  -3.428  29.821  0.00  0.00    +0.000 A 
ATOM      5  C   UNL A   1     -23.999  -3.337  28.871  0.00  0.00    +0.000 A 
ATOM      6  C   UNL A   1     -25.092  -2.729  29.414  0.00  0.00    +0.000 A 
ENDROOT
TORSDOF 0
ENDMDL
ENDMDL
