MODEL 2957
MODEL 1
REMARK VINA RESULT:    -6.448      0.000      0.000
REMARK INTER + INTRA:          -6.865
REMARK INTER:                  -6.825
REMARK INTRA:                  -0.040
REMARK UNBOUND:                -0.040
REMARK  Name = No_2957-gen_results/8p0m/2024-11-27-11-27-31/
REMARK  1 active torsions:
REMARK  status: ('A' for Active; 'I' for Inactive)
REMARK    1  A    between atoms: C_14  and  C_15
REMARK                            x       y       z     vdW  Elec       q    Type
REMARK                         _______ _______ _______ _____ _____    ______ ____
ROOT
ATOM      1  C   UNL A   1     -30.989  -9.578  28.934  0.00  0.00    +0.000 A 
ATOM      2  C   UNL A   1     -30.251 -10.181  29.677  0.00  0.00    +0.000 A 
ATOM      3  C   UNL A   1     -29.433 -11.202  29.205  0.00  0.00    +0.000 A 
ATOM      4  C   UNL A   1     -28.492 -12.024  30.019  0.00  0.00    +0.000 A 
ATOM      5  C   UNL A   1     -28.312 -11.610  31.372  0.00  0.00    +0.000 A 
ATOM      6  C   UNL A   1     -27.419 -12.286  32.202  0.00  0.00    +0.000 A 
ATOM      7  C   UNL A   1     -27.213 -11.848  33.528  0.00  0.00    +0.000 A 
ATOM      8  C   UNL A   1     -31.194 -10.043  27.550  0.00  0.00    +0.000 A 
ATOM      9  C   UNL A   1     -30.366 -10.970  26.976  0.00  0.00    +0.000 A 
ATOM     10  C   UNL A   1     -29.486 -11.635  27.805  0.00  0.00    +0.000 A 
ATOM     11  C   UNL A   1     -28.100 -10.828  34.007  0.00  0.00    +0.000 A 
ATOM     12  C   UNL A   1     -29.021 -10.274  33.230  0.00  0.00    +0.000 A 
ATOM     13  C   UNL A   1     -29.168 -10.638  31.894  0.00  0.00    +0.000 A 
ATOM     14  C   UNL A   1     -30.072  -9.876  31.092  0.00  0.00    +0.000 A 
ENDROOT
BRANCH  14  15
ATOM     15  C   UNL A   1     -30.823  -8.751  31.603  0.00  0.00    +0.000 C 
ATOM     16  C   UNL A   1     -30.208  -7.495  31.540  0.00  0.00    +0.000 C 
ENDBRANCH  14  15
TORSDOF 1
ENDMDL
ENDMDL
