MODEL 2958
MODEL 1
REMARK VINA RESULT:    -6.764      0.000      0.000
REMARK INTER + INTRA:         -11.717
REMARK INTER:                 -10.719
REMARK INTRA:                  -0.998
REMARK UNBOUND:                -0.998
REMARK  Name = No_2958-gen_results/8p0m/2024-11-27-11-27-31/
REMARK  10 active torsions:
REMARK  status: ('A' for Active; 'I' for Inactive)
REMARK    1  A    between atoms: C_5  and  C_11
REMARK    2  A    between atoms: C_8  and  O_14
REMARK    3  A    between atoms: O_14  and  C_15
REMARK    4  A    between atoms: C_15  and  C_16
REMARK    5  A    between atoms: C_16  and  O_17
REMARK    6  A    between atoms: O_17  and  C_20
REMARK    7  A    between atoms: C_20  and  C_21
REMARK    8  A    between atoms: C_21  and  O_23
REMARK    9  A    between atoms: O_23  and  C_24
REMARK   10  A    between atoms: C_25  and  C_26
REMARK                            x       y       z     vdW  Elec       q    Type
REMARK                         _______ _______ _______ _____ _____    ______ ____
ROOT
ATOM      1  O   UNL A   1     -24.210   0.562  26.248  0.00  0.00    -0.417 OA
ENDROOT
BRANCH   1   9
ATOM      2  C   UNL A   1     -26.248   1.725  25.725  0.00  0.00    +0.038 A 
ATOM      3  C   UNL A   1     -27.244   1.809  25.044  0.00  0.00    +0.003 A 
ATOM      4  C   UNL A   1     -27.847   0.748  24.449  0.00  0.00    +0.000 A 
ATOM      5  C   UNL A   1     -29.066   0.832  23.614  0.00  0.00    +0.005 A 
ATOM      6  C   UNL A   1     -29.650   2.131  23.450  0.00  0.00    +0.057 A 
ATOM      7  C   UNL A   1     -29.035   3.198  24.143  0.00  0.00    +0.005 A 
ATOM      8  C   UNL A   1     -27.903   3.044  24.901  0.00  0.00    +0.000 A 
ATOM      9  C   UNL A   1     -25.354   0.705  25.461  0.00  0.00    +0.149 A 
ATOM     10  C   UNL A   1     -25.820  -0.473  24.835  0.00  0.00    +0.038 A 
ATOM     11  C   UNL A   1     -27.042  -0.418  24.183  0.00  0.00    +0.003 A 
BRANCH   6  12
ATOM     12  C   UNL A   1     -30.927   2.350  22.820  0.00  0.00    +0.284 C 
ATOM     13  N   UNL A   1     -31.628   1.584  22.135  0.00  0.00    -0.084 NA
ATOM     14  O   UNL A   1     -31.463   3.515  23.187  0.00  0.00    -0.267 OA
ENDBRANCH   6  12
ENDBRANCH   1   9
BRANCH   1  15
ATOM     15  C   UNL A   1     -23.360   1.677  26.329  0.00  0.00    +0.423 C 
ATOM     16  O   UNL A   1     -23.022   2.268  25.320  0.00  0.00    -0.237 OA
BRANCH  15  17
ATOM     17  C   UNL A   1     -23.080   2.000  27.646  0.00  0.00    +0.419 C 
ATOM     18  O   UNL A   1     -23.831   2.888  28.245  0.00  0.00    -0.237 OA
BRANCH  17  19
ATOM     19  O   UNL A   1     -22.323   1.444  28.282  0.00  0.00    -0.429 OA
BRANCH  19  20
ATOM     20  C   UNL A   1     -22.527   0.422  29.341  0.00  0.00    +0.318 C 
BRANCH  20  21
ATOM     21  C   UNL A   1     -22.201  -0.852  28.948  0.00  0.00    +0.367 C 
ATOM     22  O   UNL A   1     -20.990  -1.096  28.761  0.00  0.00    -0.245 OA
BRANCH  21  23
ATOM     23  O   UNL A   1     -23.051  -1.825  28.923  0.00  0.00    -0.419 OA
BRANCH  23  24
ATOM     24  C   UNL A   1     -24.370  -1.702  29.196  0.00  0.00    +0.178 C 
ATOM     25  C   UNL A   1     -25.071  -3.026  29.331  0.00  0.00    +0.015 C 
BRANCH  25  26
ATOM     26  C   UNL A   1     -24.181  -3.944  28.629  0.00  0.00    +0.029 C 
ATOM     27  C   UNL A   1     -24.354  -5.265  28.708  0.00  0.00    +0.005 C 
ENDBRANCH  25  26
ENDBRANCH  23  24
ENDBRANCH  21  23
ENDBRANCH  20  21
ENDBRANCH  19  20
ENDBRANCH  17  19
ENDBRANCH  15  17
ENDBRANCH   1  15
TORSDOF 10
ENDMDL
ENDMDL
