REMARK  Name = No_2958-gen_results/8p0m/2024-11-27-11-27-31/
REMARK  10 active torsions:
REMARK  status: ('A' for Active; 'I' for Inactive)
REMARK    1  A    between atoms: C_5  and  C_11
REMARK    2  A    between atoms: C_8  and  O_14
REMARK    3  A    between atoms: O_14  and  C_15
REMARK    4  A    between atoms: C_15  and  C_16
REMARK    5  A    between atoms: C_16  and  O_17
REMARK    6  A    between atoms: O_17  and  C_20
REMARK    7  A    between atoms: C_20  and  C_21
REMARK    8  A    between atoms: C_21  and  O_23
REMARK    9  A    between atoms: O_23  and  C_24
REMARK   10  A    between atoms: C_25  and  C_26
REMARK                            x       y       z     vdW  Elec       q    Type
REMARK                         _______ _______ _______ _____ _____    ______ ____
ROOT
ATOM      1  O   UNL A   1     -30.354  -0.973  29.417  0.00  0.00    -0.417 OA
ENDROOT
BRANCH   1   9
ATOM      2  C   UNL A   1     -28.016  -0.814  28.878  0.00  0.00    +0.038 A 
ATOM      3  C   UNL A   1     -27.064  -0.119  28.608  0.00  0.00    +0.003 A 
ATOM      4  C   UNL A   1     -26.929   1.171  29.008  0.00  0.00    +0.000 A 
ATOM      5  C   UNL A   1     -25.770   2.034  28.688  0.00  0.00    +0.005 A 
ATOM      6  C   UNL A   1     -24.714   1.443  27.919  0.00  0.00    +0.057 A 
ATOM      7  C   UNL A   1     -24.859   0.078  27.584  0.00  0.00    +0.005 A 
ATOM      8  C   UNL A   1     -25.965  -0.661  27.916  0.00  0.00    +0.000 A 
ATOM      9  C   UNL A   1     -29.241  -0.204  29.074  0.00  0.00    +0.149 A 
ATOM     10  C   UNL A   1     -29.278   1.147  29.486  0.00  0.00    +0.038 A 
ATOM     11  C   UNL A   1     -28.130   1.905  29.319  0.00  0.00    +0.003 A 
BRANCH   6  12
ATOM     12  C   UNL A   1     -23.450   2.091  27.681  0.00  0.00    +0.284 C 
ATOM     13  N   UNL A   1     -22.366   1.621  27.290  0.00  0.00    -0.084 NA
ATOM     14  O   UNL A   1     -23.554   3.418  27.761  0.00  0.00    -0.267 OA
ENDBRANCH   6  12
ENDBRANCH   1   9
BRANCH   1  15
ATOM     15  C   UNL A   1     -31.433  -0.952  28.517  0.00  0.00    +0.423 C 
ATOM     16  O   UNL A   1     -31.544  -0.047  27.710  0.00  0.00    -0.237 OA
BRANCH  15  17
ATOM     17  C   UNL A   1     -32.216  -2.086  28.647  0.00  0.00    +0.419 C 
ATOM     18  O   UNL A   1     -33.395  -2.100  28.080  0.00  0.00    -0.237 OA
BRANCH  17  19
ATOM     19  O   UNL A   1     -31.846  -3.057  29.102  0.00  0.00    -0.429 OA
BRANCH  19  20
ATOM     20  C   UNL A   1     -32.239  -4.461  28.816  0.00  0.00    +0.318 C 
BRANCH  20  21
ATOM     21  C   UNL A   1     -31.287  -5.383  29.171  0.00  0.00    +0.367 C 
ATOM     22  O   UNL A   1     -31.048  -6.297  28.353  0.00  0.00    -0.245 OA
BRANCH  21  23
ATOM     23  O   UNL A   1     -30.532  -5.256  30.212  0.00  0.00    -0.419 OA
BRANCH  23  24
ATOM     24  C   UNL A   1     -29.298  -4.703  30.205  0.00  0.00    +0.178 C 
ATOM     25  C   UNL A   1     -28.651  -4.686  31.563  0.00  0.00    +0.015 C 
BRANCH  25  26
ATOM     26  C   UNL A   1     -29.784  -4.818  32.471  0.00  0.00    +0.029 C 
ATOM     27  C   UNL A   1     -30.760  -5.696  32.231  0.00  0.00    +0.005 C 
ENDBRANCH  25  26
ENDBRANCH  23  24
ENDBRANCH  21  23
ENDBRANCH  20  21
ENDBRANCH  19  20
ENDBRANCH  17  19
ENDBRANCH  15  17
ENDBRANCH   1  15
TORSDOF 10
