MODEL 2959
MODEL 1
REMARK VINA RESULT:    -6.273      0.000      0.000
REMARK INTER + INTRA:          -8.222
REMARK INTER:                  -7.740
REMARK INTRA:                  -0.482
REMARK UNBOUND:                -0.482
REMARK  Name = No_2959-gen_results/8p0m/2024-11-27-11-27-31/
REMARK  4 active torsions:
REMARK  status: ('A' for Active; 'I' for Inactive)
REMARK    1  A    between atoms: C_6  and  C_8
REMARK    2  A    between atoms: N_9  and  C_11
REMARK    3  A    between atoms: C_11  and  C_12
REMARK    4  A    between atoms: C_15  and  C_18
REMARK                            x       y       z     vdW  Elec       q    Type
REMARK                         _______ _______ _______ _____ _____    ______ ____
ROOT
ATOM      1  C   UNL A   1     -23.622  -0.955  31.902  0.00  0.00    +0.265 C 
ATOM      2  N   UNL A   1     -24.039  -1.134  30.711  0.00  0.00    -0.197 NA
ATOM      3  O   UNL A   1     -22.349  -1.050  32.106  0.00  0.00    -0.268 OA
ENDROOT
BRANCH   1   9
ATOM      4  C   UNL A   1     -24.257  -1.094  34.521  0.00  0.00    +0.005 A 
ATOM      5  C   UNL A   1     -25.058  -0.793  35.375  0.00  0.00    +0.011 A 
ATOM      6  C   UNL A   1     -26.267  -0.151  35.107  0.00  0.00    +0.058 A 
ATOM      7  C   UNL A   1     -26.573   0.237  33.744  0.00  0.00    +0.011 A 
ATOM      8  C   UNL A   1     -25.588  -0.139  32.803  0.00  0.00    +0.005 A 
ATOM      9  C   UNL A   1     -24.477  -0.737  33.151  0.00  0.00    +0.055 A 
ATOM     10 CL   UNL A   1     -27.257   0.274  36.416  0.00  0.00    -0.082 Cl
ENDBRANCH   1   9
BRANCH   2  11
ATOM     11  C   UNL A   1     -23.257  -1.468  29.555  0.00  0.00    +0.142 C 
BRANCH  11  12
ATOM     12  C   UNL A   1     -23.263  -0.501  28.546  0.00  0.00    -0.001 A 
ATOM     13  C   UNL A   1     -24.360  -0.459  27.810  0.00  0.00    -0.002 A 
ATOM     14  C   UNL A   1     -24.414   0.602  26.886  0.00  0.00    +0.006 A 
ATOM     15  C   UNL A   1     -23.358   1.556  26.766  0.00  0.00    +0.080 A 
ATOM     16  C   UNL A   1     -22.241   1.445  27.632  0.00  0.00    +0.006 A 
ATOM     17  C   UNL A   1     -22.230   0.476  28.552  0.00  0.00    -0.002 A 
BRANCH  15  18
ATOM     18  C   UNL A   1     -23.345   2.672  25.754  0.00  0.00    +0.388 C 
ATOM     19  O   UNL A   1     -22.544   2.544  24.998  0.00  0.00    -0.241 OA
ATOM     20  O   UNL A   1     -24.201   3.591  25.848  0.00  0.00    -0.241 OA
ENDBRANCH  15  18
ENDBRANCH  11  12
ENDBRANCH   2  11
TORSDOF 4
ENDMDL
ENDMDL
