MODEL 295
MODEL 1
REMARK VINA RESULT:    -7.944      0.000      0.000
REMARK INTER + INTRA:         -13.685
REMARK INTER:                 -11.195
REMARK INTRA:                  -2.490
REMARK UNBOUND:                -2.490
REMARK  Name = No_295-gen_results/8p0m/2024-11-27-11-27-31/
REMARK  7 active torsions:
REMARK  status: ('A' for Active; 'I' for Inactive)
REMARK    1  A    between atoms: C_1  and  C_2
REMARK    2  A    between atoms: C_1  and  C_8
REMARK    3  A    between atoms: C_3  and  C_24
REMARK    4  A    between atoms: C_5  and  C_10
REMARK    5  A    between atoms: C_8  and  C_23
REMARK    6  A    between atoms: C_18  and  C_31
REMARK    7  A    between atoms: C_24  and  O_34
REMARK                            x       y       z     vdW  Elec       q    Type
REMARK                         _______ _______ _______ _____ _____    ______ ____
ROOT
ATOM      1  C   UNL A   1     -25.050  -1.044  28.417  0.00  0.00    +0.030 C 
ATOM      2  C   UNL A   1     -26.389  -0.660  28.788  0.00  0.00    +0.045 C 
ATOM      3  C   UNL A   1     -26.828   0.106  29.349  0.00  0.00    +0.183 C 
ATOM      4  C   UNL A   1     -26.014   0.873  30.198  0.00  0.00    +0.006 A 
ATOM      5  C   UNL A   1     -26.337   2.098  30.667  0.00  0.00    +0.005 A 
ATOM      6  F   UNL A   1     -28.007  -0.082  29.984  0.00  0.00    -0.232 F 
ATOM      7  C   UNL A   1     -25.389   2.878  31.405  0.00  0.00    +0.080 A 
ATOM      8  C   UNL A   1     -24.112   2.388  31.562  0.00  0.00    +0.006 A 
ATOM      9  C   UNL A   1     -23.726   1.168  31.058  0.00  0.00    -0.004 A 
ATOM     10  C   UNL A   1     -24.632   0.448  30.371  0.00  0.00    -0.023 A 
ATOM     11  C   UNL A   1     -24.132  -0.517  29.659  0.00  0.00    +0.031 C 
ENDROOT
BRANCH   1  12
ATOM     12  C   UNL A   1     -24.900  -2.626  28.590  0.00  0.00    -0.022 A 
ATOM     13  C   UNL A   1     -24.281  -3.426  28.300  0.00  0.00    -0.004 A 
ATOM     14  C   UNL A   1     -24.154  -4.715  28.631  0.00  0.00    -0.000 A 
ATOM     15  C   UNL A   1     -25.193  -5.256  29.384  0.00  0.00    -0.000 A 
ATOM     16  C   UNL A   1     -26.237  -4.420  29.677  0.00  0.00    -0.000 A 
ATOM     17  C   UNL A   1     -26.147  -3.055  29.430  0.00  0.00    -0.004 A 
ENDBRANCH   1  12
BRANCH   7  18
ATOM     18  C   UNL A   1     -25.833   4.164  31.980  0.00  0.00    +0.388 C 
ATOM     19  O   UNL A   1     -26.509   4.373  32.802  0.00  0.00    -0.241 OA
ATOM     20  O   UNL A   1     -25.279   5.244  31.381  0.00  0.00    -0.241 OA
ENDBRANCH   7  18
BRANCH   1  21
ATOM     21  C   UNL A   1     -24.443  -0.484  27.171  0.00  0.00    +0.031 C 
BRANCH  21  22
ATOM     22  C   UNL A   1     -25.193   0.145  26.460  0.00  0.00    -0.016 A 
ATOM     23  C   UNL A   1     -25.221   1.526  26.411  0.00  0.00    +0.072 A 
ATOM     24  C   UNL A   1     -26.151   2.326  25.636  0.00  0.00    +0.010 A 
ATOM     25  C   UNL A   1     -27.117   1.668  24.843  0.00  0.00    +0.072 A 
ATOM     26  C   UNL A   1     -27.107   0.228  24.897  0.00  0.00    +0.004 A 
ATOM     27  C   UNL A   1     -26.239  -0.509  25.668  0.00  0.00    -0.004 A 
BRANCH  25  28
ATOM     28  C   UNL A   1     -28.074   2.381  24.053  0.00  0.00    +0.419 C 
ATOM     29  F   UNL A   1     -27.826   2.605  23.053  0.00  0.00    -0.166 F 
ATOM     30  F   UNL A   1     -28.403   3.588  24.730  0.00  0.00    -0.166 F 
ATOM     31  F   UNL A   1     -29.277   1.700  24.188  0.00  0.00    -0.166 F 
ENDBRANCH  25  28
BRANCH  23  32
ATOM     32  C   UNL A   1     -24.281   2.359  27.207  0.00  0.00    +0.341 C 
ATOM     33  O   UNL A   1     -24.153   2.974  28.005  0.00  0.00    -0.245 OA
BRANCH  32  34
ATOM     34  O   UNL A   1     -23.040   2.370  26.428  0.00  0.00    -0.441 OA
ATOM     35  C   UNL A   1     -21.984   1.916  27.343  0.00  0.00    +0.256 C 
ENDBRANCH  32  34
ENDBRANCH  23  32
ENDBRANCH  21  22
ENDBRANCH   1  21
TORSDOF 7
ENDMDL
ENDMDL
