REMARK  Name = No_2960-gen_results/8p0m/2024-11-27-11-27-31/
REMARK  10 active torsions:
REMARK  status: ('A' for Active; 'I' for Inactive)
REMARK    1  A    between atoms: C_4  and  O_28
REMARK    2  A    between atoms: C_5  and  C_11
REMARK    3  A    between atoms: C_7  and  C_18
REMARK    4  A    between atoms: C_8  and  C_14
REMARK    5  A    between atoms: C_11  and  O_13
REMARK    6  A    between atoms: O_13  and  C_32
REMARK    7  A    between atoms: C_21  and  C_25
REMARK    8  A    between atoms: O_28  and  C_29
REMARK    9  A    between atoms: C_29  and  C_30
REMARK   10  A    between atoms: C_33  and  C_34
REMARK                            x       y       z     vdW  Elec       q    Type
REMARK                         _______ _______ _______ _____ _____    ______ ____
ROOT
ATOM      1  C   UNL A   1     -28.016  -0.814  28.878  0.00  0.00    +0.005 A 
ATOM      2  C   UNL A   1     -27.064  -0.119  28.608  0.00  0.00    +0.009 A 
ATOM      3  C   UNL A   1     -25.792  -0.430  29.076  0.00  0.00    +0.034 A 
ATOM      4  C   UNL A   1     -24.546   0.349  28.823  0.00  0.00    +0.143 A 
ATOM      5  C   UNL A   1     -24.659   1.420  27.888  0.00  0.00    +0.089 A 
ATOM      6  C   UNL A   1     -25.947   1.681  27.379  0.00  0.00    +0.014 A 
ATOM      7  C   UNL A   1     -27.044   0.974  27.687  0.00  0.00    +0.080 A 
ATOM      8  C   UNL A   1     -28.024  -1.647  30.126  0.00  0.00    +0.054 A 
ATOM      9  C   UNL A   1     -26.728  -2.085  30.581  0.00  0.00    +0.005 A 
ATOM     10  C   UNL A   1     -25.591  -1.406  30.149  0.00  0.00    +0.003 A 
ENDROOT
BRANCH   8  11
ATOM     11  C   UNL A   1     -29.166  -2.460  30.529  0.00  0.00    +0.249 C 
ATOM     12  O   UNL A   1     -29.178  -3.640  30.754  0.00  0.00    -0.270 OA
ATOM     13  N   UNL A   1     -30.185  -1.684  31.060  0.00  0.00    -0.276 N 
ATOM     14  C   UNL A   1     -31.396  -2.348  31.610  0.00  0.00    +0.105 C 
ATOM     15  C   UNL A   1     -32.325  -1.671  31.791  0.00  0.00    +0.123 C 
ATOM     16  C   UNL A   1     -32.364  -0.205  31.545  0.00  0.00    +0.015 C 
ATOM     17  C   UNL A   1     -31.210   0.392  30.994  0.00  0.00    +0.022 C 
ATOM     18  C   UNL A   1     -30.188  -0.321  30.713  0.00  0.00    +0.094 C 
BRANCH  15  19
ATOM     19  C   UNL A   1     -33.596  -2.159  32.439  0.00  0.00    +0.366 C 
ATOM     20  O   UNL A   1     -33.522  -2.769  33.401  0.00  0.00    -0.246 OA
ATOM     21  O   UNL A   1     -34.677  -1.615  32.010  0.00  0.00    -0.246 OA
ENDBRANCH  15  19
ENDBRANCH   8  11
BRANCH   7  22
ATOM     22  C   UNL A   1     -28.328   1.358  27.039  0.00  0.00    +0.388 C 
ATOM     23  O   UNL A   1     -28.511   1.457  25.895  0.00  0.00    -0.241 OA
ATOM     24  O   UNL A   1     -29.393   1.429  27.841  0.00  0.00    -0.241 OA
ENDBRANCH   7  22
BRANCH   5  25
ATOM     25  C   UNL A   1     -23.449   2.167  27.524  0.00  0.00    +0.251 C 
ATOM     26  N   UNL A   1     -22.484   1.932  27.025  0.00  0.00    -0.107 NA
BRANCH  25  27
ATOM     27  O   UNL A   1     -23.455   3.444  28.079  0.00  0.00    -0.432 OA
BRANCH  27  28
ATOM     28  C   UNL A   1     -24.743   3.728  28.691  0.00  0.00    +0.181 C 
ATOM     29  C   UNL A   1     -25.593   4.726  28.080  0.00  0.00    +0.041 C 
BRANCH  29  30
ATOM     30  C   UNL A   1     -26.009   5.508  28.559  0.00  0.00    +0.003 C 
ATOM     31  C   UNL A   1     -26.826   6.613  27.871  0.00  0.00    +0.000 C 
ENDBRANCH  29  30
ENDBRANCH  27  28
ENDBRANCH  25  27
ENDBRANCH   5  25
BRANCH   4  32
ATOM     32  O   UNL A   1     -23.376   0.059  29.296  0.00  0.00    -0.472 OA
BRANCH  32  33
ATOM     33  C   UNL A   1     -22.624  -0.976  28.767  0.00  0.00    +0.241 C 
BRANCH  33  34
ATOM     34  C   UNL A   1     -21.636  -1.356  29.907  0.00  0.00    +0.229 C 
ATOM     35  O   UNL A   1     -22.250  -1.202  31.032  0.00  0.00    -0.216 OA
ENDBRANCH  33  34
ENDBRANCH  32  33
ENDBRANCH   4  32
TORSDOF 10
