MODEL 2961
MODEL 1
REMARK VINA RESULT:    -5.429      0.000      0.000
REMARK INTER + INTRA:          -5.857
REMARK INTER:                  -5.746
REMARK INTRA:                  -0.111
REMARK UNBOUND:                -0.111
REMARK  Name = No_2961-gen_results/8p0m/2024-11-27-11-27-31/
REMARK  1 active torsions:
REMARK  status: ('A' for Active; 'I' for Inactive)
REMARK    1  A    between atoms: C_5  and  C_8
REMARK                            x       y       z     vdW  Elec       q    Type
REMARK                         _______ _______ _______ _____ _____    ______ ____
ROOT
ATOM      1  F   UNL A   1     -22.762   2.440  25.820  0.00  0.00    -0.201 F 
ATOM      2  C   UNL A   1     -23.048   1.774  26.707  0.00  0.00    +0.180 A 
ATOM      3  C   UNL A   1     -22.069   1.442  27.545  0.00  0.00    +0.196 A 
ATOM      4  C   UNL A   1     -22.110   0.306  28.411  0.00  0.00    +0.176 A 
ATOM      5  C   UNL A   1     -23.368  -0.433  28.466  0.00  0.00    +0.110 A 
ATOM      6  C   UNL A   1     -24.349  -0.080  27.544  0.00  0.00    +0.023 A 
ATOM      7  C   UNL A   1     -24.177   0.852  26.671  0.00  0.00    +0.088 A 
ATOM      8  F   UNL A   1     -20.896   2.017  27.555  0.00  0.00    -0.199 F 
ATOM      9 CL   UNL A   1     -25.475   1.270  25.594  0.00  0.00    -0.080 Cl
ATOM     10  F   UNL A   1     -21.170   0.030  29.254  0.00  0.00    -0.202 F 
ENDROOT
BRANCH   5  11
ATOM     11  C   UNL A   1     -23.494  -1.498  29.423  0.00  0.00    +0.390 C 
ATOM     12  O   UNL A   1     -23.997  -1.404  30.503  0.00  0.00    -0.240 OA
ATOM     13  O   UNL A   1     -23.244  -2.677  28.847  0.00  0.00    -0.240 OA
ENDBRANCH   5  11
TORSDOF 1
ENDMDL
ENDMDL
