MODEL 2963
MODEL 1
REMARK VINA RESULT:    -4.272      0.000      0.000
REMARK INTER + INTRA:          -4.813
REMARK INTER:                  -4.771
REMARK INTRA:                  -0.042
REMARK UNBOUND:                -0.042
REMARK  Name = No_2963-gen_results/8p0m/2024-11-27-11-27-31/
REMARK  2 active torsions:
REMARK  status: ('A' for Active; 'I' for Inactive)
REMARK    1  A    between atoms: C_1  and  C_3
REMARK    2  A    between atoms: C_3  and  C_4
REMARK                            x       y       z     vdW  Elec       q    Type
REMARK                         _______ _______ _______ _____ _____    ______ ____
ROOT
ATOM      1  C   UNL A   1      -8.868  -9.438  19.352  0.00  0.00    +0.065 C 
ATOM      2  C   UNL A   1     -10.029  -9.104  20.277  0.00  0.00    +0.014 C 
ENDROOT
BRANCH   1   3
ATOM      3  C   UNL A   1      -9.168 -10.039  18.040  0.00  0.00    -0.079 C 
ATOM      4  C   UNL A   1     -10.101 -10.332  17.648  0.00  0.00    -0.014 C 
ENDBRANCH   1   3
BRANCH   1   5
ATOM      5  C   UNL A   1      -7.664  -9.094  19.943  0.00  0.00    +0.013 C 
ATOM      6  C   UNL A   1      -6.968  -7.988  19.641  0.00  0.00    +0.001 C 
ENDBRANCH   1   5
TORSDOF 2
ENDMDL
ENDMDL
