MODEL 2964
MODEL 1
REMARK VINA RESULT:    -9.006      0.000      0.000
REMARK INTER + INTRA:         -14.729
REMARK INTER:                 -12.165
REMARK INTRA:                  -2.564
REMARK UNBOUND:                -2.564
REMARK  Name = No_2964-gen_results/8p0m/2024-11-27-11-27-31/
REMARK  6 active torsions:
REMARK  status: ('A' for Active; 'I' for Inactive)
REMARK    1  A    between atoms: C_2  and  C_7
REMARK    2  A    between atoms: C_6  and  C_13
REMARK    3  A    between atoms: C_9  and  C_26
REMARK    4  A    between atoms: N_14  and  C_15
REMARK    5  A    between atoms: C_16  and  C_18
REMARK    6  A    between atoms: C_29  and  C_32
REMARK                            x       y       z     vdW  Elec       q    Type
REMARK                         _______ _______ _______ _____ _____    ______ ____
ROOT
ATOM      1  C   UNL A   1     -11.489   0.045  39.127  0.00  0.00    +0.005 A 
ATOM      2  C   UNL A   1     -11.112  -0.639  38.204  0.00  0.00    +0.000 A 
ATOM      3  C   UNL A   1     -11.432  -1.990  38.133  0.00  0.00    +0.000 A 
ATOM      4  C   UNL A   1     -12.185  -2.629  39.181  0.00  0.00    +0.000 A 
ATOM      5  C   UNL A   1     -12.560  -1.771  40.222  0.00  0.00    +0.005 A 
ATOM      6  C   UNL A   1     -12.218  -0.503  40.250  0.00  0.00    +0.055 A 
ENDROOT
BRANCH   2   7
ATOM      7  C   UNL A   1     -10.305  -0.155  37.051  0.00  0.00    +0.001 A 
ATOM      8  C   UNL A   1      -9.171  -0.449  36.709  0.00  0.00    +0.000 A 
ATOM      9  C   UNL A   1      -8.508  -0.002  35.476  0.00  0.00    +0.001 A 
ATOM     10  C   UNL A   1      -9.243   0.865  34.641  0.00  0.00    +0.011 A 
ATOM     11  C   UNL A   1     -11.028   0.726  36.102  0.00  0.00    +0.011 A 
ATOM     12  C   UNL A   1     -10.488   1.186  34.992  0.00  0.00    +0.058 A 
ATOM     13 CL   UNL A   1     -11.377   2.220  33.976  0.00  0.00    -0.082 Cl
BRANCH   9  14
ATOM     14  C   UNL A   1      -7.130  -0.463  35.146  0.00  0.00    +0.000 A 
ATOM     15  C   UNL A   1      -6.083   0.224  35.534  0.00  0.00    -0.000 A 
ATOM     16  C   UNL A   1      -4.764  -0.236  35.054  0.00  0.00    +0.004 A 
ATOM     17  C   UNL A   1      -4.668  -1.507  34.446  0.00  0.00    +0.071 A 
ATOM     18  C   UNL A   1      -5.777  -2.280  34.242  0.00  0.00    +0.004 A 
ATOM     19  C   UNL A   1      -6.982  -1.737  34.577  0.00  0.00    -0.000 A 
BRANCH  17  20
ATOM     20  C   UNL A   1      -3.281  -1.951  34.118  0.00  0.00    +0.419 C 
ATOM     21  F   UNL A   1      -2.632  -2.189  35.130  0.00  0.00    -0.166 F 
ATOM     22  F   UNL A   1      -2.651  -0.937  33.410  0.00  0.00    -0.166 F 
ATOM     23  F   UNL A   1      -3.354  -3.053  33.391  0.00  0.00    -0.166 F 
ENDBRANCH  17  20
ENDBRANCH   9  14
ENDBRANCH   2   7
BRANCH   6  24
ATOM     24  C   UNL A   1     -12.616   0.254  41.459  0.00  0.00    +0.271 C 
ATOM     25  N   UNL A   1     -12.800  -0.326  42.409  0.00  0.00    -0.147 NA
ATOM     26  O   UNL A   1     -13.005   1.443  41.296  0.00  0.00    -0.268 OA
BRANCH  25  27
ATOM     27  C   UNL A   1     -12.385  -0.320  43.531  0.00  0.00    +0.215 C 
ATOM     28  C   UNL A   1     -11.006  -0.384  43.963  0.00  0.00    +0.047 C 
ATOM     29  F   UNL A   1     -13.096   0.397  44.294  0.00  0.00    -0.186 F 
BRANCH  28  30
ATOM     30  C   UNL A   1     -10.397  -1.480  43.616  0.00  0.00    +0.004 A 
ATOM     31  C   UNL A   1     -10.698  -2.689  44.031  0.00  0.00    +0.000 A 
ATOM     32  C   UNL A   1     -10.051  -3.907  43.469  0.00  0.00    +0.000 A 
ATOM     33  C   UNL A   1      -9.128  -3.726  42.454  0.00  0.00    +0.000 A 
ATOM     34  C   UNL A   1      -8.805  -2.502  41.977  0.00  0.00    +0.000 A 
ATOM     35  C   UNL A   1      -9.409  -1.388  42.434  0.00  0.00    +0.000 A 
ENDBRANCH  28  30
ENDBRANCH  25  27
ENDBRANCH   6  24
TORSDOF 6
ENDMDL
ENDMDL
