REMARK  Name = outputs/IAG933/test6/raw/output_2964_IAG933_linker_design_.xyz
REMARK  12 active torsions:
REMARK  status: ('A' for Active; 'I' for Inactive)
REMARK    1  A    between atoms: C_1  and  C_2
REMARK    2  A    between atoms: C_1  and  C_8
REMARK    3  A    between atoms: C_1  and  C_43
REMARK    4  A    between atoms: C_13  and  C_33
REMARK    5  A    between atoms: C_14  and  C_15
REMARK    6  A    between atoms: C_21  and  O_22
REMARK    7  A    between atoms: O_22  and  C_23
REMARK    8  A    between atoms: C_23  and  C_24
REMARK    9  A    between atoms: S_28  and  C_36
REMARK   10  A    between atoms: S_28  and  C_47
REMARK   11  A    between atoms: C_34  and  C_47
REMARK   12  A    between atoms: C_35  and  C_36
REMARK                            x       y       z     vdW  Elec       q    Type
REMARK                         _______ _______ _______ _____ _____    ______ ____
ROOT
ATOM      1  C   UNL A   1     -22.552   2.284  26.899  0.00  0.00    +0.011 C 
ATOM      2  S   UNL A   1     -21.334   0.891  28.884  0.00  0.00    -0.140 S 
ATOM      3  C   UNL A   1     -24.876   1.240  27.463  0.00  0.00    +0.009 C 
ATOM      4  C   UNL A   1     -25.639   0.861  28.791  0.00  0.00    +0.025 C 
ATOM      5  C   UNL A   1     -23.591   1.273  27.242  0.00  0.00    +0.001 C 
ATOM      6  C   UNL A   1     -22.827   0.193  29.240  0.00  0.00    +0.058 C 
ATOM      7  C   UNL A   1     -22.704   2.114  25.393  0.00  0.00    +0.001 C 
ATOM      8  C   UNL A   1     -24.462   0.046  29.354  0.00  0.00    +0.018 C 
ATOM      9  C   UNL A   1     -21.237   1.620  27.375  0.00  0.00    +0.058 C 
ENDROOT
BRANCH   3  10
ATOM     10  C   UNL A   1     -25.688   1.614  26.461  0.00  0.00    +0.070 C 
ATOM     11  C   UNL A   1     -26.250   2.920  26.395  0.00  0.00    +0.055 C 
ATOM     12  C   UNL A   1     -27.438   3.091  25.645  0.00  0.00    +0.102 C 
ATOM     13  N   UNL A   1     -28.075   2.089  25.003  0.00  0.00    -0.212 NA
ATOM     14  C   UNL A   1     -27.543   0.849  25.079  0.00  0.00    +0.234 C 
ATOM     15  C   UNL A   1     -26.354   0.576  25.777  0.00  0.00    +0.240 C 
ATOM     16  F   UNL A   1     -25.860  -0.681  25.795  0.00  0.00    -0.227 F 
BRANCH  11  17
ATOM     17  C   UNL A   1     -25.642   4.093  27.123  0.00  0.00    +0.262 C 
ATOM     18  N   UNL A   1     -25.614   5.252  26.449  0.00  0.00    -0.200 NA
ATOM     19  C   UNL A   1     -25.026   6.479  26.963  0.00  0.00    +0.139 C 
ATOM     20  O   UNL A   1     -25.143   3.966  28.243  0.00  0.00    -0.269 OA
ENDBRANCH  11  17
BRANCH  14  21
ATOM     21  O   UNL A   1     -28.193  -0.208  24.477  0.00  0.00    -0.459 OA
BRANCH  21  22
ATOM     22  C   UNL A   1     -29.460   0.005  23.866  0.00  0.00    +0.242 C 
BRANCH  22  23
ATOM     23  C   UNL A   1     -30.065  -1.377  23.573  0.00  0.00    +0.229 C 
ATOM     24  O   UNL A   1     -30.729  -1.878  24.721  0.00  0.00    -0.216 OA
ENDBRANCH  22  23
ENDBRANCH  21  22
ENDBRANCH  14  21
ENDBRANCH   3  10
BRANCH   8  25
ATOM     25  C   UNL A   1     -24.855  -1.012  30.143  0.00  0.00    +0.039 C 
BRANCH  25  26
ATOM     26  C   UNL A   1     -24.973  -2.505  29.788  0.00  0.00    -0.021 C 
ATOM     27  C   UNL A   1     -23.906  -3.173  29.146  0.00  0.00    -0.004 C 
ATOM     28  C   UNL A   1     -23.989  -4.549  28.853  0.00  0.00    -0.000 C 
ATOM     29  C   UNL A   1     -25.137  -5.280  29.205  0.00  0.00    -0.000 C 
ATOM     30  C   UNL A   1     -26.232  -4.611  29.784  0.00  0.00    -0.000 C 
ATOM     31  C   UNL A   1     -26.155  -3.232  30.065  0.00  0.00    -0.004 C 
ENDBRANCH  25  26
BRANCH  25  32
ATOM     32  C   UNL A   1     -25.387  -0.679  31.571  0.00  0.00    +0.077 C 
ATOM     33  C   UNL A   1     -25.189   0.773  32.028  0.00  0.00    +0.019 C 
ATOM     34  C   UNL A   1     -25.336   0.684  33.544  0.00  0.00    +0.020 C 
ATOM     35  C   UNL A   1     -24.829  -0.715  33.905  0.00  0.00    +0.089 C 
ATOM     36  N   UNL A   1     -24.758  -1.481  32.646  0.00  0.00    -0.219 NA
ENDBRANCH  25  32
ENDBRANCH   8  25
BRANCH   4  37
ATOM     37  C   UNL A   1     -27.215   0.408  28.801  0.00  0.00    +0.151 C 
BRANCH  37  38
ATOM     38  S   UNL A   1     -28.438   1.287  29.685  0.00  0.00    -0.009 S 
ATOM     39  O   UNL A   1     -29.546   1.317  28.712  0.00  0.00    -0.173 OA
ATOM     40  O   UNL A   1     -29.037   0.616  30.906  0.00  0.00    -0.173 OA
BRANCH  38  41
ATOM     41  C   UNL A   1     -27.616   2.839  30.159  0.00  0.00    +0.166 C 
BRANCH  41  44
ATOM     42 BR   UNL A   1     -27.847   4.057  32.578  0.00  0.00    -0.076 Br
ATOM     43  C   UNL A   1     -29.992   3.666  30.859  0.00  0.00    +0.042 C 
ATOM     44  C   UNL A   1     -28.469   3.975  30.842  0.00  0.00    +0.092 C 
ATOM     45  C   UNL A   1     -30.966   4.240  29.956  0.00  0.00    -0.025 C 
ATOM     46  C   UNL A   1     -28.278   5.329  30.155  0.00  0.00    -0.014 C 
ATOM     47  C   UNL A   1     -30.601   5.396  29.226  0.00  0.00    -0.005 C 
ATOM     48  C   UNL A   1     -29.299   5.988  29.367  0.00  0.00    -0.004 C 
ENDBRANCH  41  44
ENDBRANCH  38  41
ENDBRANCH  37  38
ENDBRANCH   4  37
TORSDOF 12
