MODEL 2965
MODEL 1
REMARK VINA RESULT:    -4.293      0.000      0.000
REMARK INTER + INTRA:          -4.293
REMARK INTER:                  -4.293
REMARK INTRA:                   0.000
REMARK UNBOUND:                 0.000
REMARK  Name = No_2965-gen_results/8p0m/2024-11-27-11-27-31/
REMARK  0 active torsions:
REMARK  status: ('A' for Active; 'I' for Inactive)
REMARK                            x       y       z     vdW  Elec       q    Type
REMARK                         _______ _______ _______ _____ _____    ______ ____
ROOT
ATOM      1  C   UNL A   1     -24.066  -4.744  28.535  0.00  0.00    +0.000 A 
ATOM      2  C   UNL A   1     -23.999  -3.695  28.605  0.00  0.00    +0.000 A 
ATOM      3  C   UNL A   1     -25.247  -5.301  29.194  0.00  0.00    +0.000 A 
ATOM      4  C   UNL A   1     -26.099  -4.636  29.610  0.00  0.00    +0.000 A 
ATOM      5  C   UNL A   1     -24.889  -2.656  29.089  0.00  0.00    +0.000 A 
ATOM      6  C   UNL A   1     -26.045  -3.240  29.674  0.00  0.00    +0.000 A 
ENDROOT
TORSDOF 0
ENDMDL
ENDMDL
