MODEL 2966
MODEL 1
REMARK VINA RESULT:    -6.572      0.000      0.000
REMARK INTER + INTRA:          -7.445
REMARK INTER:                  -6.956
REMARK INTRA:                  -0.489
REMARK UNBOUND:                -0.489
REMARK  Name = No_2966-gen_results/8p0m/2024-11-27-11-27-31/
REMARK  1 active torsions:
REMARK  status: ('A' for Active; 'I' for Inactive)
REMARK    1  A    between atoms: C_4  and  C_6
REMARK                            x       y       z     vdW  Elec       q    Type
REMARK                         _______ _______ _______ _____ _____    ______ ____
ROOT
ATOM      1  C   UNL A   1     -24.417  -1.291  29.249  0.00  0.00    +0.019 C 
ATOM      2  C   UNL A   1     -24.786  -0.580  28.061  0.00  0.00    +0.004 C 
ATOM      3  C   UNL A   1     -24.034   0.553  27.680  0.00  0.00    +0.000 C 
ATOM      4  C   UNL A   1     -22.877   0.601  27.752  0.00  0.00    +0.000 C 
ATOM      5  C   UNL A   1     -22.377   0.087  29.064  0.00  0.00    +0.000 C 
ATOM      6  C   UNL A   1     -22.869  -1.126  29.375  0.00  0.00    +0.004 C 
ATOM      7  C   UNL A   1     -25.065  -0.482  30.490  0.00  0.00    +0.004 C 
ENDROOT
BRANCH   1  11
ATOM      8  C   UNL A   1     -24.281  -5.099  28.739  0.00  0.00    -0.000 A 
ATOM      9  C   UNL A   1     -25.260  -5.286  29.082  0.00  0.00    -0.000 A 
ATOM     10  C   UNL A   1     -23.874  -3.643  28.700  0.00  0.00    -0.004 A 
ATOM     11  C   UNL A   1     -24.738  -2.668  29.241  0.00  0.00    -0.023 A 
ATOM     12  C   UNL A   1     -26.324  -4.478  29.720  0.00  0.00    -0.000 A 
ATOM     13  C   UNL A   1     -25.967  -3.107  29.728  0.00  0.00    -0.004 A 
ENDBRANCH   1  11
TORSDOF 1
ENDMDL
ENDMDL
