MODEL 2967
MODEL 1
REMARK VINA RESULT:    -6.906      0.000      0.000
REMARK INTER + INTRA:          -9.412
REMARK INTER:                  -8.520
REMARK INTRA:                  -0.892
REMARK UNBOUND:                -0.892
REMARK  Name = No_2967-gen_results/8p0m/2024-11-27-11-27-31/
REMARK  4 active torsions:
REMARK  status: ('A' for Active; 'I' for Inactive)
REMARK    1  A    between atoms: C_2  and  O_7
REMARK    2  A    between atoms: C_4  and  C_9
REMARK    3  A    between atoms: O_7  and  C_8
REMARK    4  A    between atoms: C_8  and  C_16
REMARK                            x       y       z     vdW  Elec       q    Type
REMARK                         _______ _______ _______ _____ _____    ______ ____
ROOT
ATOM      1  C   UNL A   1     -26.642   0.203  27.431  0.00  0.00    +0.037 A 
ATOM      2  C   UNL A   1     -25.751  -0.206  27.045  0.00  0.00    +0.139 A 
ATOM      3  C   UNL A   1     -27.645   0.667  26.398  0.00  0.00    -0.001 A 
ATOM      4  C   UNL A   1     -27.404   0.402  25.033  0.00  0.00    -0.014 A 
ATOM      5  C   UNL A   1     -25.275  -0.617  25.705  0.00  0.00    +0.037 A 
ATOM      6  C   UNL A   1     -26.175  -0.213  24.728  0.00  0.00    -0.001 A 
ENDROOT
BRANCH   4   7
ATOM      7  C   UNL A   1     -28.323   0.844  24.009  0.00  0.00    +0.100 C 
ATOM      8  C   UNL A   1     -28.499   2.278  23.948  0.00  0.00    +0.015 C 
ATOM      9  C   UNL A   1     -29.772   2.765  23.539  0.00  0.00    +0.024 C 
ATOM     10  C   UNL A   1     -30.724   1.836  23.018  0.00  0.00    +0.115 C 
ATOM     11  N   UNL A   1     -30.506   0.531  23.197  0.00  0.00    -0.205 NA
ATOM     12  C   UNL A   1     -29.383   0.031  23.734  0.00  0.00    +0.245 C 
ATOM     13  O   UNL A   1     -29.348  -1.206  23.827  0.00  0.00    -0.273 OA
ENDBRANCH   4   7
BRANCH   2  14
ATOM     14  O   UNL A   1     -24.772  -0.658  28.045  0.00  0.00    -0.471 OA
BRANCH  14  15
ATOM     15  C   UNL A   1     -24.966  -1.053  29.204  0.00  0.00    +0.232 C 
BRANCH  15  16
ATOM     16  C   UNL A   1     -25.037  -2.387  29.307  0.00  0.00    +0.021 A 
ATOM     17  C   UNL A   1     -26.122  -3.029  29.754  0.00  0.00    -0.001 A 
ATOM     18  C   UNL A   1     -26.257  -4.367  29.696  0.00  0.00    -0.000 A 
ATOM     19  C   UNL A   1     -25.200  -5.195  29.144  0.00  0.00    -0.000 A 
ATOM     20  C   UNL A   1     -24.076  -4.580  28.677  0.00  0.00    -0.000 A 
ATOM     21  C   UNL A   1     -23.983  -3.180  28.687  0.00  0.00    -0.001 A 
ENDBRANCH  15  16
ENDBRANCH  14  15
ENDBRANCH   2  14
TORSDOF 4
ENDMDL
ENDMDL
