MODEL 2968
MODEL 1
REMARK VINA RESULT:    -7.003      0.000      0.000
REMARK INTER + INTRA:         -12.791
REMARK INTER:                  -9.460
REMARK INTRA:                  -3.331
REMARK UNBOUND:                -3.331
REMARK  Name = No_2968-gen_results/8p0m/2024-11-27-11-27-31/
REMARK  6 active torsions:
REMARK  status: ('A' for Active; 'I' for Inactive)
REMARK    1  A    between atoms: C_3  and  C_7
REMARK    2  A    between atoms: C_6  and  C_17
REMARK    3  A    between atoms: C_17  and  O_19
REMARK    4  A    between atoms: O_19  and  C_20
REMARK    5  A    between atoms: C_20  and  C_21
REMARK    6  A    between atoms: C_26  and  C_27
REMARK                            x       y       z     vdW  Elec       q    Type
REMARK                         _______ _______ _______ _____ _____    ______ ____
ROOT
ATOM      1  C   UNL A   1     -29.075 -11.985  28.450  0.00  0.00    +0.006 A 
ATOM      2  C   UNL A   1     -28.663 -11.587  29.514  0.00  0.00    +0.000 A 
ATOM      3  C   UNL A   1     -28.926 -12.218  30.729  0.00  0.00    +0.002 A 
ATOM      4  C   UNL A   1     -29.787 -13.385  30.746  0.00  0.00    +0.000 A 
ATOM      5  C   UNL A   1     -30.256 -13.798  29.499  0.00  0.00    +0.006 A 
ATOM      6  C   UNL A   1     -29.965 -13.133  28.398  0.00  0.00    +0.076 A 
ENDROOT
BRANCH   3   7
ATOM      7  C   UNL A   1     -28.452 -11.794  32.085  0.00  0.00    +0.022 A 
ATOM      8  C   UNL A   1     -28.828 -10.667  32.619  0.00  0.00    +0.021 A 
ATOM      9  C   UNL A   1     -29.503  -9.856  32.470  0.00  0.00    +0.002 A 
ATOM     10  C   UNL A   1     -29.681  -8.650  33.254  0.00  0.00    +0.000 A 
ATOM     11  C   UNL A   1     -28.812  -8.494  34.326  0.00  0.00    +0.002 A 
ATOM     12  C   UNL A   1     -27.919 -10.464  33.949  0.00  0.00    +0.103 A 
ATOM     13  N   UNL A   1     -27.008 -11.458  34.366  0.00  0.00    -0.148 NA
ATOM     14  C   UNL A   1     -28.047  -9.344  34.692  0.00  0.00    +0.021 A 
ATOM     15  C   UNL A   1     -27.428 -12.760  32.669  0.00  0.00    +0.122 A 
ATOM     16  N   UNL A   1     -26.807 -12.482  33.817  0.00  0.00    -0.146 NA
ENDBRANCH   3   7
BRANCH   6  17
ATOM     17  C   UNL A   1     -30.497 -13.597  27.089  0.00  0.00    +0.342 C 
ATOM     18  O   UNL A   1     -29.890 -14.448  26.417  0.00  0.00    -0.245 OA
BRANCH  17  19
ATOM     19  O   UNL A   1     -31.740 -13.439  26.816  0.00  0.00    -0.440 OA
BRANCH  19  20
ATOM     20  C   UNL A   1     -32.237 -12.231  26.356  0.00  0.00    +0.235 C 
BRANCH  20  21
ATOM     21  C   UNL A   1     -32.144 -11.120  27.230  0.00  0.00    +0.021 A 
ATOM     22  C   UNL A   1     -31.552 -10.136  26.918  0.00  0.00    -0.001 A 
ATOM     23  C   UNL A   1     -32.768 -11.271  28.552  0.00  0.00    -0.001 A 
ATOM     24  C   UNL A   1     -32.648 -10.251  29.499  0.00  0.00    -0.000 A 
ATOM     25  C   UNL A   1     -31.403  -8.985  27.890  0.00  0.00    -0.000 A 
ATOM     26  C   UNL A   1     -31.998  -9.101  29.102  0.00  0.00    -0.000 A 
BRANCH  26  27
ATOM     27  C   UNL A   1     -31.887  -7.968  30.066  0.00  0.00    -0.000 A 
ATOM     28  C   UNL A   1     -31.132  -7.129  30.034  0.00  0.00    -0.000 A 
ATOM     29  C   UNL A   1     -31.060  -6.013  30.992  0.00  0.00    +0.000 A 
ATOM     30  C   UNL A   1     -31.978  -6.046  32.067  0.00  0.00    +0.000 A 
ATOM     31  C   UNL A   1     -32.869  -7.082  32.122  0.00  0.00    +0.000 A 
ATOM     32  C   UNL A   1     -32.906  -8.094  31.168  0.00  0.00    -0.000 A 
ENDBRANCH  26  27
ENDBRANCH  20  21
ENDBRANCH  19  20
ENDBRANCH  17  19
ENDBRANCH   6  17
TORSDOF 6
ENDMDL
ENDMDL
