REMARK  Name = No_2968-gen_results/8p0m/2024-11-27-11-27-31/
REMARK  6 active torsions:
REMARK  status: ('A' for Active; 'I' for Inactive)
REMARK    1  A    between atoms: C_3  and  C_7
REMARK    2  A    between atoms: C_6  and  C_17
REMARK    3  A    between atoms: C_17  and  O_19
REMARK    4  A    between atoms: O_19  and  C_20
REMARK    5  A    between atoms: C_20  and  C_21
REMARK    6  A    between atoms: C_26  and  C_27
REMARK                            x       y       z     vdW  Elec       q    Type
REMARK                         _______ _______ _______ _____ _____    ______ ____
ROOT
ATOM      1  C   UNL A   1     -28.016  -0.814  28.878  0.00  0.00    +0.006 A 
ATOM      2  C   UNL A   1     -27.064  -0.119  28.608  0.00  0.00    +0.000 A 
ATOM      3  C   UNL A   1     -25.765  -0.390  29.036  0.00  0.00    +0.002 A 
ATOM      4  C   UNL A   1     -25.530  -1.530  29.901  0.00  0.00    +0.000 A 
ATOM      5  C   UNL A   1     -26.658  -2.292  30.203  0.00  0.00    +0.006 A 
ATOM      6  C   UNL A   1     -27.855  -1.956  29.763  0.00  0.00    +0.076 A 
ENDROOT
BRANCH   3   7
ATOM      7  C   UNL A   1     -24.535   0.413  28.743  0.00  0.00    +0.022 A 
ATOM      8  C   UNL A   1     -24.483   1.243  27.740  0.00  0.00    +0.021 A 
ATOM      9  C   UNL A   1     -25.098   1.689  26.992  0.00  0.00    +0.002 A 
ATOM     10  C   UNL A   1     -24.734   2.597  25.923  0.00  0.00    +0.000 A 
ATOM     11  C   UNL A   1     -23.381   2.892  25.816  0.00  0.00    +0.002 A 
ATOM     12  C   UNL A   1     -22.935   1.716  27.616  0.00  0.00    +0.103 A 
ATOM     13  N   UNL A   1     -21.968   1.294  28.554  0.00  0.00    -0.148 NA
ATOM     14  C   UNL A   1     -22.559   2.547  26.621  0.00  0.00    +0.021 A 
ATOM     15  C   UNL A   1     -23.375   0.052  29.663  0.00  0.00    +0.122 A 
ATOM     16  N   UNL A   1     -22.164   0.581  29.471  0.00  0.00    -0.146 NA
ENDBRANCH   3   7
BRANCH   6  17
ATOM     17  C   UNL A   1     -29.037  -2.786  30.120  0.00  0.00    +0.342 C 
ATOM     18  O   UNL A   1     -28.931  -4.013  30.282  0.00  0.00    -0.245 OA
BRANCH  17  19
ATOM     19  O   UNL A   1     -30.069  -2.231  30.640  0.00  0.00    -0.440 OA
BRANCH  19  20
ATOM     20  C   UNL A   1     -31.241  -2.935  30.862  0.00  0.00    +0.235 C 
BRANCH  20  21
ATOM     21  C   UNL A   1     -32.459  -2.245  30.644  0.00  0.00    +0.021 A 
ATOM     22  C   UNL A   1     -33.498  -2.823  30.602  0.00  0.00    -0.001 A 
ATOM     23  C   UNL A   1     -32.361  -0.795  30.421  0.00  0.00    -0.001 A 
ATOM     24  C   UNL A   1     -33.509  -0.058  30.119  0.00  0.00    -0.000 A 
ATOM     25  C   UNL A   1     -34.782  -2.080  30.300  0.00  0.00    -0.000 A 
ATOM     26  C   UNL A   1     -34.708  -0.739  30.120  0.00  0.00    -0.000 A 
BRANCH  26  27
ATOM     27  C   UNL A   1     -35.965   0.017  29.848  0.00  0.00    -0.000 A 
ATOM     28  C   UNL A   1     -36.870  -0.361  29.289  0.00  0.00    -0.000 A 
ATOM     29  C   UNL A   1     -38.105   0.406  29.052  0.00  0.00    +0.000 A 
ATOM     30  C   UNL A   1     -38.114   1.742  29.514  0.00  0.00    +0.000 A 
ATOM     31  C   UNL A   1     -37.003   2.208  30.160  0.00  0.00    +0.000 A 
ATOM     32  C   UNL A   1     -35.875   1.424  30.379  0.00  0.00    -0.000 A 
ENDBRANCH  26  27
ENDBRANCH  20  21
ENDBRANCH  19  20
ENDBRANCH  17  19
ENDBRANCH   6  17
TORSDOF 6
