REMARK  Name = outputs/IAG933/test6/raw/output_2969_IAG933_linker_design_.xyz
REMARK  15 active torsions:
REMARK  status: ('A' for Active; 'I' for Inactive)
REMARK    1  A    between atoms: C_1  and  C_2
REMARK    2  A    between atoms: C_1  and  C_8
REMARK    3  A    between atoms: C_1  and  N_36
REMARK    4  A    between atoms: C_13  and  N_39
REMARK    5  A    between atoms: C_14  and  C_15
REMARK    6  A    between atoms: C_21  and  O_22
REMARK    7  A    between atoms: O_22  and  C_23
REMARK    8  A    between atoms: C_23  and  C_24
REMARK    9  A    between atoms: C_29  and  N_36
REMARK   10  A    between atoms: C_29  and  C_38
REMARK   11  A    between atoms: C_29  and  N_39
REMARK   12  A    between atoms: C_30  and  C_34
REMARK   13  A    between atoms: C_30  and  C_41
REMARK   14  A    between atoms: N_31  and  C_38
REMARK   15  A    between atoms: N_36  and  C_41
REMARK                            x       y       z     vdW  Elec       q    Type
REMARK                         _______ _______ _______ _____ _____    ______ ____
ROOT
ATOM      1  C   UNL A   1     -23.962   0.389  28.256  0.00  0.00    +0.163 C 
ENDROOT
BRANCH   1   3
ATOM      2  C   UNL A   1     -23.369   1.757  25.994  0.00  0.00    +0.308 C 
ATOM      3  N   UNL A   1     -24.387   1.208  26.952  0.00  0.00    -0.235 N 
ATOM      4  O   UNL A   1     -22.220   2.123  25.777  0.00  0.00    -0.265 OA
BRANCH   3   5
ATOM      5  C   UNL A   1     -25.688   1.614  26.461  0.00  0.00    +0.093 C 
ATOM      6  C   UNL A   1     -26.250   2.920  26.395  0.00  0.00    +0.090 C 
ATOM      7  C   UNL A   1     -27.438   3.091  25.645  0.00  0.00    +0.108 C 
ATOM      8  N   UNL A   1     -28.075   2.089  25.003  0.00  0.00    -0.208 NA
ATOM      9  C   UNL A   1     -27.543   0.849  25.079  0.00  0.00    +0.255 C 
ATOM     10  C   UNL A   1     -26.354   0.576  25.777  0.00  0.00    +0.207 C 
ATOM     11  F   UNL A   1     -25.860  -0.681  25.795  0.00  0.00    -0.198 F 
BRANCH   6  12
ATOM     12  C   UNL A   1     -25.642   4.093  27.123  0.00  0.00    +0.268 C 
ATOM     13  N   UNL A   1     -25.614   5.252  26.449  0.00  0.00    -0.200 NA
ATOM     14  C   UNL A   1     -25.026   6.479  26.963  0.00  0.00    +0.139 C 
ATOM     15  O   UNL A   1     -25.143   3.966  28.243  0.00  0.00    -0.268 OA
ENDBRANCH   6  12
BRANCH   9  16
ATOM     16  O   UNL A   1     -28.193  -0.208  24.477  0.00  0.00    -0.456 OA
BRANCH  16  17
ATOM     17  C   UNL A   1     -29.460   0.005  23.866  0.00  0.00    +0.243 C 
BRANCH  17  18
ATOM     18  C   UNL A   1     -30.065  -1.377  23.573  0.00  0.00    +0.229 C 
ATOM     19  O   UNL A   1     -30.729  -1.878  24.721  0.00  0.00    -0.216 OA
ENDBRANCH  17  18
ENDBRANCH  16  17
ENDBRANCH   9  16
ENDBRANCH   3   5
ENDBRANCH   1   3
BRANCH   1  20
ATOM     20  N   UNL A   1     -25.071  -0.331  28.878  0.00  0.00    -0.253 NA
BRANCH  20  21
ATOM     21  C   UNL A   1     -24.855  -1.012  30.143  0.00  0.00    +0.098 C 
BRANCH  21  22
ATOM     22  C   UNL A   1     -24.973  -2.505  29.788  0.00  0.00    -0.006 C 
ATOM     23  C   UNL A   1     -23.906  -3.173  29.146  0.00  0.00    -0.003 C 
ATOM     24  C   UNL A   1     -23.989  -4.549  28.853  0.00  0.00    -0.000 C 
ATOM     25  C   UNL A   1     -25.137  -5.280  29.205  0.00  0.00    -0.000 C 
ATOM     26  C   UNL A   1     -26.232  -4.611  29.784  0.00  0.00    -0.000 C 
ATOM     27  C   UNL A   1     -26.155  -3.232  30.065  0.00  0.00    -0.003 C 
ENDBRANCH  21  22
BRANCH  21  28
ATOM     28  C   UNL A   1     -25.387  -0.679  31.571  0.00  0.00    +0.092 C 
ATOM     29  C   UNL A   1     -25.189   0.773  32.028  0.00  0.00    +0.021 C 
ATOM     30  C   UNL A   1     -25.336   0.684  33.544  0.00  0.00    +0.020 C 
ATOM     31  C   UNL A   1     -24.829  -0.715  33.905  0.00  0.00    +0.089 C 
ATOM     32  N   UNL A   1     -24.758  -1.481  32.646  0.00  0.00    -0.218 NA
ENDBRANCH  21  28
ENDBRANCH  20  21
BRANCH  20  33
ATOM     33  C   UNL A   1     -26.566  -0.440  28.574  0.00  0.00    +0.079 C 
BRANCH  33  34
ATOM     34  C   UNL A   1     -27.423   0.190  29.692  0.00  0.00    +0.044 C 
BRANCH  34  36
ATOM     35  C   UNL A   1     -28.478   1.657  31.372  0.00  0.00    -0.004 C 
ATOM     36  C   UNL A   1     -27.541   1.618  30.333  0.00  0.00    -0.018 C 
ATOM     37  O   UNL A   1     -26.413   5.121  30.452  0.00  0.00    -0.287 OA
ATOM     38  C   UNL A   1     -26.981   3.995  30.869  0.00  0.00    +0.195 C 
ATOM     39  C   UNL A   1     -28.640   2.794  32.145  0.00  0.00    +0.003 C 
ATOM     40  C   UNL A   1     -27.896   3.953  31.915  0.00  0.00    +0.042 C 
ATOM     41  C   UNL A   1     -26.749   2.800  30.119  0.00  0.00    +0.038 C 
ENDBRANCH  34  36
ENDBRANCH  33  34
ENDBRANCH  20  33
ENDBRANCH   1  20
BRANCH   1  42
ATOM     42  C   UNL A   1     -23.486   1.335  29.150  0.00  0.00    +0.151 C 
BRANCH  42  44
ATOM     43  N   UNL A   1     -20.706   1.328  27.493  0.00  0.00    -0.127 NA
ATOM     44  N   UNL A   1     -22.415   2.159  28.595  0.00  0.00    -0.213 NA
ATOM     45  C   UNL A   1     -21.650   1.755  27.759  0.00  0.00    +0.204 C 
ENDBRANCH  42  44
ENDBRANCH   1  42
TORSDOF 15
