MODEL 2969
MODEL 1
REMARK VINA RESULT:    -7.179      0.000      0.000
REMARK INTER + INTRA:          -8.206
REMARK INTER:                  -8.019
REMARK INTRA:                  -0.187
REMARK UNBOUND:                -0.187
REMARK  Name = No_2969-gen_results/8p0m/2024-11-27-11-27-31/
REMARK  2 active torsions:
REMARK  status: ('A' for Active; 'I' for Inactive)
REMARK    1  A    between atoms: C_2  and  O_7
REMARK    2  A    between atoms: O_7  and  C_8
REMARK                            x       y       z     vdW  Elec       q    Type
REMARK                         _______ _______ _______ _____ _____    ______ ____
ROOT
ATOM      1  C   UNL A   1     -24.999  -1.386  28.266  0.00  0.00    +0.037 A 
ATOM      2  C   UNL A   1     -25.375  -0.539  28.768  0.00  0.00    +0.145 A 
ATOM      3  C   UNL A   1     -24.900  -2.573  29.115  0.00  0.00    +0.003 A 
ATOM      4  C   UNL A   1     -25.911  -3.141  29.525  0.00  0.00    +0.000 A 
ATOM      5  C   UNL A   1     -26.712  -0.696  29.585  0.00  0.00    +0.037 A 
ATOM      6  C   UNL A   1     -26.842  -2.004  30.157  0.00  0.00    +0.003 A 
ATOM      7  C   UNL A   1     -23.864  -3.658  28.637  0.00  0.00    +0.000 A 
ATOM      8  C   UNL A   1     -24.111  -4.944  28.586  0.00  0.00    +0.000 A 
ATOM      9  C   UNL A   1     -25.381  -5.428  29.180  0.00  0.00    +0.000 A 
ATOM     10  C   UNL A   1     -26.270  -4.501  29.706  0.00  0.00    +0.000 A 
ENDROOT
BRANCH   2  11
ATOM     11  O   UNL A   1     -25.426   0.763  28.248  0.00  0.00    -0.454 OA
BRANCH  11  12
ATOM     12  C   UNL A   1     -24.418   1.060  27.420  0.00  0.00    +0.145 A 
ATOM     13  C   UNL A   1     -23.223   1.260  28.118  0.00  0.00    +0.037 A 
ATOM     14  C   UNL A   1     -22.108   1.853  27.423  0.00  0.00    +0.003 A 
ATOM     15  C   UNL A   1     -22.302   2.137  26.046  0.00  0.00    +0.000 A 
ATOM     16  C   UNL A   1     -23.519   1.937  25.472  0.00  0.00    +0.003 A 
ATOM     17  C   UNL A   1     -24.638   1.449  26.189  0.00  0.00    +0.037 A 
ENDBRANCH  11  12
ENDBRANCH   2  11
TORSDOF 2
ENDMDL
ENDMDL
