MODEL 296
MODEL 1
REMARK VINA RESULT:    -4.378      0.000      0.000
REMARK INTER + INTRA:          -4.378
REMARK INTER:                  -4.378
REMARK INTRA:                   0.000
REMARK UNBOUND:                 0.000
REMARK  Name = No_296-gen_results/8p0m/2024-11-27-11-27-31/
REMARK  0 active torsions:
REMARK  status: ('A' for Active; 'I' for Inactive)
REMARK                            x       y       z     vdW  Elec       q    Type
REMARK                         _______ _______ _______ _____ _____    ______ ____
ROOT
ATOM      1  C   UNL A   1     -24.911  -5.463  28.955  0.00  0.00    +0.000 A 
ATOM      2  C   UNL A   1     -24.151  -4.795  28.662  0.00  0.00    +0.000 A 
ATOM      3  C   UNL A   1     -26.055  -4.807  29.588  0.00  0.00    +0.000 A 
ATOM      4  C   UNL A   1     -26.116  -3.446  29.754  0.00  0.00    +0.000 A 
ATOM      5  C   UNL A   1     -24.045  -3.539  28.674  0.00  0.00    +0.000 A 
ATOM      6  C   UNL A   1     -25.030  -2.750  29.240  0.00  0.00    +0.000 A 
ENDROOT
TORSDOF 0
ENDMDL
ENDMDL
