MODEL 2970
MODEL 1
REMARK VINA RESULT:    -7.843      0.000      0.000
REMARK INTER + INTRA:         -12.868
REMARK INTER:                 -11.511
REMARK INTRA:                  -1.357
REMARK UNBOUND:                -1.357
REMARK  Name = No_2970-gen_results/8p0m/2024-11-27-11-27-31/
REMARK  8 active torsions:
REMARK  status: ('A' for Active; 'I' for Inactive)
REMARK    1  A    between atoms: C_3  and  C_4
REMARK    2  A    between atoms: C_6  and  C_13
REMARK    3  A    between atoms: C_13  and  O_15
REMARK    4  A    between atoms: O_15  and  C_16
REMARK    5  A    between atoms: C_16  and  C_17
REMARK    6  A    between atoms: C_16  and  C_21
REMARK    7  A    between atoms: C_17  and  C_18
REMARK    8  A    between atoms: C_21  and  C_22
REMARK                            x       y       z     vdW  Elec       q    Type
REMARK                         _______ _______ _______ _____ _____    ______ ____
ROOT
ATOM      1  C   UNL A   1     -24.385   0.991  26.888  0.00  0.00    +0.341 C 
ATOM      2  O   UNL A   1     -23.471   1.451  26.240  0.00  0.00    -0.245 OA
ENDROOT
BRANCH   1   6
ATOM      3  C   UNL A   1     -26.980   1.181  26.878  0.00  0.00    +0.006 A 
ATOM      4  C   UNL A   1     -28.033   1.028  26.304  0.00  0.00    +0.000 A 
ATOM      5  C   UNL A   1     -28.112   0.283  25.133  0.00  0.00    +0.000 A 
ATOM      6  C   UNL A   1     -25.726   0.740  26.248  0.00  0.00    +0.076 A 
ATOM      7  C   UNL A   1     -25.702  -0.058  25.142  0.00  0.00    +0.006 A 
ATOM      8  C   UNL A   1     -26.934  -0.326  24.523  0.00  0.00    +0.000 A 
BRANCH   5   9
ATOM      9  C   UNL A   1     -29.343   0.031  24.330  0.00  0.00    +0.000 A 
ATOM     10  C   UNL A   1     -29.880  -1.265  24.013  0.00  0.00    +0.000 A 
ATOM     11  C   UNL A   1     -31.027  -1.331  23.276  0.00  0.00    +0.000 A 
ATOM     12  C   UNL A   1     -31.900  -0.327  23.004  0.00  0.00    +0.000 A 
ATOM     13  C   UNL A   1     -29.974   1.119  23.622  0.00  0.00    +0.000 A 
ATOM     14  C   UNL A   1     -30.977   0.998  22.927  0.00  0.00    +0.000 A 
ENDBRANCH   5   9
ENDBRANCH   1   6
BRANCH   1  15
ATOM     15  O   UNL A   1     -24.237   0.747  28.124  0.00  0.00    -0.446 OA
BRANCH  15  16
ATOM     16  C   UNL A   1     -23.693  -0.430  28.575  0.00  0.00    +0.211 C 
BRANCH  16  17
ATOM     17  C   UNL A   1     -22.802  -0.359  29.504  0.00  0.00    +0.256 C 
ATOM     18  O   UNL A   1     -23.022   0.727  30.482  0.00  0.00    -0.211 OA
BRANCH  17  19
ATOM     19  C   UNL A   1     -21.521  -0.229  29.032  0.00  0.00    +0.244 C 
ATOM     20  O   UNL A   1     -20.929  -1.174  28.817  0.00  0.00    -0.285 OA
ENDBRANCH  17  19
ENDBRANCH  16  17
BRANCH  16  21
ATOM     21  C   UNL A   1     -25.012  -1.200  29.009  0.00  0.00    +0.073 C 
BRANCH  21  22
ATOM     22  C   UNL A   1     -25.024  -2.493  28.977  0.00  0.00    -0.018 A 
ATOM     23  C   UNL A   1     -26.108  -3.189  29.679  0.00  0.00    -0.004 A 
ATOM     24  C   UNL A   1     -26.143  -4.625  29.687  0.00  0.00    -0.000 A 
ATOM     25  C   UNL A   1     -25.085  -5.336  29.094  0.00  0.00    -0.000 A 
ATOM     26  C   UNL A   1     -24.010  -4.635  28.489  0.00  0.00    -0.000 A 
ATOM     27  C   UNL A   1     -24.044  -3.293  28.494  0.00  0.00    -0.004 A 
ENDBRANCH  21  22
ENDBRANCH  16  21
ENDBRANCH  15  16
ENDBRANCH   1  15
TORSDOF 8
ENDMDL
ENDMDL
