REMARK  Name = outputs/IAG933/test6/raw/output_2970_IAG933_linker_design_.xyz
REMARK  12 active torsions:
REMARK  status: ('A' for Active; 'I' for Inactive)
REMARK    1  A    between atoms: C_1  and  C_2
REMARK    2  A    between atoms: C_1  and  C_8
REMARK    3  A    between atoms: C_1  and  C_36
REMARK    4  A    between atoms: C_13  and  C_31
REMARK    5  A    between atoms: C_14  and  C_15
REMARK    6  A    between atoms: C_21  and  O_22
REMARK    7  A    between atoms: O_22  and  C_23
REMARK    8  A    between atoms: C_23  and  C_24
REMARK    9  A    between atoms: C_28  and  O_37
REMARK   10  A    between atoms: C_36  and  C_41
REMARK   11  A    between atoms: C_36  and  S_44
REMARK   12  A    between atoms: O_37  and  C_40
REMARK                            x       y       z     vdW  Elec       q    Type
REMARK                         _______ _______ _______ _____ _____    ______ ____
ROOT
ATOM      1  C   UNL A   1     -25.608  -0.237  29.071  0.00  0.00    +0.073 C 
ENDROOT
BRANCH   1   7
ATOM      2  O   UNL A   1     -21.798   1.733  26.734  0.00  0.00    -0.461 OA
ATOM      3  C   UNL A   1     -24.309   1.246  27.097  0.00  0.00    +0.044 C 
ATOM      4  C   UNL A   1     -22.727   0.312  28.683  0.00  0.00    +0.017 C 
ATOM      5  C   UNL A   1     -23.104   1.938  26.398  0.00  0.00    +0.198 C 
ATOM      6 CL   UNL A   1     -23.198   2.794  25.028  0.00  0.00    -0.043 Cl
ATOM      7  C   UNL A   1     -24.286   0.530  28.355  0.00  0.00    -0.009 C 
ATOM      8  C   UNL A   1     -21.613   0.776  27.709  0.00  0.00    +0.233 C 
BRANCH   3   9
ATOM      9  C   UNL A   1     -25.688   1.614  26.461  0.00  0.00    +0.042 C 
ATOM     10  C   UNL A   1     -26.250   2.920  26.395  0.00  0.00    +0.077 C 
ATOM     11  C   UNL A   1     -27.438   3.091  25.645  0.00  0.00    +0.107 C 
ATOM     12  N   UNL A   1     -28.075   2.089  25.003  0.00  0.00    -0.208 NA
ATOM     13  C   UNL A   1     -27.543   0.849  25.079  0.00  0.00    +0.253 C 
ATOM     14  C   UNL A   1     -26.354   0.576  25.777  0.00  0.00    +0.193 C 
ATOM     15  F   UNL A   1     -25.860  -0.681  25.795  0.00  0.00    -0.199 F 
BRANCH  10  16
ATOM     16  C   UNL A   1     -25.642   4.093  27.123  0.00  0.00    +0.266 C 
ATOM     17  N   UNL A   1     -25.614   5.252  26.449  0.00  0.00    -0.200 NA
ATOM     18  C   UNL A   1     -25.026   6.479  26.963  0.00  0.00    +0.139 C 
ATOM     19  O   UNL A   1     -25.143   3.966  28.243  0.00  0.00    -0.268 OA
ENDBRANCH  10  16
BRANCH  13  20
ATOM     20  O   UNL A   1     -28.193  -0.208  24.477  0.00  0.00    -0.456 OA
BRANCH  20  21
ATOM     21  C   UNL A   1     -29.460   0.005  23.866  0.00  0.00    +0.243 C 
BRANCH  21  22
ATOM     22  C   UNL A   1     -30.065  -1.377  23.573  0.00  0.00    +0.229 C 
ATOM     23  O   UNL A   1     -30.729  -1.878  24.721  0.00  0.00    -0.216 OA
ENDBRANCH  21  22
ENDBRANCH  20  21
ENDBRANCH  13  20
ENDBRANCH   3   9
ENDBRANCH   1   7
BRANCH   1  26
ATOM     24  C   UNL A   1     -27.666   2.072  29.375  0.00  0.00    +0.067 C 
ATOM     25  C   UNL A   1     -29.447  -0.121  28.477  0.00  0.00    +0.196 C 
ATOM     26  S   UNL A   1     -27.551   0.217  28.776  0.00  0.00    -0.116 S 
BRANCH  25  27
ATOM     27  O   UNL A   1     -30.302   1.003  28.433  0.00  0.00    -0.469 OA
BRANCH  27  28
ATOM     28  C   UNL A   1     -31.341   1.071  27.458  0.00  0.00    +0.184 C 
ATOM     29  C   UNL A   1     -33.483   1.892  25.843  0.00  0.00    +0.089 C 
ATOM     30  C   UNL A   1     -33.768   1.219  27.164  0.00  0.00    +0.023 C 
ATOM     31  C   UNL A   1     -31.089   2.102  26.315  0.00  0.00    +0.132 C 
ATOM     32  N   UNL A   1     -32.388   2.830  26.020  0.00  0.00    -0.214 NA
ATOM     33  C   UNL A   1     -32.719   1.408  28.175  0.00  0.00    +0.046 C 
ENDBRANCH  27  28
ENDBRANCH  25  27
ENDBRANCH   1  26
BRANCH   1  34
ATOM     34  C   UNL A   1     -24.855  -1.012  30.143  0.00  0.00    +0.052 C 
BRANCH  34  35
ATOM     35  C   UNL A   1     -24.973  -2.505  29.788  0.00  0.00    -0.020 C 
ATOM     36  C   UNL A   1     -23.906  -3.173  29.146  0.00  0.00    -0.004 C 
ATOM     37  C   UNL A   1     -23.989  -4.549  28.853  0.00  0.00    -0.000 C 
ATOM     38  C   UNL A   1     -25.137  -5.280  29.205  0.00  0.00    -0.000 C 
ATOM     39  C   UNL A   1     -26.232  -4.611  29.784  0.00  0.00    -0.000 C 
ATOM     40  C   UNL A   1     -26.155  -3.232  30.065  0.00  0.00    -0.004 C 
ENDBRANCH  34  35
BRANCH  34  41
ATOM     41  C   UNL A   1     -25.387  -0.679  31.571  0.00  0.00    +0.078 C 
ATOM     42  C   UNL A   1     -25.189   0.773  32.028  0.00  0.00    +0.019 C 
ATOM     43  C   UNL A   1     -25.336   0.684  33.544  0.00  0.00    +0.020 C 
ATOM     44  C   UNL A   1     -24.829  -0.715  33.905  0.00  0.00    +0.089 C 
ATOM     45  N   UNL A   1     -24.758  -1.481  32.646  0.00  0.00    -0.219 NA
ENDBRANCH  34  41
ENDBRANCH   1  34
TORSDOF 12
