MODEL 2971
MODEL 1
REMARK VINA RESULT:    -4.905      0.000      0.000
REMARK INTER + INTRA:          -5.540
REMARK INTER:                  -5.478
REMARK INTRA:                  -0.062
REMARK UNBOUND:                -0.062
REMARK  Name = No_2971-gen_results/8p0m/2024-11-27-11-27-31/
REMARK  2 active torsions:
REMARK  status: ('A' for Active; 'I' for Inactive)
REMARK    1  A    between atoms: C_1  and  C_8
REMARK    2  A    between atoms: C_5  and  C_10
REMARK                            x       y       z     vdW  Elec       q    Type
REMARK                         _______ _______ _______ _____ _____    ______ ____
ROOT
ATOM      1  C   UNL A   1     -24.114  -3.064  29.553  0.00  0.00    -0.014 C 
ATOM      2  C   UNL A   1     -23.866  -2.009  29.017  0.00  0.00    -0.047 C 
ATOM      3  C   UNL A   1     -22.735  -1.244  29.247  0.00  0.00    +0.022 C 
ATOM      4  C   UNL A   1     -22.453   0.054  28.684  0.00  0.00    +0.010 C 
ATOM      5  C   UNL A   1     -23.399   0.630  27.803  0.00  0.00    +0.044 C 
ATOM      6  C   UNL A   1     -24.581  -0.104  27.522  0.00  0.00    +0.010 C 
ATOM      7  C   UNL A   1     -24.769  -1.309  28.126  0.00  0.00    +0.022 C 
ENDROOT
BRANCH   1   8
ATOM      8  C   UNL A   1     -24.182  -4.248  28.613  0.00  0.00    +0.135 C 
ATOM      9  N   UNL A   1     -24.843  -5.314  28.967  0.00  0.00    -0.126 NA
ENDBRANCH   1   8
BRANCH   5  10
ATOM     10  C   UNL A   1     -23.167   1.925  27.176  0.00  0.00    +0.095 C 
ATOM     11  N   UNL A   1     -23.593   2.871  27.405  0.00  0.00    -0.151 NA
ENDBRANCH   5  10
TORSDOF 2
ENDMDL
ENDMDL
