REMARK  Name = outputs/IAG933/test6/raw/output_2971_IAG933_linker_design_.xyz
REMARK  14 active torsions:
REMARK  status: ('A' for Active; 'I' for Inactive)
REMARK    1  A    between atoms: C_1  and  C_2
REMARK    2  A    between atoms: C_1  and  C_8
REMARK    3  A    between atoms: C_1  and  C_41
REMARK    4  A    between atoms: C_13  and  C_32
REMARK    5  A    between atoms: C_14  and  C_15
REMARK    6  A    between atoms: C_21  and  O_22
REMARK    7  A    between atoms: O_22  and  C_23
REMARK    8  A    between atoms: C_23  and  C_24
REMARK    9  A    between atoms: N_31  and  C_41
REMARK   10  A    between atoms: N_31  and  C_42
REMARK   11  A    between atoms: C_32  and  C_35
REMARK   12  A    between atoms: C_35  and  C_41
REMARK   13  A    between atoms: C_35  and  C_46
REMARK   14  A    between atoms: C_37  and  C_46
REMARK                            x       y       z     vdW  Elec       q    Type
REMARK                         _______ _______ _______ _____ _____    ______ ____
ROOT
ATOM      1  C   UNL A   1     -25.632  -0.317  28.978  0.00  0.00    +0.079 C 
ENDROOT
BRANCH   1   2
ATOM      2  C   UNL A   1     -24.855  -1.012  30.143  0.00  0.00    +0.054 C 
BRANCH   2   3
ATOM      3  C   UNL A   1     -24.973  -2.505  29.788  0.00  0.00    -0.020 C 
ATOM      4  C   UNL A   1     -23.906  -3.173  29.146  0.00  0.00    -0.004 C 
ATOM      5  C   UNL A   1     -23.989  -4.549  28.853  0.00  0.00    -0.000 C 
ATOM      6  C   UNL A   1     -25.137  -5.280  29.205  0.00  0.00    -0.000 C 
ATOM      7  C   UNL A   1     -26.232  -4.611  29.784  0.00  0.00    -0.000 C 
ATOM      8  C   UNL A   1     -26.155  -3.232  30.065  0.00  0.00    -0.004 C 
ENDBRANCH   2   3
BRANCH   2   9
ATOM      9  C   UNL A   1     -25.387  -0.679  31.571  0.00  0.00    +0.078 C 
ATOM     10  C   UNL A   1     -25.189   0.773  32.028  0.00  0.00    +0.019 C 
ATOM     11  C   UNL A   1     -25.336   0.684  33.544  0.00  0.00    +0.020 C 
ATOM     12  C   UNL A   1     -24.829  -0.715  33.905  0.00  0.00    +0.089 C 
ATOM     13  N   UNL A   1     -24.758  -1.481  32.646  0.00  0.00    -0.219 NA
ENDBRANCH   2   9
ENDBRANCH   1   2
BRANCH   1  14
ATOM     14  N   UNL A   1     -27.198   0.239  28.812  0.00  0.00    -0.216 NA
BRANCH  14  23
ATOM     15  O   UNL A   1     -29.481  -0.465  27.557  0.00  0.00    -0.218 OA
ATOM     16  C   UNL A   1     -28.296   2.146  29.651  0.00  0.00    +0.164 C 
ATOM     17  C   UNL A   1     -30.667   3.550  31.964  0.00  0.00    +0.210 C 
ATOM     18  O   UNL A   1     -31.882   0.870  28.141  0.00  0.00    -0.214 OA
ATOM     19  N   UNL A   1     -29.587   2.590  30.122  0.00  0.00    -0.195 N 
ATOM     20  C   UNL A   1     -31.839   3.445  29.819  0.00  0.00    +0.022 C 
ATOM     21  O   UNL A   1     -29.594   2.792  31.443  0.00  0.00    -0.372 OA
ATOM     22  C   UNL A   1     -31.829   3.870  31.163  0.00  0.00    +0.045 C 
ATOM     23  C   UNL A   1     -28.235   0.964  28.983  0.00  0.00    +0.132 C 
ATOM     24  C   UNL A   1     -30.708   1.505  28.312  0.00  0.00    +0.224 C 
ATOM     25  C   UNL A   1     -29.582   0.336  28.751  0.00  0.00    +0.206 C 
ATOM     26  C   UNL A   1     -30.734   2.549  29.369  0.00  0.00    +0.104 C 
ENDBRANCH  14  23
ENDBRANCH   1  14
BRANCH   1  27
ATOM     27  C   UNL A   1     -24.455   0.065  27.955  0.00  0.00    +0.021 C 
BRANCH  27  28
ATOM     28  C   UNL A   1     -24.789   1.403  27.374  0.00  0.00    +0.026 C 
BRANCH  28  29
ATOM     29  C   UNL A   1     -25.688   1.614  26.461  0.00  0.00    -0.001 C 
ATOM     30  C   UNL A   1     -26.250   2.920  26.395  0.00  0.00    +0.052 C 
ATOM     31  C   UNL A   1     -27.438   3.091  25.645  0.00  0.00    +0.159 C 
ATOM     32  N   UNL A   1     -28.075   2.089  25.003  0.00  0.00    -0.234 NA
ATOM     33  C   UNL A   1     -27.543   0.849  25.079  0.00  0.00    +0.234 C 
ATOM     34  C   UNL A   1     -26.354   0.576  25.777  0.00  0.00    +0.254 C 
ATOM     35  F   UNL A   1     -25.860  -0.681  25.795  0.00  0.00    -0.223 F 
BRANCH  30  36
ATOM     36  C   UNL A   1     -25.642   4.093  27.123  0.00  0.00    +0.262 C 
ATOM     37  N   UNL A   1     -25.614   5.252  26.449  0.00  0.00    -0.200 NA
ATOM     38  C   UNL A   1     -25.026   6.479  26.963  0.00  0.00    +0.139 C 
ATOM     39  O   UNL A   1     -25.143   3.966  28.243  0.00  0.00    -0.269 OA
ENDBRANCH  30  36
BRANCH  33  40
ATOM     40  O   UNL A   1     -28.193  -0.208  24.477  0.00  0.00    -0.459 OA
BRANCH  40  41
ATOM     41  C   UNL A   1     -29.460   0.005  23.866  0.00  0.00    +0.242 C 
BRANCH  41  42
ATOM     42  C   UNL A   1     -30.065  -1.377  23.573  0.00  0.00    +0.229 C 
ATOM     43  O   UNL A   1     -30.729  -1.878  24.721  0.00  0.00    -0.216 OA
ENDBRANCH  41  42
ENDBRANCH  40  41
ENDBRANCH  33  40
ENDBRANCH  28  29
ENDBRANCH  27  28
BRANCH  27  44
ATOM     44  C   UNL A   1     -23.104  -0.013  28.238  0.00  0.00    +0.002 C 
BRANCH  44  46
ATOM     45  C   UNL A   1     -21.355   1.454  27.380  0.00  0.00    +0.000 C 
ATOM     46  C   UNL A   1     -22.289   1.047  28.489  0.00  0.00    +0.000 C 
ENDBRANCH  44  46
ENDBRANCH  27  44
ENDBRANCH   1  27
TORSDOF 14
