MODEL 2972
MODEL 1
REMARK VINA RESULT:    -5.127      0.000      0.000
REMARK INTER + INTRA:          -6.819
REMARK INTER:                  -6.326
REMARK INTRA:                  -0.493
REMARK UNBOUND:                -0.493
REMARK  Name = No_2972-gen_results/8p0m/2024-11-27-11-27-31/
REMARK  4 active torsions:
REMARK  status: ('A' for Active; 'I' for Inactive)
REMARK    1  A    between atoms: C_1  and  C_2
REMARK    2  A    between atoms: C_1  and  N_3
REMARK    3  A    between atoms: N_3  and  C_4
REMARK    4  A    between atoms: N_3  and  C_10
REMARK                            x       y       z     vdW  Elec       q    Type
REMARK                         _______ _______ _______ _____ _____    ______ ____
ROOT
ATOM      1  N   UNL A   1     -24.868  -1.245  29.750  0.00  0.00    -0.288 N 
ENDROOT
BRANCH   1   2
ATOM      2  C   UNL A   1     -25.014  -2.501  29.242  0.00  0.00    +0.049 A 
ATOM      3  C   UNL A   1     -26.140  -3.258  29.666  0.00  0.00    +0.015 A 
ATOM      4  C   UNL A   1     -26.198  -4.661  29.709  0.00  0.00    +0.001 A 
ATOM      5  C   UNL A   1     -25.162  -5.390  29.046  0.00  0.00    +0.000 A 
ATOM      6  C   UNL A   1     -24.038  -4.617  28.554  0.00  0.00    +0.001 A 
ATOM      7  C   UNL A   1     -23.947  -3.266  28.773  0.00  0.00    +0.015 A 
ENDBRANCH   1   2
BRANCH   1   8
ATOM      8  C   UNL A   1     -24.949  -1.115  31.179  0.00  0.00    +0.203 C 
ATOM      9  N   UNL A   1     -23.930  -1.203  32.005  0.00  0.00    -0.107 NA
ENDBRANCH   1   8
BRANCH   1  10
ATOM     10  C   UNL A   1     -24.980  -0.014  29.063  0.00  0.00    +0.115 C 
BRANCH  10  11
ATOM     11  C   UNL A   1     -24.323   0.131  28.252  0.00  0.00    -0.024 C 
ATOM     12  C   UNL A   1     -24.709   0.226  26.897  0.00  0.00    -0.007 C 
ATOM     13  C   UNL A   1     -22.799   0.315  28.356  0.00  0.00    +0.028 C 
ENDBRANCH  10  11
ENDBRANCH   1  10
TORSDOF 4
ENDMDL
ENDMDL
