MODEL 2973
MODEL 1
REMARK VINA RESULT:    -4.311      0.000      0.000
REMARK INTER + INTRA:          -4.311
REMARK INTER:                  -4.311
REMARK INTRA:                   0.000
REMARK UNBOUND:                 0.000
REMARK  Name = No_2973-gen_results/8p0m/2024-11-27-11-27-31/
REMARK  0 active torsions:
REMARK  status: ('A' for Active; 'I' for Inactive)
REMARK                            x       y       z     vdW  Elec       q    Type
REMARK                         _______ _______ _______ _____ _____    ______ ____
ROOT
ATOM      1  C   UNL A   1     -24.933  -5.472  28.941  0.00  0.00    +0.000 A 
ATOM      2  C   UNL A   1     -24.144  -4.848  28.629  0.00  0.00    +0.000 A 
ATOM      3  C   UNL A   1     -26.010  -4.758  29.626  0.00  0.00    +0.000 A 
ATOM      4  C   UNL A   1     -26.055  -3.602  29.677  0.00  0.00    +0.000 A 
ATOM      5  C   UNL A   1     -23.943  -3.412  28.601  0.00  0.00    +0.000 A 
ATOM      6  C   UNL A   1     -25.035  -2.755  29.231  0.00  0.00    +0.000 A 
ENDROOT
TORSDOF 0
ENDMDL
ENDMDL
