REMARK  Name = No_2974-gen_results/8p0m/2024-11-27-11-27-31/
REMARK  3 active torsions:
REMARK  status: ('A' for Active; 'I' for Inactive)
REMARK    1  A    between atoms: C_3  and  C_7
REMARK    2  A    between atoms: C_6  and  C_13
REMARK    3  A    between atoms: N_14  and  C_16
REMARK                            x       y       z     vdW  Elec       q    Type
REMARK                         _______ _______ _______ _____ _____    ______ ____
ROOT
ATOM      1  C   UNL A   1     -28.016  -0.814  28.878  0.00  0.00    +0.005 A 
ATOM      2  C   UNL A   1     -27.064  -0.119  28.608  0.00  0.00    +0.000 A 
ATOM      3  C   UNL A   1     -25.765  -0.390  29.036  0.00  0.00    +0.000 A 
ATOM      4  C   UNL A   1     -25.530  -1.530  29.901  0.00  0.00    +0.000 A 
ATOM      5  C   UNL A   1     -26.658  -2.292  30.203  0.00  0.00    +0.005 A 
ATOM      6  C   UNL A   1     -27.855  -1.956  29.763  0.00  0.00    +0.055 A 
ENDROOT
BRANCH   3   7
ATOM      7  C   UNL A   1     -24.544   0.413  28.738  0.00  0.00    +0.000 A 
ATOM      8  C   UNL A   1     -24.473   1.206  27.711  0.00  0.00    +0.000 A 
ATOM      9  C   UNL A   1     -23.263   1.911  27.393  0.00  0.00    +0.000 A 
ATOM     10  C   UNL A   1     -22.096   1.712  28.046  0.00  0.00    +0.000 A 
ATOM     11  C   UNL A   1     -23.301   0.156  29.482  0.00  0.00    +0.000 A 
ATOM     12  C   UNL A   1     -22.102   0.831  29.108  0.00  0.00    +0.000 A 
ENDBRANCH   3   7
BRANCH   6  13
ATOM     13  C   UNL A   1     -29.014  -2.798  30.183  0.00  0.00    +0.269 C 
ATOM     14  N   UNL A   1     -30.151  -2.363  30.182  0.00  0.00    -0.174 NA
ATOM     15  O   UNL A   1     -28.784  -3.986  30.611  0.00  0.00    -0.268 OA
BRANCH  14  16
ATOM     16  C   UNL A   1     -31.357  -3.145  30.553  0.00  0.00    +0.084 C 
ATOM     17  C   UNL A   1     -31.479  -4.016  31.124  0.00  0.00    -0.008 C 
ATOM     18  C   UNL A   1     -32.712  -4.753  31.450  0.00  0.00    +0.032 C 
ENDBRANCH  14  16
ENDBRANCH   6  13
TORSDOF 3
