REMARK  Name = outputs/IAG933/test6/raw/output_2975_IAG933_linker_design_.xyz
REMARK  13 active torsions:
REMARK  status: ('A' for Active; 'I' for Inactive)
REMARK    1  A    between atoms: C_1  and  C_2
REMARK    2  A    between atoms: C_1  and  C_8
REMARK    3  A    between atoms: C_1  and  N_46
REMARK    4  A    between atoms: C_13  and  C_36
REMARK    5  A    between atoms: C_14  and  C_15
REMARK    6  A    between atoms: C_21  and  O_22
REMARK    7  A    between atoms: O_22  and  C_23
REMARK    8  A    between atoms: C_23  and  C_24
REMARK    9  A    between atoms: C_29  and  C_32
REMARK   10  A    between atoms: C_29  and  C_36
REMARK   11  A    between atoms: C_29  and  N_46
REMARK   12  A    between atoms: N_34  and  C_35
REMARK   13  A    between atoms: C_36  and  C_37
REMARK                            x       y       z     vdW  Elec       q    Type
REMARK                         _______ _______ _______ _____ _____    ______ ____
ROOT
ATOM      1  C   UNL A   1     -26.051   0.893  28.928  0.00  0.00    +0.152 C 
ENDROOT
BRANCH   1   3
ATOM      2  O   UNL A   1     -30.809   2.247  30.760  0.00  0.00    -0.222 OA
ATOM      3  C   UNL A   1     -27.741   0.740  29.245  0.00  0.00    +0.250 C 
ATOM      4  N   UNL A   1     -28.584   1.598  30.228  0.00  0.00    -0.193 N 
ATOM      5  O   UNL A   1     -29.666   1.099  32.268  0.00  0.00    -0.222 OA
ATOM      6  O   UNL A   1     -28.233  -0.215  28.723  0.00  0.00    -0.273 OA
ATOM      7  C   UNL A   1     -29.820   1.648  31.194  0.00  0.00    +0.453 C 
BRANCH   4   9
ATOM      8  C   UNL A   1     -26.750   4.680  31.494  0.00  0.00    +0.002 C 
ATOM      9  C   UNL A   1     -28.090   2.961  30.433  0.00  0.00    +0.086 C 
ATOM     10  C   UNL A   1     -28.268   4.932  31.587  0.00  0.00    +0.002 C 
ATOM     11  C   UNL A   1     -28.860   4.059  30.450  0.00  0.00    +0.020 C 
ATOM     12  C   UNL A   1     -26.718   3.135  31.259  0.00  0.00    +0.020 C 
ENDBRANCH   4   9
ENDBRANCH   1   3
BRANCH   1  13
ATOM     13  C   UNL A   1     -24.931   1.110  27.683  0.00  0.00    +0.062 C 
BRANCH  13  14
ATOM     14  C   UNL A   1     -25.688   1.614  26.461  0.00  0.00    +0.074 C 
ATOM     15  C   UNL A   1     -26.250   2.920  26.395  0.00  0.00    +0.055 C 
ATOM     16  C   UNL A   1     -27.438   3.091  25.645  0.00  0.00    +0.102 C 
ATOM     17  N   UNL A   1     -28.075   2.089  25.003  0.00  0.00    -0.212 NA
ATOM     18  C   UNL A   1     -27.543   0.849  25.079  0.00  0.00    +0.234 C 
ATOM     19  C   UNL A   1     -26.354   0.576  25.777  0.00  0.00    +0.240 C 
ATOM     20  F   UNL A   1     -25.860  -0.681  25.795  0.00  0.00    -0.227 F 
BRANCH  15  21
ATOM     21  C   UNL A   1     -25.642   4.093  27.123  0.00  0.00    +0.262 C 
ATOM     22  N   UNL A   1     -25.614   5.252  26.449  0.00  0.00    -0.200 NA
ATOM     23  C   UNL A   1     -25.026   6.479  26.963  0.00  0.00    +0.139 C 
ATOM     24  O   UNL A   1     -25.143   3.966  28.243  0.00  0.00    -0.269 OA
ENDBRANCH  15  21
BRANCH  18  25
ATOM     25  O   UNL A   1     -28.193  -0.208  24.477  0.00  0.00    -0.459 OA
BRANCH  25  26
ATOM     26  C   UNL A   1     -29.460   0.005  23.866  0.00  0.00    +0.242 C 
BRANCH  26  27
ATOM     27  C   UNL A   1     -30.065  -1.377  23.573  0.00  0.00    +0.229 C 
ATOM     28  O   UNL A   1     -30.729  -1.878  24.721  0.00  0.00    -0.216 OA
ENDBRANCH  26  27
ENDBRANCH  25  26
ENDBRANCH  18  25
ENDBRANCH  13  14
BRANCH  13  31
ATOM     29  C   UNL A   1     -22.678   1.597  26.637  0.00  0.00    +0.145 C 
ATOM     30  C   UNL A   1     -21.567   0.918  28.323  0.00  0.00    +0.294 C 
ATOM     31  C   UNL A   1     -23.588   0.907  27.582  0.00  0.00    +0.147 C 
ATOM     32  O   UNL A   1     -22.766   0.164  28.396  0.00  0.00    -0.327 OA
ATOM     33  O   UNL A   1     -21.485   1.713  27.155  0.00  0.00    -0.327 OA
ATOM     34  C   UNL A   1     -22.913   2.176  25.210  0.00  0.00    +0.035 C 
ENDBRANCH  13  31
ENDBRANCH   1  13
BRANCH   1  35
ATOM     35  N   UNL A   1     -25.667  -0.439  29.128  0.00  0.00    -0.206 NA
BRANCH  35  36
ATOM     36  C   UNL A   1     -24.855  -1.012  30.143  0.00  0.00    +0.111 C 
BRANCH  36  37
ATOM     37  C   UNL A   1     -24.973  -2.505  29.788  0.00  0.00    -0.005 C 
ATOM     38  C   UNL A   1     -23.906  -3.173  29.146  0.00  0.00    -0.003 C 
ATOM     39  C   UNL A   1     -23.989  -4.549  28.853  0.00  0.00    -0.000 C 
ATOM     40  C   UNL A   1     -25.137  -5.280  29.205  0.00  0.00    -0.000 C 
ATOM     41  C   UNL A   1     -26.232  -4.611  29.784  0.00  0.00    -0.000 C 
ATOM     42  C   UNL A   1     -26.155  -3.232  30.065  0.00  0.00    -0.003 C 
ENDBRANCH  36  37
BRANCH  36  43
ATOM     43  C   UNL A   1     -25.387  -0.679  31.571  0.00  0.00    +0.093 C 
ATOM     44  C   UNL A   1     -25.189   0.773  32.028  0.00  0.00    +0.021 C 
ATOM     45  C   UNL A   1     -25.336   0.684  33.544  0.00  0.00    +0.020 C 
ATOM     46  C   UNL A   1     -24.829  -0.715  33.905  0.00  0.00    +0.089 C 
ATOM     47  N   UNL A   1     -24.758  -1.481  32.646  0.00  0.00    -0.218 NA
ENDBRANCH  36  43
ENDBRANCH  35  36
ENDBRANCH   1  35
TORSDOF 13
