REMARK  Name = No_2976-gen_results/8p0m/2024-11-27-11-27-31/
REMARK  4 active torsions:
REMARK  status: ('A' for Active; 'I' for Inactive)
REMARK    1  A    between atoms: C_6  and  C_8
REMARK    2  A    between atoms: C_9  and  C_17
REMARK    3  A    between atoms: C_13  and  C_14
REMARK    4  A    between atoms: C_19  and  C_20
REMARK                            x       y       z     vdW  Elec       q    Type
REMARK                         _______ _______ _______ _____ _____    ______ ____
ROOT
ATOM      1  C   UNL A   1     -30.076   1.502  31.008  0.00  0.00    +0.000 A 
ATOM      2  C   UNL A   1     -31.106   1.951  30.730  0.00  0.00    +0.000 A 
ATOM      3  C   UNL A   1     -32.093   2.486  31.658  0.00  0.00    +0.007 A 
ATOM      4  C   UNL A   1     -29.706   1.410  32.476  0.00  0.00    +0.000 A 
ATOM      5  C   UNL A   1     -30.594   1.911  33.427  0.00  0.00    +0.007 A 
ATOM      6  C   UNL A   1     -31.774   2.450  33.012  0.00  0.00    +0.080 A 
ENDROOT
BRANCH   1  12
ATOM      7  C   UNL A   1     -28.016  -0.814  28.878  0.00  0.00    +0.030 A 
ATOM      8  C   UNL A   1     -27.064  -0.119  28.608  0.00  0.00    +0.140 A 
ATOM      9  C   UNL A   1     -26.929   1.171  29.008  0.00  0.00    +0.030 A 
ATOM     10  C   UNL A   1     -27.956   1.741  29.784  0.00  0.00    +0.002 A 
ATOM     11  C   UNL A   1     -29.057  -0.327  29.747  0.00  0.00    +0.002 A 
ATOM     12  C   UNL A   1     -28.983   0.972  30.152  0.00  0.00    +0.000 A 
ATOM     13  F   UNL A   1     -26.028  -0.594  27.871  0.00  0.00    -0.204 F 
ENDBRANCH   1  12
BRANCH   2  14
ATOM     14  C   UNL A   1     -31.494   2.009  29.265  0.00  0.00    +0.000 A 
ATOM     15  C   UNL A   1     -32.665   1.505  28.894  0.00  0.00    +0.003 A 
ATOM     16  C   UNL A   1     -32.993   1.533  27.524  0.00  0.00    +0.042 A 
ATOM     17  C   UNL A   1     -32.108   2.140  26.572  0.00  0.00    +0.003 A 
ATOM     18  C   UNL A   1     -30.868   2.698  26.982  0.00  0.00    +0.000 A 
ATOM     19  C   UNL A   1     -30.592   2.661  28.347  0.00  0.00    +0.000 A 
BRANCH  16  20
ATOM     20  C   UNL A   1     -34.116   0.871  27.101  0.00  0.00    +0.234 C 
ATOM     21  O   UNL A   1     -34.641   0.597  26.281  0.00  0.00    -0.283 OA
ENDBRANCH  16  20
ENDBRANCH   2  14
BRANCH   6  22
ATOM     22  C   UNL A   1     -32.735   2.995  33.993  0.00  0.00    +0.388 C 
ATOM     23  O   UNL A   1     -32.325   3.580  34.904  0.00  0.00    -0.241 OA
ATOM     24  O   UNL A   1     -33.987   3.028  33.596  0.00  0.00    -0.241 OA
ENDBRANCH   6  22
TORSDOF 4
