REMARK  Name = outputs/IAG933/test6/raw/output_2977_IAG933_linker_design_.xyz
REMARK  11 active torsions:
REMARK  status: ('A' for Active; 'I' for Inactive)
REMARK    1  A    between atoms: C_1  and  C_2
REMARK    2  A    between atoms: C_1  and  C_8
REMARK    3  A    between atoms: C_1  and  C_30
REMARK    4  A    between atoms: C_13  and  C_34
REMARK    5  A    between atoms: C_14  and  C_15
REMARK    6  A    between atoms: C_21  and  O_22
REMARK    7  A    between atoms: O_22  and  C_23
REMARK    8  A    between atoms: C_23  and  C_24
REMARK    9  A    between atoms: C_33  and  C_42
REMARK   10  A    between atoms: C_33  and  C_44
REMARK   11  A    between atoms: C_37  and  C_44
REMARK                            x       y       z     vdW  Elec       q    Type
REMARK                         _______ _______ _______ _____ _____    ______ ____
ROOT
ATOM      1  F   UNL A   1     -21.071   1.501  27.662  0.00  0.00    -0.203 F 
ATOM      2  C   UNL A   1     -24.163   0.006  29.221  0.00  0.00    -0.018 C 
ATOM      3  C   UNL A   1     -23.339   1.560  26.918  0.00  0.00    +0.085 C 
ATOM      4 CL   UNL A   1     -22.841   2.212  25.381  0.00  0.00    -0.080 Cl
ATOM      5  C   UNL A   1     -24.661   1.359  27.305  0.00  0.00    +0.011 C 
ATOM      6  C   UNL A   1     -25.152   0.989  28.582  0.00  0.00    -0.017 C 
ATOM      7  C   UNL A   1     -22.350   1.076  27.813  0.00  0.00    +0.150 C 
ATOM      8  C   UNL A   1     -22.715   0.190  28.869  0.00  0.00    +0.026 C 
ENDROOT
BRANCH   5   9
ATOM      9  C   UNL A   1     -25.688   1.614  26.461  0.00  0.00    +0.039 C 
ATOM     10  C   UNL A   1     -26.250   2.920  26.395  0.00  0.00    +0.077 C 
ATOM     11  C   UNL A   1     -27.438   3.091  25.645  0.00  0.00    +0.107 C 
ATOM     12  N   UNL A   1     -28.075   2.089  25.003  0.00  0.00    -0.208 NA
ATOM     13  C   UNL A   1     -27.543   0.849  25.079  0.00  0.00    +0.253 C 
ATOM     14  C   UNL A   1     -26.354   0.576  25.777  0.00  0.00    +0.193 C 
ATOM     15  F   UNL A   1     -25.860  -0.681  25.795  0.00  0.00    -0.199 F 
BRANCH  10  16
ATOM     16  C   UNL A   1     -25.642   4.093  27.123  0.00  0.00    +0.266 C 
ATOM     17  N   UNL A   1     -25.614   5.252  26.449  0.00  0.00    -0.200 NA
ATOM     18  C   UNL A   1     -25.026   6.479  26.963  0.00  0.00    +0.139 C 
ATOM     19  O   UNL A   1     -25.143   3.966  28.243  0.00  0.00    -0.268 OA
ENDBRANCH  10  16
BRANCH  13  20
ATOM     20  O   UNL A   1     -28.193  -0.208  24.477  0.00  0.00    -0.456 OA
BRANCH  20  21
ATOM     21  C   UNL A   1     -29.460   0.005  23.866  0.00  0.00    +0.243 C 
BRANCH  21  22
ATOM     22  C   UNL A   1     -30.065  -1.377  23.573  0.00  0.00    +0.229 C 
ATOM     23  O   UNL A   1     -30.729  -1.878  24.721  0.00  0.00    -0.216 OA
ENDBRANCH  21  22
ENDBRANCH  20  21
ENDBRANCH  13  20
ENDBRANCH   5   9
BRANCH   2  24
ATOM     24  C   UNL A   1     -24.855  -1.012  30.143  0.00  0.00    +0.060 C 
BRANCH  24  25
ATOM     25  C   UNL A   1     -24.973  -2.505  29.788  0.00  0.00    -0.017 C 
ATOM     26  C   UNL A   1     -23.906  -3.173  29.146  0.00  0.00    -0.004 C 
ATOM     27  C   UNL A   1     -23.989  -4.549  28.853  0.00  0.00    -0.000 C 
ATOM     28  C   UNL A   1     -25.137  -5.280  29.205  0.00  0.00    -0.000 C 
ATOM     29  C   UNL A   1     -26.232  -4.611  29.784  0.00  0.00    -0.000 C 
ATOM     30  C   UNL A   1     -26.155  -3.232  30.065  0.00  0.00    -0.004 C 
ENDBRANCH  24  25
BRANCH  24  31
ATOM     31  C   UNL A   1     -25.387  -0.679  31.571  0.00  0.00    +0.081 C 
ATOM     32  C   UNL A   1     -25.189   0.773  32.028  0.00  0.00    +0.019 C 
ATOM     33  C   UNL A   1     -25.336   0.684  33.544  0.00  0.00    +0.020 C 
ATOM     34  C   UNL A   1     -24.829  -0.715  33.905  0.00  0.00    +0.089 C 
ATOM     35  N   UNL A   1     -24.758  -1.481  32.646  0.00  0.00    -0.219 NA
ENDBRANCH  24  31
ENDBRANCH   2  24
BRANCH   6  36
ATOM     36  C   UNL A   1     -26.392   1.532  29.405  0.00  0.00    +0.095 C 
BRANCH  36  37
ATOM     37  C   UNL A   1     -26.196   2.682  30.424  0.00  0.00    +0.177 C 
ATOM     38  O   UNL A   1     -25.100   3.172  30.709  0.00  0.00    -0.291 OA
BRANCH  37  44
ATOM     39  C   UNL A   1     -29.125   5.313  32.606  0.00  0.00    +0.140 C 
ATOM     40  C   UNL A   1     -27.001   4.745  31.483  0.00  0.00    +0.005 C 
ATOM     41  F   UNL A   1     -29.796   6.141  33.503  0.00  0.00    -0.204 F 
ATOM     42  C   UNL A   1     -28.895   3.009  31.461  0.00  0.00    +0.005 C 
ATOM     43  C   UNL A   1     -27.812   5.707  32.240  0.00  0.00    +0.030 C 
ATOM     44  C   UNL A   1     -27.468   3.332  31.156  0.00  0.00    +0.035 C 
ATOM     45  C   UNL A   1     -29.713   4.005  32.192  0.00  0.00    +0.030 C 
ENDBRANCH  37  44
ENDBRANCH  36  37
ENDBRANCH   6  36
TORSDOF 11
