MODEL 2978
MODEL 1
REMARK VINA RESULT:    -5.615      0.000      0.000
REMARK INTER + INTRA:          -6.079
REMARK INTER:                  -5.944
REMARK INTRA:                  -0.135
REMARK UNBOUND:                -0.135
REMARK  Name = No_2978-gen_results/8p0m/2024-11-27-11-27-31/
REMARK  1 active torsions:
REMARK  status: ('A' for Active; 'I' for Inactive)
REMARK    1  A    between atoms: C_2  and  C_7
REMARK                            x       y       z     vdW  Elec       q    Type
REMARK                         _______ _______ _______ _____ _____    ______ ____
ROOT
ATOM      1  C   UNL A   1     -24.135  -3.683  28.867  0.00  0.00    +0.034 A 
ATOM      2  C   UNL A   1     -24.429  -2.750  29.259  0.00  0.00    +0.074 A 
ATOM      3  C   UNL A   1     -25.055  -4.810  29.087  0.00  0.00    +0.140 A 
ATOM      4  C   UNL A   1     -26.334  -4.597  29.679  0.00  0.00    +0.030 A 
ATOM      5  C   UNL A   1     -25.703  -2.257  29.851  0.00  0.00    +0.004 A 
ATOM      6  C   UNL A   1     -26.578  -3.276  30.080  0.00  0.00    +0.002 A 
ATOM      7  F   UNL A   1     -24.842  -6.094  28.739  0.00  0.00    -0.204 F 
ENDROOT
BRANCH   2   8
ATOM      8  C   UNL A   1     -23.469  -1.499  29.024  0.00  0.00    +0.419 C 
ATOM      9  F   UNL A   1     -22.302  -1.646  28.931  0.00  0.00    -0.166 F 
ATOM     10  F   UNL A   1     -23.975  -0.803  27.936  0.00  0.00    -0.166 F 
ATOM     11  F   UNL A   1     -23.734  -0.710  30.069  0.00  0.00    -0.166 F 
ENDBRANCH   2   8
TORSDOF 1
ENDMDL
ENDMDL
