MODEL 2980
MODEL 1
REMARK VINA RESULT:    -5.310      0.000      0.000
REMARK INTER + INTRA:          -5.764
REMARK INTER:                  -5.620
REMARK INTRA:                  -0.144
REMARK UNBOUND:                -0.144
REMARK  Name = No_2980-gen_results/8p0m/2024-11-27-11-27-31/
REMARK  1 active torsions:
REMARK  status: ('A' for Active; 'I' for Inactive)
REMARK    1  A    between atoms: C_3  and  C_8
REMARK                            x       y       z     vdW  Elec       q    Type
REMARK                         _______ _______ _______ _____ _____    ______ ____
ROOT
ATOM      1  C   UNL A   1     -22.110  -0.137  29.019  0.00  0.00    +0.042 A 
ATOM      2  C   UNL A   1     -22.585  -1.218  29.278  0.00  0.00    +0.003 A 
ATOM      3  C   UNL A   1     -23.823  -1.650  28.806  0.00  0.00    -0.000 A 
ATOM      4  C   UNL A   1     -24.628  -0.747  28.006  0.00  0.00    +0.003 A 
ATOM      5  C   UNL A   1     -24.014   0.501  27.753  0.00  0.00    +0.042 A 
ATOM      6  C   UNL A   1     -22.845   0.820  28.247  0.00  0.00    +0.196 A 
ATOM      7  O   UNL A   1     -22.561   2.073  27.875  0.00  0.00    -0.287 OA
ENDROOT
BRANCH   3   8
ATOM      8  C   UNL A   1     -24.460  -2.978  29.099  0.00  0.00    -0.005 C 
ATOM      9  C   UNL A   1     -24.099  -4.093  28.492  0.00  0.00    -0.026 C 
ATOM     10  C   UNL A   1     -24.713  -5.275  29.034  0.00  0.00    +0.031 C 
ENDBRANCH   3   8
TORSDOF 1
ENDMDL
ENDMDL
