MODEL 2981
MODEL 1
REMARK VINA RESULT:    -3.424      0.000      0.000
REMARK INTER + INTRA:          -3.692
REMARK INTER:                  -3.624
REMARK INTRA:                  -0.068
REMARK UNBOUND:                -0.068
REMARK  Name = No_2981-gen_results/8p0m/2024-11-27-11-27-31/
REMARK  1 active torsions:
REMARK  status: ('A' for Active; 'I' for Inactive)
REMARK    1  A    between atoms: C_3  and  C_4
REMARK                            x       y       z     vdW  Elec       q    Type
REMARK                         _______ _______ _______ _____ _____    ______ ____
ROOT
ATOM      1 CL   UNL A   1      -8.992 -10.277  17.353  0.00  0.00    -0.081 Cl
ATOM      2  C   UNL A   1      -9.815  -9.817  18.444  0.00  0.00    +0.068 C 
ATOM      3  C   UNL A   1      -9.522  -9.303  19.454  0.00  0.00    +0.012 C 
ENDROOT
BRANCH   3   4
ATOM      4  C   UNL A   1      -8.060  -8.960  19.732  0.00  0.00    +0.001 C 
ATOM      5  C   UNL A   1      -7.472  -9.904  20.640  0.00  0.00    +0.000 C 
ENDBRANCH   3   4
TORSDOF 1
ENDMDL
ENDMDL
