MODEL 2982
MODEL 1
REMARK VINA RESULT:    -6.692      0.000      0.000
REMARK INTER + INTRA:          -8.515
REMARK INTER:                  -7.865
REMARK INTRA:                  -0.650
REMARK UNBOUND:                -0.650
REMARK  Name = No_2982-gen_results/8p0m/2024-11-27-11-27-31/
REMARK  3 active torsions:
REMARK  status: ('A' for Active; 'I' for Inactive)
REMARK    1  A    between atoms: C_2  and  C_14
REMARK    2  A    between atoms: C_5  and  C_7
REMARK    3  A    between atoms: C_7  and  P_8
REMARK                            x       y       z     vdW  Elec       q    Type
REMARK                         _______ _______ _______ _____ _____    ______ ____
ROOT
ATOM      1  C   UNL A   1     -26.174  -0.080  24.594  0.00  0.00    -0.000 A 
ATOM      2  C   UNL A   1     -27.115   0.680  24.581  0.00  0.00    -0.000 A 
ATOM      3  C   UNL A   1     -27.137   1.932  25.171  0.00  0.00    -0.000 A 
ATOM      4  C   UNL A   1     -25.942   2.366  25.817  0.00  0.00    +0.001 A 
ATOM      5  C   UNL A   1     -24.869   1.560  25.683  0.00  0.00    +0.044 A 
ATOM      6  C   UNL A   1     -24.934   0.406  25.014  0.00  0.00    +0.001 A 
ENDROOT
BRANCH   2   7
ATOM      7  C   UNL A   1     -28.515   0.235  23.991  0.00  0.00    -0.000 A 
ATOM      8  C   UNL A   1     -28.948  -1.013  24.012  0.00  0.00    -0.000 A 
ATOM      9  C   UNL A   1     -30.193  -1.405  23.542  0.00  0.00    +0.000 A 
ATOM     10  C   UNL A   1     -31.159  -0.461  23.184  0.00  0.00    +0.000 A 
ATOM     11  C   UNL A   1     -30.775   0.854  23.257  0.00  0.00    +0.000 A 
ATOM     12  C   UNL A   1     -29.481   1.236  23.695  0.00  0.00    -0.000 A 
ENDBRANCH   2   7
BRANCH   5  13
ATOM     13  C   UNL A   1     -23.632   2.055  26.318  0.00  0.00    +0.325 C 
ATOM     14  F   UNL A   1     -22.635   1.996  25.237  0.00  0.00    -0.192 F 
ATOM     15  F   UNL A   1     -23.789   3.424  26.407  0.00  0.00    -0.192 F 
BRANCH  13  16
ATOM     16  P   UNL A   1     -22.863   1.447  27.641  0.00  0.00    +0.183 P 
ATOM     17  O   UNL A   1     -23.094   0.149  27.851  0.00  0.00    -0.454 OA
ATOM     18  O   UNL A   1     -23.533   2.364  28.764  0.00  0.00    -0.353 OA
ATOM     19  O   UNL A   1     -21.436   1.900  27.502  0.00  0.00    -0.353 OA
ENDBRANCH  13  16
ENDBRANCH   5  13
TORSDOF 3
ENDMDL
ENDMDL
