REMARK  Name = No_2982-gen_results/8p0m/2024-11-27-11-27-31/
REMARK  3 active torsions:
REMARK  status: ('A' for Active; 'I' for Inactive)
REMARK    1  A    between atoms: C_2  and  C_14
REMARK    2  A    between atoms: C_5  and  C_7
REMARK    3  A    between atoms: C_7  and  P_8
REMARK                            x       y       z     vdW  Elec       q    Type
REMARK                         _______ _______ _______ _____ _____    ______ ____
ROOT
ATOM      1  C   UNL A   1     -28.016  -0.814  28.878  0.00  0.00    -0.000 A 
ATOM      2  C   UNL A   1     -27.064  -0.119  28.608  0.00  0.00    -0.000 A 
ATOM      3  C   UNL A   1     -26.972   0.714  27.506  0.00  0.00    -0.000 A 
ATOM      4  C   UNL A   1     -28.105   0.774  26.642  0.00  0.00    +0.001 A 
ATOM      5  C   UNL A   1     -29.201   0.104  27.053  0.00  0.00    +0.044 A 
ATOM      6  C   UNL A   1     -29.210  -0.603  28.185  0.00  0.00    +0.001 A 
ENDROOT
BRANCH   2   7
ATOM      7  C   UNL A   1     -25.723  -0.211  29.444  0.00  0.00    -0.000 A 
ATOM      8  C   UNL A   1     -25.120  -1.353  29.724  0.00  0.00    -0.000 A 
ATOM      9  C   UNL A   1     -23.919  -1.441  30.413  0.00  0.00    +0.000 A 
ATOM     10  C   UNL A   1     -23.163  -0.300  30.695  0.00  0.00    +0.000 A 
ATOM     11  C   UNL A   1     -23.714   0.898  30.316  0.00  0.00    +0.000 A 
ATOM     12  C   UNL A   1     -24.966   0.974  29.654  0.00  0.00    -0.000 A 
ENDBRANCH   2   7
BRANCH   5  13
ATOM     13  C   UNL A   1     -30.375   0.223  26.167  0.00  0.00    +0.325 C 
ATOM     14  F   UNL A   1     -31.211  -0.931  26.535  0.00  0.00    -0.192 F 
ATOM     15  F   UNL A   1     -31.140   1.238  26.707  0.00  0.00    -0.192 F 
BRANCH  13  16
ATOM     16  P   UNL A   1     -30.398   0.259  24.521  0.00  0.00    +0.183 P 
ATOM     17  O   UNL A   1     -31.200  -0.656  23.972  0.00  0.00    -0.454 OA
ATOM     18  O   UNL A   1     -28.856  -0.051  24.241  0.00  0.00    -0.353 OA
ATOM     19  O   UNL A   1     -30.623   1.704  24.168  0.00  0.00    -0.353 OA
ENDBRANCH  13  16
ENDBRANCH   5  13
TORSDOF 3
