REMARK  Name = No_2983-gen_results/8p0m/2024-11-27-11-27-31/
REMARK  1 active torsions:
REMARK  status: ('A' for Active; 'I' for Inactive)
REMARK    1  A    between atoms: C_2  and  C_8
REMARK                            x       y       z     vdW  Elec       q    Type
REMARK                         _______ _______ _______ _____ _____    ______ ____
ROOT
ATOM      1  C   UNL A   1     -28.016  -0.814  28.878  0.00  0.00    +0.011 A 
ATOM      2  C   UNL A   1     -27.064  -0.119  28.608  0.00  0.00    +0.001 A 
ATOM      3  C   UNL A   1     -25.792  -0.430  29.076  0.00  0.00    +0.000 A 
ATOM      4  C   UNL A   1     -25.568  -1.241  29.757  0.00  0.00    +0.001 A 
ATOM      5  C   UNL A   1     -26.611  -2.184  30.244  0.00  0.00    +0.011 A 
ATOM      6  C   UNL A   1     -27.819  -1.919  29.803  0.00  0.00    +0.058 A 
ATOM      7 CL   UNL A   1     -29.106  -2.924  30.322  0.00  0.00    -0.082 Cl
ENDROOT
BRANCH   2   8
ATOM      8  C   UNL A   1     -27.254   1.078  27.661  0.00  0.00    +0.000 A 
ATOM      9  C   UNL A   1     -26.857   2.183  27.751  0.00  0.00    +0.000 A 
ATOM     10  C   UNL A   1     -27.009   3.234  26.732  0.00  0.00    +0.000 A 
ATOM     11  C   UNL A   1     -27.635   2.880  25.521  0.00  0.00    +0.000 A 
ATOM     12  C   UNL A   1     -27.652   0.846  26.228  0.00  0.00    +0.000 A 
ATOM     13  C   UNL A   1     -27.876   1.650  25.321  0.00  0.00    +0.000 A 
ENDBRANCH   2   8
TORSDOF 1
