MODEL 2983
MODEL 1
REMARK VINA RESULT:    -6.876      0.000      0.000
REMARK INTER + INTRA:          -7.596
REMARK INTER:                  -7.278
REMARK INTRA:                  -0.319
REMARK UNBOUND:                -0.319
REMARK  Name = No_2983-gen_results/8p0m/2024-11-27-11-27-31/
REMARK  1 active torsions:
REMARK  status: ('A' for Active; 'I' for Inactive)
REMARK    1  A    between atoms: C_2  and  C_8
REMARK                            x       y       z     vdW  Elec       q    Type
REMARK                         _______ _______ _______ _____ _____    ______ ____
ROOT
ATOM      1  C   UNL A   1     -24.263  -0.502  28.110  0.00  0.00    +0.011 A 
ATOM      2  C   UNL A   1     -23.687  -1.346  28.758  0.00  0.00    +0.001 A 
ATOM      3  C   UNL A   1     -22.407  -1.121  29.252  0.00  0.00    +0.000 A 
ATOM      4  C   UNL A   1     -21.811  -0.242  29.043  0.00  0.00    +0.001 A 
ATOM      5  C   UNL A   1     -22.324   0.892  28.226  0.00  0.00    +0.011 A 
ATOM      6  C   UNL A   1     -23.538   0.709  27.760  0.00  0.00    +0.058 A 
ATOM      7 CL   UNL A   1     -24.220   1.939  26.782  0.00  0.00    -0.082 Cl
ENDROOT
BRANCH   2   8
ATOM      8  C   UNL A   1     -24.419  -2.651  29.110  0.00  0.00    +0.000 A 
ATOM      9  C   UNL A   1     -25.515  -2.819  29.508  0.00  0.00    +0.000 A 
ATOM     10  C   UNL A   1     -26.160  -4.125  29.718  0.00  0.00    +0.000 A 
ATOM     11  C   UNL A   1     -25.429  -5.276  29.364  0.00  0.00    +0.000 A 
ATOM     12  C   UNL A   1     -23.920  -3.963  28.565  0.00  0.00    +0.000 A 
ATOM     13  C   UNL A   1     -24.337  -5.110  28.738  0.00  0.00    +0.000 A 
ENDBRANCH   2   8
TORSDOF 1
ENDMDL
ENDMDL
