MODEL 2984
MODEL 1
REMARK VINA RESULT:    -6.978      0.000      0.000
REMARK INTER + INTRA:          -8.758
REMARK INTER:                  -8.201
REMARK INTRA:                  -0.557
REMARK UNBOUND:                -0.557
REMARK  Name = No_2984-gen_results/8p0m/2024-11-27-11-27-31/
REMARK  3 active torsions:
REMARK  status: ('A' for Active; 'I' for Inactive)
REMARK    1  A    between atoms: C_3  and  C_7
REMARK    2  A    between atoms: C_6  and  C_13
REMARK    3  A    between atoms: C_18  and  P_24
REMARK                            x       y       z     vdW  Elec       q    Type
REMARK                         _______ _______ _______ _____ _____    ______ ____
ROOT
ATOM      1  C   UNL A   1     -30.491   1.057  23.480  0.00  0.00    +0.084 A 
ATOM      2  N   UNL A   1     -30.764   1.957  22.527  0.00  0.00    -0.249 NA
ATOM      3  C   UNL A   1     -32.032   2.067  21.966  0.00  0.00    +0.065 A 
ATOM      4  C   UNL A   1     -32.726   0.999  21.830  0.00  0.00    +0.069 A 
ATOM      5  C   UNL A   1     -32.502  -0.124  22.724  0.00  0.00    +0.011 A 
ATOM      6  C   UNL A   1     -31.294  -0.130  23.472  0.00  0.00    +0.057 A 
ATOM      7  C   UNL A   1     -34.051   1.050  21.087  0.00  0.00    +0.266 C 
ATOM      8  O   UNL A   1     -34.899   0.294  21.112  0.00  0.00    -0.268 OA
ATOM      9  N   UNL A   1     -33.999   1.976  20.005  0.00  0.00    -0.201 NA
ATOM     10  C   UNL A   1     -33.040   2.876  19.715  0.00  0.00    +0.122 C 
ATOM     11  C   UNL A   1     -31.970   2.950  20.730  0.00  0.00    +0.069 C 
ENDROOT
BRANCH   1  17
ATOM     12  C   UNL A   1     -29.060   1.585  25.556  0.00  0.00    +0.002 A 
ATOM     13  C   UNL A   1     -27.999   1.520  26.132  0.00  0.00    +0.000 A 
ATOM     14  C   UNL A   1     -26.830   1.038  25.545  0.00  0.00    +0.000 A 
ATOM     15  C   UNL A   1     -26.880   0.528  24.189  0.00  0.00    +0.000 A 
ATOM     16  C   UNL A   1     -28.126   0.604  23.568  0.00  0.00    +0.002 A 
ATOM     17  C   UNL A   1     -29.186   1.065  24.204  0.00  0.00    +0.018 A 
BRANCH  14  18
ATOM     18  C   UNL A   1     -25.488   0.935  26.188  0.00  0.00    +0.000 A 
ATOM     19  C   UNL A   1     -25.246   0.095  27.149  0.00  0.00    +0.000 A 
ATOM     20  C   UNL A   1     -23.972   0.064  27.812  0.00  0.00    +0.000 A 
ATOM     21  C   UNL A   1     -22.994   0.968  27.580  0.00  0.00    +0.000 A 
ATOM     22  C   UNL A   1     -24.459   1.946  25.897  0.00  0.00    +0.000 A 
ATOM     23  C   UNL A   1     -23.225   1.922  26.610  0.00  0.00    +0.000 A 
ENDBRANCH  14  18
ENDBRANCH   1  17
BRANCH   6  24
ATOM     24  P   UNL A   1     -30.972  -1.497  24.576  0.00  0.00    +0.196 P 
ATOM     25  O   UNL A   1     -29.852  -2.146  24.124  0.00  0.00    -0.443 OA
ATOM     26  O   UNL A   1     -32.113  -2.440  24.213  0.00  0.00    -0.345 OA
ATOM     27  O   UNL A   1     -31.089  -0.971  25.932  0.00  0.00    -0.443 OA
ENDBRANCH   6  24
TORSDOF 3
ENDMDL
ENDMDL
