REMARK  Name = outputs/IAG933/test6/raw/output_2984_IAG933_linker_design_.xyz
REMARK  13 active torsions:
REMARK  status: ('A' for Active; 'I' for Inactive)
REMARK    1  A    between atoms: C_1  and  C_2
REMARK    2  A    between atoms: C_1  and  C_8
REMARK    3  A    between atoms: C_1  and  C_37
REMARK    4  A    between atoms: C_13  and  C_39
REMARK    5  A    between atoms: C_14  and  C_15
REMARK    6  A    between atoms: C_21  and  O_22
REMARK    7  A    between atoms: O_22  and  C_23
REMARK    8  A    between atoms: C_23  and  C_24
REMARK    9  A    between atoms: C_31  and  N_32
REMARK   10  A    between atoms: C_33  and  C_45
REMARK   11  A    between atoms: C_36  and  N_44
REMARK   12  A    between atoms: C_37  and  N_44
REMARK   13  A    between atoms: C_45  and  C_48
REMARK                            x       y       z     vdW  Elec       q    Type
REMARK                         _______ _______ _______ _____ _____    ______ ____
ROOT
ATOM      1  C   UNL A   1     -25.941  -0.293  29.179  0.00  0.00    +0.049 C 
ATOM      2  C   UNL A   1     -27.613  -0.357  28.869  0.00  0.00    -0.009 C 
ENDROOT
BRANCH   1   3
ATOM      3  C   UNL A   1     -24.855  -1.012  30.143  0.00  0.00    +0.076 C 
BRANCH   3   4
ATOM      4  C   UNL A   1     -24.973  -2.505  29.788  0.00  0.00    -0.016 C 
ATOM      5  C   UNL A   1     -23.906  -3.173  29.146  0.00  0.00    -0.004 C 
ATOM      6  C   UNL A   1     -23.989  -4.549  28.853  0.00  0.00    -0.000 C 
ATOM      7  C   UNL A   1     -25.137  -5.280  29.205  0.00  0.00    -0.000 C 
ATOM      8  C   UNL A   1     -26.232  -4.611  29.784  0.00  0.00    -0.000 C 
ATOM      9  C   UNL A   1     -26.155  -3.232  30.065  0.00  0.00    -0.004 C 
ENDBRANCH   3   4
BRANCH   3  10
ATOM     10  C   UNL A   1     -25.387  -0.679  31.571  0.00  0.00    +0.082 C 
ATOM     11  C   UNL A   1     -25.189   0.773  32.028  0.00  0.00    +0.020 C 
ATOM     12  C   UNL A   1     -25.336   0.684  33.544  0.00  0.00    +0.020 C 
ATOM     13  C   UNL A   1     -24.829  -0.715  33.905  0.00  0.00    +0.089 C 
ATOM     14  N   UNL A   1     -24.758  -1.481  32.646  0.00  0.00    -0.219 NA
ENDBRANCH   3  10
ENDBRANCH   1   3
BRANCH   1  15
ATOM     15  N   UNL A   1     -25.327   1.018  28.935  0.00  0.00    -0.217 NA
BRANCH  15  18
ATOM     16  C   UNL A   1     -23.163   1.767  26.121  0.00  0.00    -0.003 C 
ATOM     17  C   UNL A   1     -21.681   0.956  27.901  0.00  0.00    +0.001 C 
ATOM     18  C   UNL A   1     -24.168   0.929  28.207  0.00  0.00    +0.067 C 
ATOM     19  C   UNL A   1     -24.305   1.460  26.892  0.00  0.00    +0.000 C 
ATOM     20  C   UNL A   1     -21.868   1.508  26.612  0.00  0.00    -0.000 C 
ATOM     21  C   UNL A   1     -22.825   0.585  28.652  0.00  0.00    +0.016 C 
BRANCH  19  22
ATOM     22  C   UNL A   1     -25.688   1.614  26.461  0.00  0.00    +0.094 C 
ATOM     23  C   UNL A   1     -26.250   2.920  26.395  0.00  0.00    +0.059 C 
ATOM     24  C   UNL A   1     -27.438   3.091  25.645  0.00  0.00    +0.102 C 
ATOM     25  N   UNL A   1     -28.075   2.089  25.003  0.00  0.00    -0.212 NA
ATOM     26  C   UNL A   1     -27.543   0.849  25.079  0.00  0.00    +0.234 C 
ATOM     27  C   UNL A   1     -26.354   0.576  25.777  0.00  0.00    +0.244 C 
ATOM     28  F   UNL A   1     -25.860  -0.681  25.795  0.00  0.00    -0.227 F 
BRANCH  23  29
ATOM     29  C   UNL A   1     -25.642   4.093  27.123  0.00  0.00    +0.263 C 
ATOM     30  N   UNL A   1     -25.614   5.252  26.449  0.00  0.00    -0.200 NA
ATOM     31  C   UNL A   1     -25.026   6.479  26.963  0.00  0.00    +0.139 C 
ATOM     32  O   UNL A   1     -25.143   3.966  28.243  0.00  0.00    -0.269 OA
ENDBRANCH  23  29
BRANCH  26  33
ATOM     33  O   UNL A   1     -28.193  -0.208  24.477  0.00  0.00    -0.459 OA
BRANCH  33  34
ATOM     34  C   UNL A   1     -29.460   0.005  23.866  0.00  0.00    +0.242 C 
BRANCH  34  35
ATOM     35  C   UNL A   1     -30.065  -1.377  23.573  0.00  0.00    +0.229 C 
ATOM     36  O   UNL A   1     -30.729  -1.878  24.721  0.00  0.00    -0.216 OA
ENDBRANCH  34  35
ENDBRANCH  33  34
ENDBRANCH  26  33
ENDBRANCH  19  22
ENDBRANCH  15  18
ENDBRANCH   1  15
BRANCH   2  37
ATOM     37  C   UNL A   1     -28.613   0.679  28.146  0.00  0.00    +0.061 C 
BRANCH  37  41
ATOM     38  C   UNL A   1     -28.052   4.319  30.154  0.00  0.00    +0.236 C 
ATOM     39  N   UNL A   1     -28.564   4.312  28.920  0.00  0.00    -0.037 NA
ATOM     40  C   UNL A   1     -29.231   3.331  28.484  0.00  0.00    +0.320 C 
ATOM     41  C   UNL A   1     -28.825   1.986  28.984  0.00  0.00    +0.065 C 
ATOM     42  C   UNL A   1     -28.105   3.167  30.901  0.00  0.00    +0.050 C 
ATOM     43  C   UNL A   1     -28.449   1.958  30.290  0.00  0.00    +0.007 C 
BRANCH  40  44
ATOM     44  N   UNL A   1     -30.247   3.673  27.693  0.00  0.00    -0.191 N 
ATOM     45  C   UNL A   1     -31.380   4.474  25.852  0.00  0.00    +0.055 C 
ATOM     46  C   UNL A   1     -31.616   3.301  27.984  0.00  0.00    +0.202 C 
ATOM     47  C   UNL A   1     -30.139   4.584  26.580  0.00  0.00    +0.202 C 
ATOM     48  C   UNL A   1     -32.380   4.002  26.864  0.00  0.00    +0.055 C 
ENDBRANCH  40  44
ENDBRANCH  37  41
ENDBRANCH   2  37
TORSDOF 13
