REMARK  Name = outputs/IAG933/test6/raw/output_2985_IAG933_linker_design_.xyz
REMARK  16 active torsions:
REMARK  status: ('A' for Active; 'I' for Inactive)
REMARK    1  A    between atoms: C_1  and  C_2
REMARK    2  A    between atoms: C_1  and  C_8
REMARK    3  A    between atoms: C_1  and  C_29
REMARK    4  A    between atoms: C_13  and  C_41
REMARK    5  A    between atoms: C_14  and  C_15
REMARK    6  A    between atoms: C_21  and  O_22
REMARK    7  A    between atoms: O_22  and  C_23
REMARK    8  A    between atoms: C_23  and  C_24
REMARK    9  A    between atoms: C_28  and  C_29
REMARK   10  A    between atoms: C_28  and  C_40
REMARK   11  A    between atoms: C_29  and  C_33
REMARK   12  A    between atoms: C_31  and  O_35
REMARK   13  A    between atoms: C_32  and  O_42
REMARK   14  A    between atoms: C_33  and  O_35
REMARK   15  A    between atoms: C_33  and  C_41
REMARK   16  A    between atoms: C_38  and  N_45
REMARK                            x       y       z     vdW  Elec       q    Type
REMARK                         _______ _______ _______ _____ _____    ______ ____
ROOT
ATOM      1  C   UNL A   1     -25.655  -0.035  29.183  0.00  0.00    +0.042 C 
ENDROOT
BRANCH   1   2
ATOM      2  C   UNL A   1     -24.855  -1.012  30.143  0.00  0.00    +0.041 C 
BRANCH   2   3
ATOM      3  C   UNL A   1     -24.973  -2.505  29.788  0.00  0.00    -0.021 C 
ATOM      4  C   UNL A   1     -23.906  -3.173  29.146  0.00  0.00    -0.004 C 
ATOM      5  C   UNL A   1     -23.989  -4.549  28.853  0.00  0.00    -0.000 C 
ATOM      6  C   UNL A   1     -25.137  -5.280  29.205  0.00  0.00    -0.000 C 
ATOM      7  C   UNL A   1     -26.232  -4.611  29.784  0.00  0.00    -0.000 C 
ATOM      8  C   UNL A   1     -26.155  -3.232  30.065  0.00  0.00    -0.004 C 
ENDBRANCH   2   3
BRANCH   2   9
ATOM      9  C   UNL A   1     -25.387  -0.679  31.571  0.00  0.00    +0.077 C 
ATOM     10  C   UNL A   1     -25.189   0.773  32.028  0.00  0.00    +0.019 C 
ATOM     11  C   UNL A   1     -25.336   0.684  33.544  0.00  0.00    +0.020 C 
ATOM     12  C   UNL A   1     -24.829  -0.715  33.905  0.00  0.00    +0.089 C 
ATOM     13  N   UNL A   1     -24.758  -1.481  32.646  0.00  0.00    -0.219 NA
ENDBRANCH   2   9
ENDBRANCH   1   2
BRANCH   1  14
ATOM     14  C   UNL A   1     -24.547   0.856  28.563  0.00  0.00    +0.120 C 
BRANCH  14  15
ATOM     15  C   UNL A   1     -24.439   1.243  27.206  0.00  0.00    +0.059 C 
BRANCH  15  16
ATOM     16  C   UNL A   1     -25.688   1.614  26.461  0.00  0.00    +0.018 C 
ATOM     17  C   UNL A   1     -26.250   2.920  26.395  0.00  0.00    +0.073 C 
ATOM     18  C   UNL A   1     -27.438   3.091  25.645  0.00  0.00    +0.106 C 
ATOM     19  N   UNL A   1     -28.075   2.089  25.003  0.00  0.00    -0.208 NA
ATOM     20  C   UNL A   1     -27.543   0.849  25.079  0.00  0.00    +0.253 C 
ATOM     21  C   UNL A   1     -26.354   0.576  25.777  0.00  0.00    +0.189 C 
ATOM     22  F   UNL A   1     -25.860  -0.681  25.795  0.00  0.00    -0.200 F 
BRANCH  17  23
ATOM     23  C   UNL A   1     -25.642   4.093  27.123  0.00  0.00    +0.266 C 
ATOM     24  N   UNL A   1     -25.614   5.252  26.449  0.00  0.00    -0.200 NA
ATOM     25  C   UNL A   1     -25.026   6.479  26.963  0.00  0.00    +0.139 C 
ATOM     26  O   UNL A   1     -25.143   3.966  28.243  0.00  0.00    -0.268 OA
ENDBRANCH  17  23
BRANCH  20  27
ATOM     27  O   UNL A   1     -28.193  -0.208  24.477  0.00  0.00    -0.456 OA
BRANCH  27  28
ATOM     28  C   UNL A   1     -29.460   0.005  23.866  0.00  0.00    +0.243 C 
BRANCH  28  29
ATOM     29  C   UNL A   1     -30.065  -1.377  23.573  0.00  0.00    +0.229 C 
ATOM     30  O   UNL A   1     -30.729  -1.878  24.721  0.00  0.00    -0.216 OA
ENDBRANCH  28  29
ENDBRANCH  27  28
ENDBRANCH  20  27
ENDBRANCH  15  16
ENDBRANCH  14  15
BRANCH  14  31
ATOM     31  O   UNL A   1     -23.205   0.338  28.828  0.00  0.00    -0.356 OA
BRANCH  31  32
ATOM     32  C   UNL A   1     -22.110   1.195  28.434  0.00  0.00    +0.142 C 
ATOM     33  C   UNL A   1     -21.952   1.796  27.052  0.00  0.00    +0.035 C 
ENDBRANCH  31  32
ENDBRANCH  14  31
ENDBRANCH   1  14
BRANCH   1  34
ATOM     34  C   UNL A   1     -26.918  -0.627  28.365  0.00  0.00    +0.090 C 
BRANCH  34  36
ATOM     35  O   UNL A   1     -28.557   0.191  29.807  0.00  0.00    -0.273 OA
ATOM     36  C   UNL A   1     -28.373  -0.343  28.736  0.00  0.00    +0.242 C 
ATOM     37  N   UNL A   1     -29.436  -0.740  27.978  0.00  0.00    -0.199 NA
BRANCH  37  42
ATOM     38  O   UNL A   1     -31.719   0.647  30.570  0.00  0.00    -0.193 OA
ATOM     39  C   UNL A   1     -31.666   1.141  29.230  0.00  0.00    +0.240 C 
ATOM     40  O   UNL A   1     -31.830  -1.944  29.236  0.00  0.00    -0.221 OA
ATOM     41  C   UNL A   1     -33.262  -0.295  28.160  0.00  0.00    +0.040 C 
ATOM     42  C   UNL A   1     -30.791   0.028  28.355  0.00  0.00    +0.179 C 
ATOM     43  C   UNL A   1     -33.118   1.164  28.614  0.00  0.00    +0.064 C 
ATOM     44  C   UNL A   1     -31.910  -0.995  28.187  0.00  0.00    +0.177 C 
BRANCH  39  46
ATOM     45  C   UNL A   1     -31.474   3.668  29.283  0.00  0.00    +0.177 C 
ATOM     46  O   UNL A   1     -30.915   2.361  29.003  0.00  0.00    -0.328 OA
ENDBRANCH  39  46
ENDBRANCH  37  42
ENDBRANCH  34  36
ENDBRANCH   1  34
TORSDOF 16
