MODEL 2986
MODEL 1
REMARK VINA RESULT:    -5.026      0.000      0.000
REMARK INTER + INTRA:          -5.358
REMARK INTER:                  -5.319
REMARK INTRA:                  -0.039
REMARK UNBOUND:                -0.039
REMARK  Name = No_2986-gen_results/8p0m/2024-11-27-11-27-31/
REMARK  1 active torsions:
REMARK  status: ('A' for Active; 'I' for Inactive)
REMARK    1  A    between atoms: C_2  and  C_7
REMARK                            x       y       z     vdW  Elec       q    Type
REMARK                         _______ _______ _______ _____ _____    ______ ____
ROOT
ATOM      1  C   UNL A   1     -27.944 -12.101  31.567  0.00  0.00    +0.007 A 
ATOM      2  C   UNL A   1     -28.072 -11.536  32.629  0.00  0.00    +0.080 A 
ATOM      3  C   UNL A   1     -28.981 -10.494  32.782  0.00  0.00    +0.007 A 
ATOM      4  C   UNL A   1     -29.765 -10.025  31.669  0.00  0.00    +0.000 A 
ATOM      5  C   UNL A   1     -29.537 -10.719  30.474  0.00  0.00    +0.000 A 
ATOM      6  C   UNL A   1     -28.654 -11.686  30.377  0.00  0.00    +0.000 A 
ENDROOT
BRANCH   2   7
ATOM      7  C   UNL A   1     -27.192 -11.960  33.717  0.00  0.00    +0.388 C 
ATOM      8  O   UNL A   1     -26.665 -12.862  33.761  0.00  0.00    -0.241 OA
ATOM      9  O   UNL A   1     -27.009 -10.853  34.582  0.00  0.00    -0.241 OA
ENDBRANCH   2   7
TORSDOF 1
ENDMDL
ENDMDL
