MODEL 2987
MODEL 1
REMARK VINA RESULT:    -7.724      0.000      0.000
REMARK INTER + INTRA:         -10.441
REMARK INTER:                  -9.079
REMARK INTRA:                  -1.363
REMARK UNBOUND:                -1.363
REMARK  Name = No_2987-gen_results/8p0m/2024-11-27-11-27-31/
REMARK  3 active torsions:
REMARK  status: ('A' for Active; 'I' for Inactive)
REMARK    1  A    between atoms: C_3  and  C_7
REMARK    2  A    between atoms: C_7  and  C_15
REMARK    3  A    between atoms: C_8  and  C_9
REMARK                            x       y       z     vdW  Elec       q    Type
REMARK                         _______ _______ _______ _____ _____    ______ ____
ROOT
ATOM      1  C   UNL A   1     -24.107  -0.257  29.050  0.00  0.00    +0.000 C 
ATOM      2  C   UNL A   1     -23.831   0.531  30.057  0.00  0.00    +0.000 C 
ENDROOT
BRANCH   1   5
ATOM      3  C   UNL A   1     -25.948  -1.982  29.772  0.00  0.00    +0.000 A 
ATOM      4  C   UNL A   1     -26.190  -3.007  29.753  0.00  0.00    +0.000 A 
ATOM      5  C   UNL A   1     -24.630  -1.683  29.197  0.00  0.00    +0.000 A 
ATOM      6  C   UNL A   1     -23.761  -2.637  28.862  0.00  0.00    +0.000 A 
ATOM      7  C   UNL A   1     -25.428  -4.197  29.464  0.00  0.00    +0.000 A 
ATOM      8  C   UNL A   1     -24.198  -3.899  28.956  0.00  0.00    +0.000 A 
ENDBRANCH   1   5
BRANCH   2   9
ATOM      9  C   UNL A   1     -23.849  -0.057  31.353  0.00  0.00    +0.000 A 
ATOM     10  C   UNL A   1     -24.995   0.386  32.170  0.00  0.00    +0.000 A 
ATOM     11  C   UNL A   1     -25.132  -0.216  33.453  0.00  0.00    +0.000 A 
ATOM     12  C   UNL A   1     -24.183  -1.100  33.936  0.00  0.00    +0.000 A 
ATOM     13  C   UNL A   1     -23.107  -1.469  33.113  0.00  0.00    +0.000 A 
ATOM     14  C   UNL A   1     -22.961  -0.994  31.861  0.00  0.00    +0.000 A 
ENDBRANCH   2   9
BRANCH   1  15
ATOM     15  C   UNL A   1     -24.238   0.166  27.635  0.00  0.00    +0.000 A 
ATOM     16  C   UNL A   1     -23.583   1.098  27.006  0.00  0.00    +0.000 A 
ATOM     17  C   UNL A   1     -23.881   1.478  25.688  0.00  0.00    +0.000 A 
ATOM     18  C   UNL A   1     -24.783   0.718  24.974  0.00  0.00    +0.000 A 
ATOM     19  C   UNL A   1     -25.333  -0.325  26.732  0.00  0.00    +0.000 A 
ATOM     20  C   UNL A   1     -25.572  -0.159  25.525  0.00  0.00    +0.000 A 
ENDBRANCH   1  15
TORSDOF 3
ENDMDL
ENDMDL
