MODEL 2989
MODEL 1
REMARK VINA RESULT:    -6.931      0.000      0.000
REMARK INTER + INTRA:          -8.675
REMARK INTER:                  -8.146
REMARK INTRA:                  -0.528
REMARK UNBOUND:                -0.528
REMARK  Name = No_2989-gen_results/8p0m/2024-11-27-11-27-31/
REMARK  3 active torsions:
REMARK  status: ('A' for Active; 'I' for Inactive)
REMARK    1  A    between atoms: C_2  and  C_12
REMARK    2  A    between atoms: C_12  and  O_13
REMARK    3  A    between atoms: O_13  and  C_17
REMARK                            x       y       z     vdW  Elec       q    Type
REMARK                         _______ _______ _______ _____ _____    ______ ____
ROOT
ATOM      1  C   UNL A   1     -26.525   0.624  26.404  0.00  0.00    +0.006 A 
ATOM      2  C   UNL A   1     -26.443   1.516  25.849  0.00  0.00    +0.076 A 
ATOM      3  C   UNL A   1     -25.256   0.166  26.969  0.00  0.00    +0.002 A 
ATOM      4  C   UNL A   1     -24.085   0.862  26.794  0.00  0.00    +0.013 A 
ATOM      5  C   UNL A   1     -25.368   2.448  25.508  0.00  0.00    +0.006 A 
ATOM      6  C   UNL A   1     -24.135   2.013  26.050  0.00  0.00    +0.001 A 
ATOM      7  C   UNL A   1     -24.958  -1.056  27.804  0.00  0.00    +0.014 A 
ATOM      8  C   UNL A   1     -24.216  -1.181  28.678  0.00  0.00    +0.086 A 
ATOM      9  C   UNL A   1     -22.941  -0.324  28.562  0.00  0.00    +0.161 A 
ATOM     10  C   UNL A   1     -22.970   0.759  27.719  0.00  0.00    +0.086 A 
ATOM     11  F   UNL A   1     -21.939  -0.654  29.390  0.00  0.00    -0.202 F 
ATOM     12 CL   UNL A   1     -24.024  -2.559  29.681  0.00  0.00    -0.080 Cl
ATOM     13 CL   UNL A   1     -21.576   1.805  27.631  0.00  0.00    -0.080 Cl
ENDROOT
BRANCH   2  14
ATOM     14  C   UNL A   1     -27.803   2.057  25.086  0.00  0.00    +0.346 C 
ATOM     15  O   UNL A   1     -28.419   2.935  25.571  0.00  0.00    -0.244 OA
BRANCH  14  16
ATOM     16  O   UNL A   1     -28.019   1.648  23.865  0.00  0.00    -0.421 OA
BRANCH  16  17
ATOM     17  C   UNL A   1     -28.990   0.741  23.720  0.00  0.00    +0.149 A 
ATOM     18  C   UNL A   1     -28.676  -0.662  23.809  0.00  0.00    +0.038 A 
ATOM     19  C   UNL A   1     -29.601  -1.564  23.653  0.00  0.00    +0.003 A 
ATOM     20  C   UNL A   1     -30.932  -1.156  23.389  0.00  0.00    +0.000 A 
ATOM     21  C   UNL A   1     -31.269   0.159  23.289  0.00  0.00    +0.003 A 
ATOM     22  C   UNL A   1     -30.274   1.116  23.440  0.00  0.00    +0.038 A 
ENDBRANCH  16  17
ENDBRANCH  14  16
ENDBRANCH   2  14
TORSDOF 3
ENDMDL
ENDMDL
