MODEL 298
MODEL 1
REMARK VINA RESULT:    -4.840      0.000      0.000
REMARK INTER + INTRA:          -5.201
REMARK INTER:                  -5.123
REMARK INTRA:                  -0.078
REMARK UNBOUND:                -0.078
REMARK  Name = No_298-gen_results/8p0m/2024-11-27-11-27-31/
REMARK  1 active torsions:
REMARK  status: ('A' for Active; 'I' for Inactive)
REMARK    1  A    between atoms: C_3  and  C_9
REMARK                            x       y       z     vdW  Elec       q    Type
REMARK                         _______ _______ _______ _____ _____    ______ ____
ROOT
ATOM      1  C   UNL A   1     -24.081   0.097  27.741  0.00  0.00    +0.009 A 
ATOM      2  C   UNL A   1     -23.759  -0.639  28.424  0.00  0.00    +0.058 A 
ATOM      3  C   UNL A   1     -23.067   1.170  27.415  0.00  0.00    +0.006 A 
ATOM      4  C   UNL A   1     -21.751   1.050  27.910  0.00  0.00    +0.136 A 
ATOM      5  C   UNL A   1     -22.465  -1.005  29.043  0.00  0.00    +0.014 A 
ATOM      6  C   UNL A   1     -21.505  -0.044  28.761  0.00  0.00    +0.030 A 
ATOM      7 CL   UNL A   1     -24.978  -1.942  28.812  0.00  0.00    -0.082 Cl
ATOM      8  F   UNL A   1     -20.879   1.969  27.661  0.00  0.00    -0.204 F 
ENDROOT
BRANCH   3   9
ATOM      9  C   UNL A   1     -23.310   2.335  26.553  0.00  0.00    +0.029 C 
ATOM     10  C   UNL A   1     -22.882   2.336  25.230  0.00  0.00    +0.005 C 
ENDBRANCH   3   9
TORSDOF 1
ENDMDL
ENDMDL
