MODEL 2990
MODEL 1
REMARK VINA RESULT:    -3.878      0.000      0.000
REMARK INTER + INTRA:          -4.520
REMARK INTER:                  -4.332
REMARK INTRA:                  -0.188
REMARK UNBOUND:                -0.188
REMARK  Name = No_2990-gen_results/8p0m/2024-11-27-11-27-31/
REMARK  2 active torsions:
REMARK  status: ('A' for Active; 'I' for Inactive)
REMARK    1  A    between atoms: C_3  and  C_4
REMARK    2  A    between atoms: C_4  and  C_5
REMARK                            x       y       z     vdW  Elec       q    Type
REMARK                         _______ _______ _______ _____ _____    ______ ____
ROOT
ATOM      1  C   UNL A   1     -24.377  -2.931  28.715  0.00  0.00    +0.053 C 
ENDROOT
BRANCH   1   4
ATOM      2  N   UNL A   1     -24.713  -1.629  31.028  0.00  0.00    -0.127 NA
ATOM      3  C   UNL A   1     -23.677  -1.414  30.397  0.00  0.00    +0.102 C 
ATOM      4  C   UNL A   1     -23.444  -2.032  29.204  0.00  0.00    -0.002 C 
ENDBRANCH   1   4
BRANCH   1   5
ATOM      5  C   UNL A   1     -24.101  -4.280  28.637  0.00  0.00    -0.026 C 
ATOM      6  C   UNL A   1     -25.041  -5.205  29.133  0.00  0.00    -0.030 C 
ATOM      7  C   UNL A   1     -26.276  -4.762  29.702  0.00  0.00    +0.030 C 
ENDBRANCH   1   5
TORSDOF 2
ENDMDL
ENDMDL
