REMARK  Name = No_2991-gen_results/8p0m/2024-11-27-11-27-31/
REMARK  5 active torsions:
REMARK  status: ('A' for Active; 'I' for Inactive)
REMARK    1  A    between atoms: C_1  and  C_2
REMARK    2  A    between atoms: C_1  and  C_8
REMARK    3  A    between atoms: C_5  and  C_10
REMARK    4  A    between atoms: C_10  and  N_11
REMARK    5  A    between atoms: C_19  and  C_20
REMARK                            x       y       z     vdW  Elec       q    Type
REMARK                         _______ _______ _______ _____ _____    ______ ____
ROOT
ATOM      1  C   UNL A   1     -27.064  -0.119  28.608  0.00  0.00    -0.013 A 
ATOM      2  C   UNL A   1     -26.929   1.171  29.008  0.00  0.00    -0.004 A 
ATOM      3  C   UNL A   1     -25.770   2.034  28.688  0.00  0.00    -0.000 A 
ATOM      4  C   UNL A   1     -24.714   1.443  27.919  0.00  0.00    +0.031 A 
ATOM      5  C   UNL A   1     -24.859   0.078  27.584  0.00  0.00    -0.000 A 
ATOM      6  C   UNL A   1     -25.965  -0.661  27.916  0.00  0.00    -0.004 A 
ENDROOT
BRANCH   4   7
ATOM      7  C   UNL A   1     -23.540   2.163  27.556  0.00  0.00    +0.279 C 
ATOM      8  F   UNL A   1     -23.846   3.256  26.896  0.00  0.00    -0.208 F 
BRANCH   7   9
ATOM      9  N   UNL A   1     -22.398   2.194  27.931  0.00  0.00    -0.165 NA
ATOM     10  C   UNL A   1     -21.610   0.992  28.170  0.00  0.00    +0.267 C 
ATOM     11  O   UNL A   1     -20.476   0.862  27.557  0.00  0.00    -0.268 OA
BRANCH  10  12
ATOM     12  C   UNL A   1     -22.079  -0.010  29.031  0.00  0.00    +0.055 A 
ATOM     13  C   UNL A   1     -22.592   0.333  30.291  0.00  0.00    +0.005 A 
ATOM     14  C   UNL A   1     -23.127  -0.710  31.118  0.00  0.00    +0.000 A 
ATOM     15  C   UNL A   1     -23.306  -1.955  30.523  0.00  0.00    +0.000 A 
ATOM     16  C   UNL A   1     -23.001  -2.276  29.243  0.00  0.00    +0.000 A 
ATOM     17  C   UNL A   1     -22.294  -1.290  28.554  0.00  0.00    +0.005 A 
ENDBRANCH  10  12
ENDBRANCH   7   9
ENDBRANCH   4   7
BRANCH   1  18
ATOM     18  C   UNL A   1     -28.016  -0.814  28.878  0.00  0.00    +0.112 C 
BRANCH  18  19
ATOM     19  C   UNL A   1     -28.042  -1.543  30.242  0.00  0.00    +0.230 C 
ATOM     20  N   UNL A   1     -29.033  -2.428  30.559  0.00  0.00    -0.279 N 
ATOM     21  C   UNL A   1     -30.167  -2.274  30.146  0.00  0.00    +0.093 C 
ATOM     22  C   UNL A   1     -31.055  -3.341  30.410  0.00  0.00    +0.022 C 
ATOM     23  C   UNL A   1     -28.699  -3.660  31.178  0.00  0.00    +0.093 C 
ATOM     24  C   UNL A   1     -29.283  -4.678  30.859  0.00  0.00    +0.022 C 
ATOM     25  C   UNL A   1     -30.725  -4.613  30.718  0.00  0.00    +0.004 C 
ATOM     26  O   UNL A   1     -26.823  -1.640  30.776  0.00  0.00    -0.275 OA
ENDBRANCH  18  19
ENDBRANCH   1  18
TORSDOF 5
