REMARK  Name = No_2992-gen_results/8p0m/2024-11-27-11-27-31/
REMARK  5 active torsions:
REMARK  status: ('A' for Active; 'I' for Inactive)
REMARK    1  A    between atoms: C_3  and  C_5
REMARK    2  A    between atoms: C_7  and  C_17
REMARK    3  A    between atoms: C_11  and  C_20
REMARK    4  A    between atoms: C_13  and  C_14
REMARK    5  A    between atoms: N_22  and  C_24
REMARK                            x       y       z     vdW  Elec       q    Type
REMARK                         _______ _______ _______ _____ _____    ______ ____
ROOT
ATOM      1  C   UNL A   1     -27.867   0.959  30.111  0.00  0.00    -0.009 A 
ATOM      2  C   UNL A   1     -28.515   1.714  29.287  0.00  0.00    -0.004 A 
ATOM      3  C   UNL A   1     -29.643   2.473  29.585  0.00  0.00    +0.006 A 
ATOM      4  C   UNL A   1     -28.419   0.765  31.461  0.00  0.00    +0.051 A 
ATOM      5  C   UNL A   1     -29.567   1.542  31.875  0.00  0.00    +0.011 A 
ATOM      6  C   UNL A   1     -30.133   2.397  30.933  0.00  0.00    +0.080 A 
ENDROOT
BRANCH   1   9
ATOM      7  O   UNL A   1     -28.123  -1.335  28.487  0.00  0.00    -0.273 OA
ATOM      8  C   UNL A   1     -27.064  -0.824  28.869  0.00  0.00    +0.245 C 
ATOM      9  C   UNL A   1     -26.959   0.093  29.758  0.00  0.00    +0.101 C 
ATOM     10  N   UNL A   1     -25.847  -1.549  28.659  0.00  0.00    -0.205 NA
ATOM     11  C   UNL A   1     -24.565  -1.138  29.039  0.00  0.00    +0.126 C 
ATOM     12  C   UNL A   1     -24.451  -0.017  29.749  0.00  0.00    +0.126 C 
ATOM     13  C   UNL A   1     -25.560   0.671  30.160  0.00  0.00    +0.027 C 
BRANCH  12  14
ATOM     14  C   UNL A   1     -23.038   0.392  30.158  0.00  0.00    +0.366 C 
ATOM     15  O   UNL A   1     -22.000  -0.245  29.789  0.00  0.00    -0.246 OA
ATOM     16  O   UNL A   1     -22.931   1.206  31.148  0.00  0.00    -0.246 OA
ENDBRANCH  12  14
ENDBRANCH   1   9
BRANCH   4  17
ATOM     17  C   UNL A   1     -27.769  -0.090  32.438  0.00  0.00    +0.253 C 
ATOM     18  O   UNL A   1     -28.086  -1.265  32.397  0.00  0.00    -0.270 OA
ATOM     19  N   UNL A   1     -26.897   0.439  33.313  0.00  0.00    -0.253 N 
ATOM     20  C   UNL A   1     -26.118  -0.396  34.244  0.00  0.00    +0.120 C 
BRANCH  19  21
ATOM     21  C   UNL A   1     -26.617   1.877  33.400  0.00  0.00    +0.054 A 
ATOM     22  C   UNL A   1     -27.080   2.672  34.691  0.00  0.00    +0.015 A 
ATOM     23  C   UNL A   1     -26.724   3.958  34.692  0.00  0.00    +0.001 A 
ATOM     24  C   UNL A   1     -26.023   4.609  33.633  0.00  0.00    +0.000 A 
ATOM     25  C   UNL A   1     -25.605   3.809  32.557  0.00  0.00    +0.001 A 
ATOM     26  C   UNL A   1     -25.850   2.519  32.559  0.00  0.00    +0.015 A 
ENDBRANCH  19  21
ENDBRANCH   4  17
BRANCH   6  27
ATOM     27  C   UNL A   1     -31.274   3.248  31.311  0.00  0.00    +0.388 C 
ATOM     28  O   UNL A   1     -31.174   3.951  32.226  0.00  0.00    -0.241 OA
ATOM     29  O   UNL A   1     -32.187   3.349  30.375  0.00  0.00    -0.241 OA
ENDBRANCH   6  27
TORSDOF 5
