MODEL 2992
MODEL 1
REMARK VINA RESULT:    -6.369      0.000      0.000
REMARK INTER + INTRA:          -9.812
REMARK INTER:                  -8.230
REMARK INTRA:                  -1.581
REMARK UNBOUND:                -1.581
REMARK  Name = No_2992-gen_results/8p0m/2024-11-27-11-27-31/
REMARK  5 active torsions:
REMARK  status: ('A' for Active; 'I' for Inactive)
REMARK    1  A    between atoms: C_3  and  C_5
REMARK    2  A    between atoms: C_7  and  C_17
REMARK    3  A    between atoms: C_11  and  C_20
REMARK    4  A    between atoms: C_13  and  C_14
REMARK    5  A    between atoms: N_22  and  C_24
REMARK                            x       y       z     vdW  Elec       q    Type
REMARK                         _______ _______ _______ _____ _____    ______ ____
ROOT
ATOM      1  C   UNL A   1     -24.192  -1.011  28.765  0.00  0.00    -0.009 A 
ATOM      2  C   UNL A   1     -24.211  -2.192  28.242  0.00  0.00    -0.004 A 
ATOM      3  C   UNL A   1     -25.036  -3.245  28.626  0.00  0.00    +0.006 A 
ATOM      4  C   UNL A   1     -25.017  -0.763  29.958  0.00  0.00    +0.051 A 
ATOM      5  C   UNL A   1     -25.936  -1.786  30.408  0.00  0.00    +0.011 A 
ATOM      6  C   UNL A   1     -25.941  -2.992  29.712  0.00  0.00    +0.080 A 
ENDROOT
BRANCH   1   9
ATOM      7  O   UNL A   1     -21.593  -0.829  29.851  0.00  0.00    -0.273 OA
ATOM      8  C   UNL A   1     -22.036  -0.174  28.901  0.00  0.00    +0.245 C 
ATOM      9  C   UNL A   1     -23.266  -0.122  28.542  0.00  0.00    +0.101 C 
ATOM     10  N   UNL A   1     -21.260   0.928  28.416  0.00  0.00    -0.205 NA
ATOM     11  C   UNL A   1     -21.609   1.786  27.368  0.00  0.00    +0.126 C 
ATOM     12  C   UNL A   1     -22.814   1.646  26.818  0.00  0.00    +0.126 C 
ATOM     13  C   UNL A   1     -23.712   0.742  27.314  0.00  0.00    +0.027 C 
BRANCH  12  14
ATOM     14  C   UNL A   1     -23.165   2.611  25.688  0.00  0.00    +0.366 C 
ATOM     15  O   UNL A   1     -24.294   3.192  25.600  0.00  0.00    -0.246 OA
ATOM     16  O   UNL A   1     -22.414   2.581  24.643  0.00  0.00    -0.246 OA
ENDBRANCH  12  14
ENDBRANCH   1   9
BRANCH   4  17
ATOM     17  C   UNL A   1     -25.031   0.526  30.624  0.00  0.00    +0.253 C 
ATOM     18  O   UNL A   1     -24.237   0.650  31.539  0.00  0.00    -0.270 OA
ATOM     19  N   UNL A   1     -25.894   1.475  30.224  0.00  0.00    -0.253 N 
ATOM     20  C   UNL A   1     -25.871   2.840  30.780  0.00  0.00    +0.120 C 
BRANCH  19  21
ATOM     21  C   UNL A   1     -26.907   1.255  29.185  0.00  0.00    +0.054 A 
ATOM     22  C   UNL A   1     -28.297   0.610  29.593  0.00  0.00    +0.015 A 
ATOM     23  C   UNL A   1     -29.164   0.508  28.584  0.00  0.00    +0.001 A 
ATOM     24  C   UNL A   1     -28.895   0.897  27.237  0.00  0.00    +0.000 A 
ATOM     25  C   UNL A   1     -27.657   1.511  26.985  0.00  0.00    +0.001 A 
ATOM     26  C   UNL A   1     -26.810   1.718  27.967  0.00  0.00    +0.015 A 
ENDBRANCH  19  21
ENDBRANCH   4  17
BRANCH   6  27
ATOM     27  C   UNL A   1     -26.888  -4.052  30.094  0.00  0.00    +0.388 C 
ATOM     28  O   UNL A   1     -28.019  -3.807  30.143  0.00  0.00    -0.241 OA
ATOM     29  O   UNL A   1     -26.377  -5.259  30.038  0.00  0.00    -0.241 OA
ENDBRANCH   6  27
TORSDOF 5
ENDMDL
ENDMDL
