MODEL 2993
MODEL 1
REMARK VINA RESULT:    -5.118      0.000      0.000
REMARK INTER + INTRA:          -5.118
REMARK INTER:                  -5.118
REMARK INTRA:                   0.000
REMARK UNBOUND:                 0.000
REMARK  Name = No_2993-gen_results/8p0m/2024-11-27-11-27-31/
REMARK  0 active torsions:
REMARK  status: ('A' for Active; 'I' for Inactive)
REMARK                            x       y       z     vdW  Elec       q    Type
REMARK                         _______ _______ _______ _____ _____    ______ ____
ROOT
ATOM      1  N   UNL A   1     -25.481  -0.929  30.163  0.00  0.00    -0.244 NA
ATOM      2  C   UNL A   1     -24.675  -0.292  29.773  0.00  0.00    +0.099 A 
ATOM      3  C   UNL A   1     -25.417  -2.313  29.863  0.00  0.00    +0.081 A 
ATOM      4  C   UNL A   1     -26.407  -3.279  30.069  0.00  0.00    +0.019 A 
ATOM      5  C   UNL A   1     -26.091  -4.677  29.630  0.00  0.00    +0.002 A 
ATOM      6  C   UNL A   1     -24.967  -4.936  28.956  0.00  0.00    +0.000 A 
ATOM      7  C   UNL A   1     -24.261  -3.023  29.188  0.00  0.00    +0.018 A 
ATOM      8  C   UNL A   1     -23.989  -4.093  28.778  0.00  0.00    +0.002 A 
ATOM      9  C   UNL A   1     -23.344  -0.608  29.407  0.00  0.00    +0.021 A 
ATOM     10  C   UNL A   1     -23.144  -1.832  28.989  0.00  0.00    +0.003 A 
ENDROOT
TORSDOF 0
ENDMDL
ENDMDL
