MODEL 2994
MODEL 1
REMARK VINA RESULT:    -5.768      0.000      0.000
REMARK INTER + INTRA:          -7.516
REMARK INTER:                  -6.779
REMARK INTRA:                  -0.737
REMARK UNBOUND:                -0.737
REMARK  Name = No_2994-gen_results/8p0m/2024-11-27-11-27-31/
REMARK  3 active torsions:
REMARK  status: ('A' for Active; 'I' for Inactive)
REMARK    1  A    between atoms: C_3  and  C_4
REMARK    2  A    between atoms: C_8  and  C_9
REMARK    3  A    between atoms: C_10  and  C_11
REMARK                            x       y       z     vdW  Elec       q    Type
REMARK                         _______ _______ _______ _____ _____    ______ ____
ROOT
ATOM      1  C   UNL A   1     -26.390  -3.887  29.833  0.00  0.00    +0.000 A 
ATOM      2  C   UNL A   1     -26.080  -4.876  29.644  0.00  0.00    +0.000 A 
ATOM      3  C   UNL A   1     -25.453  -2.876  29.343  0.00  0.00    +0.000 A 
ATOM      4  C   UNL A   1     -24.925  -5.488  29.001  0.00  0.00    +0.000 A 
ATOM      5  C   UNL A   1     -24.010  -4.566  28.537  0.00  0.00    +0.000 A 
ATOM      6  C   UNL A   1     -24.274  -3.251  28.648  0.00  0.00    +0.000 A 
ENDROOT
BRANCH   3   7
ATOM      7  C   UNL A   1     -25.714  -1.420  29.396  0.00  0.00    +0.000 C 
ATOM      8  C   UNL A   1     -25.170  -0.705  30.320  0.00  0.00    +0.000 C 
BRANCH   8   9
ATOM      9  C   UNL A   1     -24.210  -1.180  31.237  0.00  0.00    +0.000 C 
ATOM     10  C   UNL A   1     -22.966  -0.841  31.245  0.00  0.00    +0.000 C 
BRANCH  10  11
ATOM     11  C   UNL A   1     -22.494  -0.068  30.112  0.00  0.00    +0.000 C 
ATOM     12  C   UNL A   1     -21.722  -0.643  29.151  0.00  0.00    +0.000 C 
ENDBRANCH  10  11
ENDBRANCH   8   9
ENDBRANCH   3   7
TORSDOF 3
ENDMDL
ENDMDL
