REMARK  Name = No_2995-gen_results/8p0m/2024-11-27-11-27-31/
REMARK  0 active torsions:
REMARK  status: ('A' for Active; 'I' for Inactive)
REMARK                            x       y       z     vdW  Elec       q    Type
REMARK                         _______ _______ _______ _____ _____    ______ ____
ROOT
ATOM      1  C   UNL A   1     -28.016  -0.814  28.878  0.00  0.00    -0.000 A 
ATOM      2  C   UNL A   1     -27.064  -0.119  28.608  0.00  0.00    -0.004 A 
ATOM      3  C   UNL A   1     -26.972   0.714  27.506  0.00  0.00    -0.004 A 
ATOM      4  C   UNL A   1     -28.105   0.774  26.642  0.00  0.00    -0.000 A 
ATOM      5  C   UNL A   1     -29.204   0.118  27.048  0.00  0.00    -0.000 A 
ATOM      6  C   UNL A   1     -29.213  -0.609  28.128  0.00  0.00    -0.000 A 
ATOM      7  C   UNL A   1     -25.711   1.452  27.138  0.00  0.00    -0.022 A 
ATOM      8  C   UNL A   1     -24.605   0.925  27.690  0.00  0.00    -0.004 A 
ATOM      9  C   UNL A   1     -23.309   1.602  27.492  0.00  0.00    -0.000 A 
ATOM     10  C   UNL A   1     -22.177   1.197  28.274  0.00  0.00    -0.000 A 
ATOM     11  C   UNL A   1     -22.218   0.093  29.062  0.00  0.00    -0.000 A 
ATOM     12  C   UNL A   1     -23.401  -0.673  29.162  0.00  0.00    -0.000 A 
ATOM     13  C   UNL A   1     -24.556  -0.222  28.540  0.00  0.00    -0.004 A 
ATOM     14  C   UNL A   1     -25.731  -0.602  29.134  0.00  0.00    -0.022 A 
ATOM     15  C   UNL A   1     -25.755  -1.647  30.142  0.00  0.00    +0.031 C 
ATOM     16  C   UNL A   1     -25.843   2.919  27.386  0.00  0.00    +0.031 C 
ENDROOT
TORSDOF 0
