MODEL 2996
MODEL 1
REMARK VINA RESULT:    -6.458      0.000      0.000
REMARK INTER + INTRA:          -7.038
REMARK INTER:                  -6.835
REMARK INTRA:                  -0.203
REMARK UNBOUND:                -0.203
REMARK  Name = No_2996-gen_results/8p0m/2024-11-27-11-27-31/
REMARK  1 active torsions:
REMARK  status: ('A' for Active; 'I' for Inactive)
REMARK    1  A    between atoms: C_9  and  C_11
REMARK                            x       y       z     vdW  Elec       q    Type
REMARK                         _______ _______ _______ _____ _____    ______ ____
ROOT
ATOM      1  C   UNL A   1     -26.482  -3.394  30.030  0.00  0.00    -0.000 A 
ATOM      2  C   UNL A   1     -25.544  -2.633  29.971  0.00  0.00    -0.000 A 
ATOM      3  C   UNL A   1     -24.326  -3.036  29.435  0.00  0.00    -0.000 A 
ATOM      4  C   UNL A   1     -24.129  -4.386  28.976  0.00  0.00    -0.000 A 
ATOM      5  C   UNL A   1     -25.258  -5.205  29.102  0.00  0.00    -0.000 A 
ATOM      6  C   UNL A   1     -26.383  -4.781  29.632  0.00  0.00    -0.000 A 
ATOM      7  C   UNL A   1     -25.559  -1.215  30.422  0.00  0.00    -0.000 A 
ATOM      8  C   UNL A   1     -24.848  -0.294  29.874  0.00  0.00    +0.004 A 
ATOM      9  C   UNL A   1     -23.520  -0.705  29.248  0.00  0.00    +0.071 A 
ATOM     10  C   UNL A   1     -23.340  -2.045  28.925  0.00  0.00    +0.004 A 
ENDROOT
BRANCH   9  11
ATOM     11  C   UNL A   1     -22.520   0.293  28.894  0.00  0.00    +0.419 C 
ATOM     12  F   UNL A   1     -22.572   0.769  27.769  0.00  0.00    -0.166 F 
ATOM     13  F   UNL A   1     -21.226  -0.231  29.096  0.00  0.00    -0.166 F 
ATOM     14  F   UNL A   1     -22.714   1.335  29.840  0.00  0.00    -0.166 F 
ENDBRANCH   9  11
TORSDOF 1
ENDMDL
ENDMDL
