REMARK  Name = outputs/IAG933/test6/raw/output_2997_IAG933_linker_design_.xyz
REMARK  17 active torsions:
REMARK  status: ('A' for Active; 'I' for Inactive)
REMARK    1  A    between atoms: C_1  and  C_2
REMARK    2  A    between atoms: C_1  and  C_8
REMARK    3  A    between atoms: C_1  and  C_36
REMARK    4  A    between atoms: C_13  and  C_41
REMARK    5  A    between atoms: C_14  and  C_15
REMARK    6  A    between atoms: C_21  and  O_22
REMARK    7  A    between atoms: O_22  and  C_23
REMARK    8  A    between atoms: C_23  and  C_24
REMARK    9  A    between atoms: C_28  and  C_44
REMARK   10  A    between atoms: C_29  and  C_44
REMARK   11  A    between atoms: C_32  and  C_38
REMARK   12  A    between atoms: C_32  and  C_40
REMARK   13  A    between atoms: C_33  and  C_36
REMARK   14  A    between atoms: C_33  and  C_42
REMARK   15  A    between atoms: C_36  and  N_39
REMARK   16  A    between atoms: C_38  and  C_42
REMARK   17  A    between atoms: C_41  and  C_44
REMARK                            x       y       z     vdW  Elec       q    Type
REMARK                         _______ _______ _______ _____ _____    ______ ____
ROOT
ATOM      1  N   UNL A   1     -24.924   0.546  28.329  0.00  0.00    -0.276 NA
ATOM      2  C   UNL A   1     -24.727   1.211  27.297  0.00  0.00    +0.062 C 
ENDROOT
BRANCH   2   3
ATOM      3  C   UNL A   1     -25.688   1.614  26.461  0.00  0.00    +0.051 C 
ATOM      4  C   UNL A   1     -26.250   2.920  26.395  0.00  0.00    +0.078 C 
ATOM      5  C   UNL A   1     -27.438   3.091  25.645  0.00  0.00    +0.107 C 
ATOM      6  N   UNL A   1     -28.075   2.089  25.003  0.00  0.00    -0.208 NA
ATOM      7  C   UNL A   1     -27.543   0.849  25.079  0.00  0.00    +0.253 C 
ATOM      8  C   UNL A   1     -26.354   0.576  25.777  0.00  0.00    +0.194 C 
ATOM      9  F   UNL A   1     -25.860  -0.681  25.795  0.00  0.00    -0.199 F 
BRANCH   4  10
ATOM     10  C   UNL A   1     -25.642   4.093  27.123  0.00  0.00    +0.267 C 
ATOM     11  N   UNL A   1     -25.614   5.252  26.449  0.00  0.00    -0.200 NA
ATOM     12  C   UNL A   1     -25.026   6.479  26.963  0.00  0.00    +0.139 C 
ATOM     13  O   UNL A   1     -25.143   3.966  28.243  0.00  0.00    -0.268 OA
ENDBRANCH   4  10
BRANCH   7  14
ATOM     14  O   UNL A   1     -28.193  -0.208  24.477  0.00  0.00    -0.456 OA
BRANCH  14  15
ATOM     15  C   UNL A   1     -29.460   0.005  23.866  0.00  0.00    +0.243 C 
BRANCH  15  16
ATOM     16  C   UNL A   1     -30.065  -1.377  23.573  0.00  0.00    +0.229 C 
ATOM     17  O   UNL A   1     -30.729  -1.878  24.721  0.00  0.00    -0.216 OA
ENDBRANCH  15  16
ENDBRANCH  14  15
ENDBRANCH   7  14
ENDBRANCH   2   3
BRANCH   1  18
ATOM     18  C   UNL A   1     -25.714  -0.098  29.244  0.00  0.00    +0.108 C 
BRANCH  18  19
ATOM     19  C   UNL A   1     -24.855  -1.012  30.143  0.00  0.00    +0.061 C 
BRANCH  19  20
ATOM     20  C   UNL A   1     -24.973  -2.505  29.788  0.00  0.00    -0.019 C 
ATOM     21  C   UNL A   1     -23.906  -3.173  29.146  0.00  0.00    -0.004 C 
ATOM     22  C   UNL A   1     -23.989  -4.549  28.853  0.00  0.00    -0.000 C 
ATOM     23  C   UNL A   1     -25.137  -5.280  29.205  0.00  0.00    -0.000 C 
ATOM     24  C   UNL A   1     -26.232  -4.611  29.784  0.00  0.00    -0.000 C 
ATOM     25  C   UNL A   1     -26.155  -3.232  30.065  0.00  0.00    -0.004 C 
ENDBRANCH  19  20
BRANCH  19  26
ATOM     26  C   UNL A   1     -25.387  -0.679  31.571  0.00  0.00    +0.079 C 
ATOM     27  C   UNL A   1     -25.189   0.773  32.028  0.00  0.00    +0.019 C 
ATOM     28  C   UNL A   1     -25.336   0.684  33.544  0.00  0.00    +0.020 C 
ATOM     29  C   UNL A   1     -24.829  -0.715  33.905  0.00  0.00    +0.089 C 
ATOM     30  N   UNL A   1     -24.758  -1.481  32.646  0.00  0.00    -0.219 NA
ENDBRANCH  19  26
ENDBRANCH  18  19
BRANCH  18  31
ATOM     31  C   UNL A   1     -26.982  -0.787  28.586  0.00  0.00    +0.025 C 
BRANCH  31  32
ATOM     32  C   UNL A   1     -28.405  -0.257  28.168  0.00  0.00    +0.003 C 
BRANCH  32  33
ATOM     33  C   UNL A   1     -29.593   0.224  29.014  0.00  0.00    +0.011 C 
ATOM     34  C   UNL A   1     -29.682   1.718  29.213  0.00  0.00    +0.001 C 
BRANCH  33  35
ATOM     35  C   UNL A   1     -29.618  -0.637  30.289  0.00  0.00    +0.114 C 
BRANCH  35  38
ATOM     36  O   UNL A   1     -31.396  -1.840  29.287  0.00  0.00    -0.246 OA
ATOM     37  O   UNL A   1     -29.650  -3.029  30.079  0.00  0.00    -0.246 OA
ATOM     38  C   UNL A   1     -30.274  -1.943  29.976  0.00  0.00    +0.365 C 
ENDBRANCH  35  38
ENDBRANCH  33  35
ENDBRANCH  32  33
ENDBRANCH  31  32
ENDBRANCH  18  31
ENDBRANCH   1  18
BRANCH   2  39
ATOM     39  C   UNL A   1     -23.361   1.527  27.014  0.00  0.00    +0.123 C 
BRANCH  39  40
ATOM     40  C   UNL A   1     -22.321   1.389  27.976  0.00  0.00    +0.317 C 
ATOM     41  F   UNL A   1     -21.111   1.687  27.675  0.00  0.00    -0.201 F 
ATOM     42  O   UNL A   1     -22.396   0.747  29.091  0.00  0.00    -0.184 OA
ENDBRANCH  39  40
BRANCH  39  43
ATOM     43  C   UNL A   1     -22.900   1.790  25.823  0.00  0.00    +0.121 C 
ATOM     44  N   UNL A   1     -23.535   2.823  25.130  0.00  0.00    -0.131 NA
ENDBRANCH  39  43
ENDBRANCH   2  39
TORSDOF 17
