MODEL 2999
MODEL 1
REMARK VINA RESULT:    -6.621      0.000      0.000
REMARK INTER + INTRA:          -9.518
REMARK INTER:                  -8.944
REMARK INTRA:                  -0.574
REMARK UNBOUND:                -0.574
REMARK  Name = No_2999-gen_results/8p0m/2024-11-27-11-27-31/
REMARK  6 active torsions:
REMARK  status: ('A' for Active; 'I' for Inactive)
REMARK    1  A    between atoms: C_3  and  C_4
REMARK    2  A    between atoms: C_6  and  O_16
REMARK    3  A    between atoms: C_10  and  C_13
REMARK    4  A    between atoms: C_13  and  O_14
REMARK    5  A    between atoms: O_14  and  C_18
REMARK    6  A    between atoms: C_19  and  C_20
REMARK                            x       y       z     vdW  Elec       q    Type
REMARK                         _______ _______ _______ _____ _____    ______ ____
ROOT
ATOM      1  C   UNL A   1     -24.407  -0.569  27.780  0.00  0.00    +0.006 A 
ATOM      2  C   UNL A   1     -25.402  -0.381  27.120  0.00  0.00    +0.000 A 
ATOM      3  C   UNL A   1     -25.492   0.698  26.247  0.00  0.00    +0.000 A 
ATOM      4  C   UNL A   1     -23.334   0.416  27.875  0.00  0.00    +0.076 A 
ATOM      5  C   UNL A   1     -23.285   1.459  26.973  0.00  0.00    +0.006 A 
ATOM      6  C   UNL A   1     -24.411   1.670  26.165  0.00  0.00    +0.000 A 
ENDROOT
BRANCH   3   7
ATOM      7  C   UNL A   1     -26.663   1.043  25.391  0.00  0.00    +0.003 A 
ATOM      8  C   UNL A   1     -27.293  -0.050  24.726  0.00  0.00    +0.037 A 
ATOM      9  C   UNL A   1     -28.368   0.175  23.868  0.00  0.00    +0.139 A 
ATOM     10  C   UNL A   1     -28.688   1.519  23.576  0.00  0.00    +0.037 A 
ATOM     11  C   UNL A   1     -28.079   2.573  24.193  0.00  0.00    +0.003 A 
ATOM     12  C   UNL A   1     -26.985   2.343  25.110  0.00  0.00    +0.000 A 
BRANCH   9  13
ATOM     13  O   UNL A   1     -28.957  -0.834  23.263  0.00  0.00    -0.471 OA
ATOM     14  C   UNL A   1     -30.338  -0.969  23.740  0.00  0.00    +0.253 C 
ENDBRANCH   9  13
ENDBRANCH   3   7
BRANCH   4  15
ATOM     15  C   UNL A   1     -22.150   0.213  28.729  0.00  0.00    +0.346 C 
ATOM     16  O   UNL A   1     -20.981   0.376  28.236  0.00  0.00    -0.244 OA
BRANCH  15  17
ATOM     17  O   UNL A   1     -22.296   0.024  29.910  0.00  0.00    -0.418 OA
BRANCH  17  18
ATOM     18  C   UNL A   1     -23.177   0.789  30.716  0.00  0.00    +0.187 C 
ATOM     19  C   UNL A   1     -23.848   0.277  31.493  0.00  0.00    +0.116 C 
BRANCH  19  20
ATOM     20  C   UNL A   1     -23.508  -1.040  31.893  0.00  0.00    +0.422 C 
ATOM     21  F   UNL A   1     -24.264  -1.486  32.907  0.00  0.00    -0.166 F 
ATOM     22  F   UNL A   1     -23.766  -1.966  30.945  0.00  0.00    -0.166 F 
ATOM     23  F   UNL A   1     -22.273  -1.077  32.350  0.00  0.00    -0.166 F 
ENDBRANCH  19  20
ENDBRANCH  17  18
ENDBRANCH  15  17
ENDBRANCH   4  15
TORSDOF 6
ENDMDL
ENDMDL
