MODEL 299
MODEL 1
REMARK VINA RESULT:    -7.073      0.000      0.000
REMARK INTER + INTRA:          -7.995
REMARK INTER:                  -8.313
REMARK INTRA:                   0.318
REMARK UNBOUND:                 0.318
REMARK  Name = No_299-gen_results/8p0m/2024-11-27-11-27-31/
REMARK  4 active torsions:
REMARK  status: ('A' for Active; 'I' for Inactive)
REMARK    1  A    between atoms: C_2  and  C_11
REMARK    2  A    between atoms: C_11  and  O_13
REMARK    3  A    between atoms: O_13  and  C_14
REMARK    4  A    between atoms: C_14  and  C_15
REMARK                            x       y       z     vdW  Elec       q    Type
REMARK                         _______ _______ _______ _____ _____    ______ ____
ROOT
ATOM      1  C   UNL A   1     -22.948  -0.024  29.222  0.00  0.00    +0.349 C 
ATOM      2  O   UNL A   1     -22.704   0.707  29.987  0.00  0.00    -0.244 OA
ENDROOT
BRANCH   1   4
ATOM      3  C   UNL A   1     -23.575  -2.303  28.977  0.00  0.00    +0.022 A 
ATOM      4  C   UNL A   1     -23.958  -1.384  29.320  0.00  0.00    +0.090 A 
ATOM      5  C   UNL A   1     -24.468  -3.425  29.038  0.00  0.00    +0.099 A 
ATOM      6  C   UNL A   1     -25.660  -3.375  29.642  0.00  0.00    +0.234 A 
ATOM      7  C   UNL A   1     -25.201  -1.102  30.024  0.00  0.00    +0.095 A 
ATOM      8  C   UNL A   1     -26.029  -2.135  30.109  0.00  0.00    +0.190 A 
ATOM      9 CL   UNL A   1     -23.898  -4.937  28.345  0.00  0.00    -0.079 Cl
ATOM     10 CL   UNL A   1     -25.576   0.507  30.600  0.00  0.00    -0.080 Cl
ATOM     11  F   UNL A   1     -27.189  -2.007  30.747  0.00  0.00    -0.200 F 
ATOM     12  O   UNL A   1     -26.402  -4.477  29.687  0.00  0.00    -0.283 OA
ENDBRANCH   1   4
BRANCH   1  13
ATOM     13  O   UNL A   1     -22.840   0.328  27.881  0.00  0.00    -0.386 OA
BRANCH  13  14
ATOM     14  C   UNL A   1     -23.730   1.370  27.589  0.00  0.00    +0.348 C 
ATOM     15  O   UNL A   1     -23.774   2.412  28.176  0.00  0.00    -0.244 OA
BRANCH  14  16
ATOM     16  C   UNL A   1     -24.926   0.962  26.769  0.00  0.00    +0.076 A 
ATOM     17  C   UNL A   1     -26.175   1.213  27.114  0.00  0.00    +0.007 A 
ATOM     18  C   UNL A   1     -24.638   0.428  25.427  0.00  0.00    +0.007 A 
ATOM     19  C   UNL A   1     -25.730   0.038  24.658  0.00  0.00    +0.012 A 
ATOM     20  C   UNL A   1     -27.036   0.398  24.966  0.00  0.00    +0.058 A 
ATOM     21  C   UNL A   1     -27.262   0.951  26.218  0.00  0.00    +0.012 A 
ATOM     22 CL   UNL A   1     -28.291   0.068  23.922  0.00  0.00    -0.082 Cl
ENDBRANCH  14  16
ENDBRANCH  13  14
ENDBRANCH   1  13
TORSDOF 4
ENDMDL
ENDMDL
