MODEL 29
MODEL 1
REMARK VINA RESULT:    -6.765      0.000      0.000
REMARK INTER + INTRA:          -7.480
REMARK INTER:                  -7.161
REMARK INTRA:                  -0.319
REMARK UNBOUND:                -0.319
REMARK  Name = No_29-gen_results/8p0m/2024-11-27-11-27-31/
REMARK  1 active torsions:
REMARK  status: ('A' for Active; 'I' for Inactive)
REMARK    1  A    between atoms: C_2  and  C_8
REMARK                            x       y       z     vdW  Elec       q    Type
REMARK                         _______ _______ _______ _____ _____    ______ ____
ROOT
ATOM      1  C   UNL A   1     -25.630  -2.540  29.554  0.00  0.00    +0.011 A 
ATOM      2  C   UNL A   1     -24.510  -2.569  29.101  0.00  0.00    +0.001 A 
ATOM      3  C   UNL A   1     -23.917  -3.769  28.726  0.00  0.00    +0.000 A 
ATOM      4  C   UNL A   1     -24.603  -5.023  28.909  0.00  0.00    +0.001 A 
ATOM      5  C   UNL A   1     -25.884  -4.900  29.461  0.00  0.00    +0.011 A 
ATOM      6  C   UNL A   1     -26.393  -3.741  29.815  0.00  0.00    +0.058 A 
ATOM      7 CL   UNL A   1     -27.938  -3.716  30.530  0.00  0.00    -0.082 Cl
ENDROOT
BRANCH   2   8
ATOM      8  C   UNL A   1     -23.642  -1.374  28.872  0.00  0.00    +0.000 A 
ATOM      9  C   UNL A   1     -22.528  -1.124  29.177  0.00  0.00    +0.000 A 
ATOM     10  C   UNL A   1     -21.745   0.042  28.797  0.00  0.00    +0.000 A 
ATOM     11  C   UNL A   1     -22.359   0.977  27.955  0.00  0.00    +0.000 A 
ATOM     12  C   UNL A   1     -24.271  -0.367  27.935  0.00  0.00    +0.000 A 
ATOM     13  C   UNL A   1     -23.619   0.720  27.541  0.00  0.00    +0.000 A 
ENDBRANCH   2   8
TORSDOF 1
ENDMDL
ENDMDL
