REMARK  Name = outputs/IAG933/test6/raw/output_30_IAG933_linker_design_.xyz
REMARK  12 active torsions:
REMARK  status: ('A' for Active; 'I' for Inactive)
REMARK    1  A    between atoms: C_1  and  C_2
REMARK    2  A    between atoms: C_1  and  C_8
REMARK    3  A    between atoms: C_1  and  N_33
REMARK    4  A    between atoms: C_14  and  C_15
REMARK    5  A    between atoms: C_15  and  O_18
REMARK    6  A    between atoms: O_18  and  C_29
REMARK    7  A    between atoms: C_21  and  O_22
REMARK    8  A    between atoms: O_22  and  C_23
REMARK    9  A    between atoms: C_23  and  C_24
REMARK   10  A    between atoms: O_28  and  C_29
REMARK   11  A    between atoms: C_31  and  C_36
REMARK   12  A    between atoms: N_34  and  C_40
REMARK                            x       y       z     vdW  Elec       q    Type
REMARK                         _______ _______ _______ _____ _____    ______ ____
ROOT
ATOM      1  C   UNL A   1     -21.598   2.059  26.613  0.00  0.00    +0.153 C 
ATOM      2  C   UNL A   1     -22.845   2.536  26.384  0.00  0.00    +0.355 C 
ATOM      3  C   UNL A   1     -22.414   1.078  28.726  0.00  0.00    +0.221 C 
ATOM      4  O   UNL A   1     -23.323   3.080  25.324  0.00  0.00    -0.243 OA
ATOM      5  C   UNL A   1     -21.335   1.523  27.891  0.00  0.00    +0.193 C 
ATOM      6  C   UNL A   1     -23.561   1.895  28.682  0.00  0.00    +0.363 C 
ATOM      7  F   UNL A   1     -20.074   1.593  28.245  0.00  0.00    -0.235 F 
ATOM      8  N   UNL A   1     -23.760   2.465  27.525  0.00  0.00    +0.029 NA
ENDROOT
BRANCH   3   9
ATOM      9  C   UNL A   1     -22.660  -0.093  29.453  0.00  0.00    +0.256 C 
ATOM     10  N   UNL A   1     -23.726  -0.376  29.757  0.00  0.00    -0.201 NA
ATOM     11  O   UNL A   1     -21.945  -1.052  29.798  0.00  0.00    -0.273 OA
BRANCH  10  12
ATOM     12  C   UNL A   1     -24.855  -1.012  30.143  0.00  0.00    +0.133 C 
BRANCH  12  13
ATOM     13  C   UNL A   1     -24.973  -2.505  29.788  0.00  0.00    -0.001 C 
ATOM     14  C   UNL A   1     -23.906  -3.173  29.146  0.00  0.00    -0.003 C 
ATOM     15  C   UNL A   1     -23.989  -4.549  28.853  0.00  0.00    -0.000 C 
ATOM     16  C   UNL A   1     -25.137  -5.280  29.205  0.00  0.00    -0.000 C 
ATOM     17  C   UNL A   1     -26.232  -4.611  29.784  0.00  0.00    -0.000 C 
ATOM     18  C   UNL A   1     -26.155  -3.232  30.065  0.00  0.00    -0.003 C 
ENDBRANCH  12  13
BRANCH  12  19
ATOM     19  C   UNL A   1     -25.387  -0.679  31.571  0.00  0.00    +0.097 C 
ATOM     20  C   UNL A   1     -25.189   0.773  32.028  0.00  0.00    +0.021 C 
ATOM     21  C   UNL A   1     -25.336   0.684  33.544  0.00  0.00    +0.020 C 
ATOM     22  C   UNL A   1     -24.829  -0.715  33.905  0.00  0.00    +0.089 C 
ATOM     23  N   UNL A   1     -24.758  -1.481  32.646  0.00  0.00    -0.217 NA
ENDBRANCH  12  19
ENDBRANCH  10  12
ENDBRANCH   3   9
BRANCH   6  25
ATOM     24  C   UNL A   1     -25.176   3.313  29.412  0.00  0.00    +0.519 C 
ATOM     25  N   UNL A   1     -24.486   2.191  29.598  0.00  0.00    +0.035 NA
BRANCH  24  26
ATOM     26  O   UNL A   1     -25.951   3.727  30.470  0.00  0.00    -0.410 OA
ATOM     27  C   UNL A   1     -27.107   4.588  30.404  0.00  0.00    +0.260 C 
ENDBRANCH  24  26
BRANCH  24  28
ATOM     28  O   UNL A   1     -25.143   3.966  28.243  0.00  0.00    -0.372 OA
BRANCH  28  29
ATOM     29  C   UNL A   1     -25.642   4.093  27.123  0.00  0.00    +0.234 C 
ATOM     30  N   UNL A   1     -25.614   5.252  26.449  0.00  0.00    -0.235 NA
ATOM     31  C   UNL A   1     -25.026   6.479  26.963  0.00  0.00    +0.155 C 
BRANCH  29  33
ATOM     32  C   UNL A   1     -25.688   1.614  26.461  0.00  0.00    +0.041 C 
ATOM     33  C   UNL A   1     -26.250   2.920  26.395  0.00  0.00    +0.075 C 
ATOM     34  C   UNL A   1     -27.438   3.091  25.645  0.00  0.00    +0.107 C 
ATOM     35  N   UNL A   1     -28.075   2.089  25.003  0.00  0.00    -0.208 NA
ATOM     36  C   UNL A   1     -27.543   0.849  25.079  0.00  0.00    +0.253 C 
ATOM     37  C   UNL A   1     -26.354   0.576  25.777  0.00  0.00    +0.193 C 
ATOM     38  F   UNL A   1     -25.860  -0.681  25.795  0.00  0.00    -0.199 F 
BRANCH  36  39
ATOM     39  O   UNL A   1     -28.193  -0.208  24.477  0.00  0.00    -0.456 OA
BRANCH  39  40
ATOM     40  C   UNL A   1     -29.460   0.005  23.866  0.00  0.00    +0.243 C 
BRANCH  40  41
ATOM     41  C   UNL A   1     -30.065  -1.377  23.573  0.00  0.00    +0.229 C 
ATOM     42  O   UNL A   1     -30.729  -1.878  24.721  0.00  0.00    -0.216 OA
ENDBRANCH  40  41
ENDBRANCH  39  40
ENDBRANCH  36  39
ENDBRANCH  29  33
ENDBRANCH  28  29
ENDBRANCH  24  28
ENDBRANCH   6  25
TORSDOF 12
