MODEL 3000
MODEL 1
REMARK VINA RESULT:    -7.484      0.000      0.000
REMARK INTER + INTRA:         -13.675
REMARK INTER:                 -10.546
REMARK INTRA:                  -3.129
REMARK UNBOUND:                -3.129
REMARK  Name = No_3000-gen_results/8p0m/2024-11-27-11-27-31/
REMARK  7 active torsions:
REMARK  status: ('A' for Active; 'I' for Inactive)
REMARK    1  A    between atoms: C_2  and  N_7
REMARK    2  A    between atoms: C_4  and  C_24
REMARK    3  A    between atoms: N_7  and  C_8
REMARK    4  A    between atoms: N_7  and  C_9
REMARK    5  A    between atoms: C_8  and  C_14
REMARK    6  A    between atoms: C_8  and  C_15
REMARK    7  A    between atoms: C_26  and  N_27
REMARK                            x       y       z     vdW  Elec       q    Type
REMARK                         _______ _______ _______ _____ _____    ______ ____
ROOT
ATOM      1  C   UNL A   1     -27.598   2.295  28.352  0.00  0.00    +0.015 A 
ATOM      2  C   UNL A   1     -26.412   2.464  28.518  0.00  0.00    +0.049 A 
ATOM      3  C   UNL A   1     -25.731   2.036  29.611  0.00  0.00    +0.015 A 
ATOM      4  C   UNL A   1     -26.442   1.355  30.617  0.00  0.00    +0.002 A 
ATOM      5  C   UNL A   1     -28.368   1.524  29.294  0.00  0.00    +0.001 A 
ATOM      6  C   UNL A   1     -27.737   1.097  30.424  0.00  0.00    +0.000 A 
ENDROOT
BRANCH   4   7
ATOM      7  C   UNL A   1     -25.873   0.619  31.769  0.00  0.00    +0.013 A 
ATOM      8  C   UNL A   1     -25.756   1.160  32.907  0.00  0.00    +0.001 A 
ATOM      9  C   UNL A   1     -24.940  -0.432  31.404  0.00  0.00    +0.048 A 
ATOM     10  C   UNL A   1     -25.425   0.423  33.993  0.00  0.00    +0.000 A 
ATOM     11  C   UNL A   1     -24.599  -0.688  33.863  0.00  0.00    +0.001 A 
ATOM     12  C   UNL A   1     -24.386  -1.164  32.610  0.00  0.00    +0.015 A 
BRANCH   9  13
ATOM     13  N   UNL A   1     -24.813  -1.023  30.558  0.00  0.00    -0.307 N 
ATOM     14  C   UNL A   1     -23.620  -1.549  30.252  0.00  0.00    +0.091 C 
ATOM     15  C   UNL A   1     -23.549  -2.540  29.163  0.00  0.00    +0.021 C 
ATOM     16  C   UNL A   1     -25.804  -2.245  30.536  0.00  0.00    +0.091 C 
ATOM     17  C   UNL A   1     -25.779  -3.043  29.314  0.00  0.00    +0.021 C 
ATOM     18  C   UNL A   1     -24.475  -3.559  29.092  0.00  0.00    +0.004 C 
ENDBRANCH   9  13
ENDBRANCH   4   7
BRANCH   2  19
ATOM     19  N   UNL A   1     -25.602   3.132  27.567  0.00  0.00    -0.298 N 
BRANCH  19  20
ATOM     20  C   UNL A   1     -25.399   4.576  27.647  0.00  0.00    +0.139 C 
ATOM     21  C   UNL A   1     -25.693   5.416  28.328  0.00  0.00    +0.020 C 
ATOM     22  C   UNL A   1     -25.257   6.745  28.299  0.00  0.00    +0.096 C 
ATOM     23  N   UNL A   1     -24.742   6.920  27.084  0.00  0.00    -0.245 NA
ATOM     24  C   UNL A   1     -24.799   5.337  26.452  0.00  0.00    +0.097 C 
ENDBRANCH  19  20
BRANCH  19  25
ATOM     25  C   UNL A   1     -25.230   2.667  26.339  0.00  0.00    +0.100 C 
BRANCH  25  26
ATOM     26  C   UNL A   1     -24.094   1.754  26.485  0.00  0.00    +0.066 C 
ATOM     27  C   UNL A   1     -22.870   2.237  26.077  0.00  0.00    -0.020 C 
ATOM     28  C   UNL A   1     -21.946   1.861  27.023  0.00  0.00    -0.004 C 
ATOM     29  C   UNL A   1     -22.210   0.765  27.825  0.00  0.00    -0.004 C 
ATOM     30  C   UNL A   1     -23.934   0.572  27.255  0.00  0.00    -0.020 C 
ENDBRANCH  25  26
BRANCH  25  31
ATOM     31  C   UNL A   1     -26.308   1.851  25.580  0.00  0.00    -0.021 C 
ATOM     32  C   UNL A   1     -26.298   0.942  25.096  0.00  0.00    -0.007 C 
ATOM     33  C   UNL A   1     -27.314   0.240  24.212  0.00  0.00    -0.005 C 
ATOM     34  C   UNL A   1     -28.206   1.319  23.853  0.00  0.00    -0.022 C 
ATOM     35  C   UNL A   1     -27.535   2.544  24.801  0.00  0.00    +0.050 C 
ENDBRANCH  25  31
ENDBRANCH  19  25
ENDBRANCH   2  19
TORSDOF 7
ENDMDL
ENDMDL
