REMARK  Name = outputs/IAG933/test6/raw/output_3001_IAG933_linker_design_.xyz
REMARK  5 active torsions:
REMARK  status: ('A' for Active; 'I' for Inactive)
REMARK    1  A    between atoms: C_1  and  C_2
REMARK    2  A    between atoms: C_1  and  C_8
REMARK    3  A    between atoms: C_1  and  C_42
REMARK    4  A    between atoms: C_14  and  C_15
REMARK    5  A    between atoms: C_32  and  C_44
REMARK                            x       y       z     vdW  Elec       q    Type
REMARK                         _______ _______ _______ _____ _____    ______ ____
ROOT
ATOM      1  C   UNL A   1     -25.688   1.614  26.461  0.00  0.00    +0.040 C 
ATOM      2  C   UNL A   1     -26.250   2.920  26.395  0.00  0.00    +0.077 C 
ATOM      3  C   UNL A   1     -27.438   3.091  25.645  0.00  0.00    +0.107 C 
ATOM      4  N   UNL A   1     -28.075   2.089  25.003  0.00  0.00    -0.208 NA
ATOM      5  C   UNL A   1     -27.543   0.849  25.079  0.00  0.00    +0.253 C 
ATOM      6  O   UNL A   1     -28.193  -0.208  24.477  0.00  0.00    -0.456 OA
ATOM      7  C   UNL A   1     -29.460   0.005  23.866  0.00  0.00    +0.239 C 
ATOM      8  C   UNL A   1     -30.065  -1.377  23.573  0.00  0.00    +0.189 C 
ATOM      9  O   UNL A   1     -30.729  -1.878  24.721  0.00  0.00    -0.350 OA
ATOM     10  C   UNL A   1     -26.354   0.576  25.777  0.00  0.00    +0.193 C 
ATOM     11  F   UNL A   1     -25.860  -0.681  25.795  0.00  0.00    -0.199 F 
ATOM     12  N   UNL A   1     -23.096   0.284  28.928  0.00  0.00    -0.246 NA
ATOM     13  C   UNL A   1     -23.203   1.625  26.475  0.00  0.00    +0.060 C 
ATOM     14  O   UNL A   1     -26.869  -0.176  28.524  0.00  0.00    -0.348 OA
ATOM     15  N   UNL A   1     -30.268  -0.772  28.778  0.00  0.00    -0.238 NA
ATOM     16  C   UNL A   1     -32.264  -1.472  26.748  0.00  0.00    +0.060 C 
ATOM     17  C   UNL A   1     -31.828  -1.163  25.290  0.00  0.00    +0.144 C 
ATOM     18  C   UNL A   1     -28.042  -0.003  29.362  0.00  0.00    +0.163 C 
ATOM     19  C   UNL A   1     -24.404   1.305  27.147  0.00  0.00    +0.029 C 
ATOM     20  O   UNL A   1     -29.246  -2.402  29.998  0.00  0.00    -0.202 OA
ATOM     21  C   UNL A   1     -30.295   0.680  28.852  0.00  0.00    +0.077 C 
ATOM     22  C   UNL A   1     -22.003   1.503  27.142  0.00  0.00    +0.032 C 
ATOM     23  C   UNL A   1     -25.533  -0.035  29.169  0.00  0.00    +0.160 C 
ATOM     24  C   UNL A   1     -28.937  -1.279  29.174  0.00  0.00    +0.240 C 
ATOM     25  C   UNL A   1     -31.199  -1.643  27.922  0.00  0.00    +0.166 C 
ATOM     26  C   UNL A   1     -28.870   1.245  28.904  0.00  0.00    +0.051 C 
ATOM     27  C   UNL A   1     -21.955   0.842  28.374  0.00  0.00    +0.099 C 
ATOM     28 CL   UNL A   1     -23.169   2.114  24.826  0.00  0.00    -0.082 Cl
ATOM     29  C   UNL A   1     -24.340   0.495  28.356  0.00  0.00    +0.087 C 
ENDROOT
BRANCH   2  30
ATOM     30  C   UNL A   1     -25.642   4.093  27.123  0.00  0.00    +0.266 C 
ATOM     31  N   UNL A   1     -25.614   5.252  26.449  0.00  0.00    -0.200 NA
ATOM     32  C   UNL A   1     -25.026   6.479  26.963  0.00  0.00    +0.139 C 
ATOM     33  O   UNL A   1     -25.143   3.966  28.243  0.00  0.00    -0.268 OA
ENDBRANCH   2  30
BRANCH  25  35
ATOM     34  O   UNL A   1     -32.842  -1.710  29.643  0.00  0.00    -0.244 OA
ATOM     35  C   UNL A   1     -31.993  -2.390  29.033  0.00  0.00    +0.379 C 
ATOM     36  O   UNL A   1     -31.740  -3.568  29.208  0.00  0.00    -0.244 OA
ENDBRANCH  25  35
BRANCH  23  37
ATOM     37  C   UNL A   1     -24.855  -1.012  30.143  0.00  0.00    +0.071 C 
BRANCH  37  38
ATOM     38  C   UNL A   1     -24.973  -2.505  29.788  0.00  0.00    -0.018 C 
ATOM     39  C   UNL A   1     -23.906  -3.173  29.146  0.00  0.00    -0.004 C 
ATOM     40  C   UNL A   1     -23.989  -4.549  28.853  0.00  0.00    -0.000 C 
ATOM     41  C   UNL A   1     -25.137  -5.280  29.205  0.00  0.00    -0.000 C 
ATOM     42  C   UNL A   1     -26.232  -4.611  29.784  0.00  0.00    -0.000 C 
ATOM     43  C   UNL A   1     -26.155  -3.232  30.065  0.00  0.00    -0.004 C 
ENDBRANCH  37  38
BRANCH  37  44
ATOM     44  C   UNL A   1     -25.387  -0.679  31.571  0.00  0.00    +0.080 C 
ATOM     45  C   UNL A   1     -25.189   0.773  32.028  0.00  0.00    +0.019 C 
ATOM     46  C   UNL A   1     -25.336   0.684  33.544  0.00  0.00    +0.020 C 
ATOM     47  C   UNL A   1     -24.829  -0.715  33.905  0.00  0.00    +0.089 C 
ATOM     48  N   UNL A   1     -24.758  -1.481  32.646  0.00  0.00    -0.219 NA
ENDBRANCH  37  44
ENDBRANCH  23  37
TORSDOF 5
