REMARK  Name = No_3003-gen_results/8p0m/2024-11-27-11-27-31/
REMARK  2 active torsions:
REMARK  status: ('A' for Active; 'I' for Inactive)
REMARK    1  A    between atoms: C_1  and  C_2
REMARK    2  A    between atoms: C_5  and  C_10
REMARK                            x       y       z     vdW  Elec       q    Type
REMARK                         _______ _______ _______ _____ _____    ______ ____
ROOT
ATOM      1  C   UNL A   1     -27.064  -0.119  28.608  0.00  0.00    +0.044 A 
ATOM      2  C   UNL A   1     -25.765  -0.390  29.036  0.00  0.00    +0.001 A 
ATOM      3  C   UNL A   1     -24.552   0.406  28.765  0.00  0.00    +0.006 A 
ATOM      4  C   UNL A   1     -24.696   1.448  27.799  0.00  0.00    +0.080 A 
ATOM      5  C   UNL A   1     -25.976   1.725  27.308  0.00  0.00    +0.006 A 
ATOM      6  C   UNL A   1     -27.072   1.013  27.654  0.00  0.00    +0.001 A 
ENDROOT
BRANCH   1   7
ATOM      7  C   UNL A   1     -28.016  -0.814  28.878  0.00  0.00    +0.341 C 
ATOM      8  F   UNL A   1     -27.875  -2.019  29.190  0.00  0.00    -0.193 F 
ATOM      9  F   UNL A   1     -28.992  -0.824  27.902  0.00  0.00    -0.193 F 
ENDBRANCH   1   7
BRANCH   4  10
ATOM     10  C   UNL A   1     -23.487   2.211  27.514  0.00  0.00    +0.388 C 
ATOM     11  O   UNL A   1     -23.570   3.172  26.739  0.00  0.00    -0.241 OA
ATOM     12  O   UNL A   1     -22.363   2.040  28.153  0.00  0.00    -0.241 OA
ENDBRANCH   4  10
TORSDOF 2
