MODEL 3003
MODEL 1
REMARK VINA RESULT:    -5.701      0.000      0.000
REMARK INTER + INTRA:          -6.537
REMARK INTER:                  -6.368
REMARK INTRA:                  -0.169
REMARK UNBOUND:                -0.169
REMARK  Name = No_3003-gen_results/8p0m/2024-11-27-11-27-31/
REMARK  2 active torsions:
REMARK  status: ('A' for Active; 'I' for Inactive)
REMARK    1  A    between atoms: C_1  and  C_2
REMARK    2  A    between atoms: C_5  and  C_10
REMARK                            x       y       z     vdW  Elec       q    Type
REMARK                         _______ _______ _______ _____ _____    ______ ____
ROOT
ATOM      1  C   UNL A   1     -29.655 -10.862  30.140  0.00  0.00    +0.044 A 
ATOM      2  C   UNL A   1     -28.622 -11.790  30.271  0.00  0.00    +0.001 A 
ATOM      3  C   UNL A   1     -27.879 -12.131  31.500  0.00  0.00    +0.006 A 
ATOM      4  C   UNL A   1     -28.109 -11.277  32.621  0.00  0.00    +0.080 A 
ATOM      5  C   UNL A   1     -29.106 -10.302  32.519  0.00  0.00    +0.006 A 
ATOM      6  C   UNL A   1     -29.817 -10.085  31.390  0.00  0.00    +0.001 A 
ENDROOT
BRANCH   1   7
ATOM      7  C   UNL A   1     -30.228 -10.641  29.099  0.00  0.00    +0.341 C 
ATOM      8  F   UNL A   1     -29.688 -10.882  27.994  0.00  0.00    -0.193 F 
ATOM      9  F   UNL A   1     -30.686  -9.344  28.981  0.00  0.00    -0.193 F 
ENDBRANCH   1   7
BRANCH   4  10
ATOM     10  C   UNL A   1     -27.350 -11.602  33.823  0.00  0.00    +0.388 C 
ATOM     11  O   UNL A   1     -26.806 -12.711  33.890  0.00  0.00    -0.241 OA
ATOM     12  O   UNL A   1     -27.076 -10.732  34.755  0.00  0.00    -0.241 OA
ENDBRANCH   4  10
TORSDOF 2
ENDMDL
ENDMDL
