MODEL 3006
MODEL 1
REMARK VINA RESULT:    -6.945      0.000      0.000
REMARK INTER + INTRA:          -6.945
REMARK INTER:                  -6.945
REMARK INTRA:                   0.000
REMARK UNBOUND:                 0.000
REMARK  Name = No_3006-gen_results/8p0m/2024-11-27-11-27-31/
REMARK  0 active torsions:
REMARK  status: ('A' for Active; 'I' for Inactive)
REMARK                            x       y       z     vdW  Elec       q    Type
REMARK                         _______ _______ _______ _____ _____    ______ ____
ROOT
ATOM      1  C   UNL A   1     -24.284  -3.877  28.977  0.00  0.00    +0.033 A 
ATOM      2  C   UNL A   1     -24.679  -2.939  29.252  0.00  0.00    +0.037 A 
ATOM      3  C   UNL A   1     -25.179  -4.995  29.078  0.00  0.00    +0.140 A 
ATOM      4  C   UNL A   1     -26.388  -4.913  29.640  0.00  0.00    +0.029 A 
ATOM      5  C   UNL A   1     -25.943  -2.620  29.899  0.00  0.00    -0.015 A 
ATOM      6  C   UNL A   1     -26.773  -3.647  30.021  0.00  0.00    -0.002 A 
ATOM      7  F   UNL A   1     -24.682  -6.206  28.645  0.00  0.00    -0.204 F 
ATOM      8  C   UNL A   1     -26.273  -1.192  30.298  0.00  0.00    +0.053 C 
ATOM      9  C   UNL A   1     -25.517  -0.335  30.527  0.00  0.00    -0.015 A 
ATOM     10  C   UNL A   1     -25.923   0.948  31.052  0.00  0.00    -0.004 A 
ATOM     11  C   UNL A   1     -25.041   2.007  31.286  0.00  0.00    -0.000 A 
ATOM     12  C   UNL A   1     -23.673   1.778  31.004  0.00  0.00    +0.000 A 
ATOM     13  C   UNL A   1     -23.191   0.591  30.503  0.00  0.00    +0.003 A 
ATOM     14  C   UNL A   1     -24.098  -0.430  30.214  0.00  0.00    +0.035 A 
ATOM     15  C   UNL A   1     -23.668  -1.638  29.382  0.00  0.00    +0.195 C 
ATOM     16  O   UNL A   1     -22.540  -1.721  28.892  0.00  0.00    -0.287 OA
ENDROOT
TORSDOF 0
ENDMDL
ENDMDL
