MODEL 300
MODEL 1
REMARK VINA RESULT:    -7.638      0.000      0.000
REMARK INTER + INTRA:          -8.422
REMARK INTER:                  -8.084
REMARK INTRA:                  -0.338
REMARK UNBOUND:                -0.338
REMARK  Name = No_300-gen_results/8p0m/2024-11-27-11-27-31/
REMARK  1 active torsions:
REMARK  status: ('A' for Active; 'I' for Inactive)
REMARK    1  A    between atoms: C_7  and  C_9
REMARK                            x       y       z     vdW  Elec       q    Type
REMARK                         _______ _______ _______ _____ _____    ______ ____
ROOT
ATOM      1  C   UNL A   1     -25.703  -0.725  27.255  0.00  0.00    +0.003 A 
ATOM      2  C   UNL A   1     -25.155  -0.354  28.075  0.00  0.00    +0.031 A 
ATOM      3  C   UNL A   1     -26.599   0.226  26.577  0.00  0.00    +0.000 A 
ATOM      4  C   UNL A   1     -26.600   1.605  26.939  0.00  0.00    +0.001 A 
ATOM      5  C   UNL A   1     -24.936   1.018  28.609  0.00  0.00    +0.053 A 
ATOM      6  C   UNL A   1     -25.757   1.927  28.011  0.00  0.00    +0.015 A 
ATOM      7  C   UNL A   1     -24.296  -1.494  28.729  0.00  0.00    +0.082 C 
ATOM      8  N   UNL A   1     -23.079  -1.451  28.891  0.00  0.00    -0.244 NA
ATOM      9  C   UNL A   1     -22.380  -0.252  28.588  0.00  0.00    +0.095 A 
ATOM     10  C   UNL A   1     -20.901  -0.391  28.714  0.00  0.00    +0.020 A 
ATOM     11  C   UNL A   1     -20.210   0.550  28.235  0.00  0.00    +0.002 A 
ATOM     12  C   UNL A   1     -20.738   1.801  27.626  0.00  0.00    +0.001 A 
ATOM     13  C   UNL A   1     -22.094   1.802  27.407  0.00  0.00    +0.016 A 
ATOM     14  C   UNL A   1     -22.893   0.793  27.853  0.00  0.00    +0.070 A 
ATOM     15  N   UNL A   1     -24.159   1.202  27.973  0.00  0.00    -0.284 N 
ATOM     16  C   UNL A   1     -24.274   2.205  26.845  0.00  0.00    +0.117 C 
ENDROOT
BRANCH   7  17
ATOM     17  C   UNL A   1     -25.000  -2.652  29.143  0.00  0.00    +0.018 A 
ATOM     18  C   UNL A   1     -26.264  -2.653  29.745  0.00  0.00    +0.002 A 
ATOM     19  C   UNL A   1     -26.866  -3.910  30.034  0.00  0.00    +0.000 A 
ATOM     20  C   UNL A   1     -26.174  -5.072  29.671  0.00  0.00    +0.000 A 
ATOM     21  C   UNL A   1     -24.998  -5.002  29.050  0.00  0.00    +0.000 A 
ATOM     22  C   UNL A   1     -24.372  -3.843  28.753  0.00  0.00    +0.002 A 
ENDBRANCH   7  17
TORSDOF 1
ENDMDL
ENDMDL
