MODEL 3012
MODEL 1
REMARK VINA RESULT:    -5.662      0.000      0.000
REMARK INTER + INTRA:          -6.024
REMARK INTER:                  -5.992
REMARK INTRA:                  -0.031
REMARK UNBOUND:                -0.031
REMARK  Name = No_3012-gen_results/8p0m/2024-11-27-11-27-31/
REMARK  1 active torsions:
REMARK  status: ('A' for Active; 'I' for Inactive)
REMARK    1  A    between atoms: C_4  and  C_7
REMARK                            x       y       z     vdW  Elec       q    Type
REMARK                         _______ _______ _______ _____ _____    ______ ____
ROOT
ATOM      1  C   UNL A   1     -26.642  -3.948  29.914  0.00  0.00    +0.068 C 
ATOM      2  C   UNL A   1     -26.221  -4.863  29.604  0.00  0.00    +0.008 C 
ATOM      3  C   UNL A   1     -25.759  -2.771  29.880  0.00  0.00    +0.188 C 
ATOM      4  C   UNL A   1     -24.452  -2.861  29.319  0.00  0.00    +0.270 C 
ATOM      5  C   UNL A   1     -24.063  -4.108  28.899  0.00  0.00    +0.049 C 
ATOM      6  C   UNL A   1     -24.905  -5.160  28.977  0.00  0.00    +0.004 C 
ATOM      7  F   UNL A   1     -24.611  -2.516  28.371  0.00  0.00    -0.224 F 
ATOM      8  O   UNL A   1     -26.128  -1.655  30.534  0.00  0.00    -0.293 OA
ENDROOT
BRANCH   4   9
ATOM      9  C   UNL A   1     -23.581  -1.716  29.260  0.00  0.00    +0.431 C 
ATOM     10  F   UNL A   1     -22.582  -1.954  28.783  0.00  0.00    -0.167 F 
ATOM     11  F   UNL A   1     -24.151  -0.636  28.608  0.00  0.00    -0.167 F 
ATOM     12  F   UNL A   1     -23.336  -1.254  30.533  0.00  0.00    -0.167 F 
ENDBRANCH   4   9
TORSDOF 1
ENDMDL
ENDMDL
