REMARK  Name = outputs/IAG933/test6/raw/output_3013_IAG933_linker_design_.xyz
REMARK  12 active torsions:
REMARK  status: ('A' for Active; 'I' for Inactive)
REMARK    1  A    between atoms: C_1  and  C_2
REMARK    2  A    between atoms: C_1  and  C_8
REMARK    3  A    between atoms: C_1  and  C_32
REMARK    4  A    between atoms: C_13  and  C_28
REMARK    5  A    between atoms: C_14  and  C_15
REMARK    6  A    between atoms: C_21  and  O_22
REMARK    7  A    between atoms: O_22  and  C_23
REMARK    8  A    between atoms: C_23  and  C_24
REMARK    9  A    between atoms: C_28  and  C_32
REMARK   10  A    between atoms: C_28  and  C_35
REMARK   11  A    between atoms: C_32  and  C_37
REMARK   12  A    between atoms: C_34  and  O_39
REMARK                            x       y       z     vdW  Elec       q    Type
REMARK                         _______ _______ _______ _____ _____    ______ ____
ROOT
ATOM      1  C   UNL A   1     -24.725   1.250  27.435  0.00  0.00    +0.026 C 
ENDROOT
BRANCH   1   2
ATOM      2  C   UNL A   1     -25.688   1.614  26.461  0.00  0.00    +0.071 C 
ATOM      3  C   UNL A   1     -26.250   2.920  26.395  0.00  0.00    +0.055 C 
ATOM      4  C   UNL A   1     -27.438   3.091  25.645  0.00  0.00    +0.102 C 
ATOM      5  N   UNL A   1     -28.075   2.089  25.003  0.00  0.00    -0.212 NA
ATOM      6  C   UNL A   1     -27.543   0.849  25.079  0.00  0.00    +0.234 C 
ATOM      7  C   UNL A   1     -26.354   0.576  25.777  0.00  0.00    +0.240 C 
ATOM      8  F   UNL A   1     -25.860  -0.681  25.795  0.00  0.00    -0.227 F 
BRANCH   3   9
ATOM      9  C   UNL A   1     -25.642   4.093  27.123  0.00  0.00    +0.262 C 
ATOM     10  N   UNL A   1     -25.614   5.252  26.449  0.00  0.00    -0.200 NA
ATOM     11  C   UNL A   1     -25.026   6.479  26.963  0.00  0.00    +0.139 C 
ATOM     12  O   UNL A   1     -25.143   3.966  28.243  0.00  0.00    -0.269 OA
ENDBRANCH   3   9
BRANCH   6  13
ATOM     13  O   UNL A   1     -28.193  -0.208  24.477  0.00  0.00    -0.459 OA
BRANCH  13  14
ATOM     14  C   UNL A   1     -29.460   0.005  23.866  0.00  0.00    +0.242 C 
BRANCH  14  15
ATOM     15  C   UNL A   1     -30.065  -1.377  23.573  0.00  0.00    +0.229 C 
ATOM     16  O   UNL A   1     -30.729  -1.878  24.721  0.00  0.00    -0.216 OA
ENDBRANCH  14  15
ENDBRANCH  13  14
ENDBRANCH   6  13
ENDBRANCH   1   2
BRANCH   1  21
ATOM     17  O   UNL A   1     -22.306  -0.174  29.164  0.00  0.00    -0.221 OA
ATOM     18  C   UNL A   1     -21.788   1.994  27.622  0.00  0.00    +0.181 C 
ATOM     19  F   UNL A   1     -21.445   1.958  25.451  0.00  0.00    -0.205 F 
ATOM     20  C   UNL A   1     -22.357   2.110  26.378  0.00  0.00    +0.280 C 
ATOM     21  C   UNL A   1     -23.422   0.767  27.166  0.00  0.00    +0.094 C 
ATOM     22  C   UNL A   1     -22.404   0.706  28.177  0.00  0.00    +0.180 C 
ATOM     23  N   UNL A   1     -20.526   1.697  27.819  0.00  0.00    -0.125 NA
BRANCH  20  25
ATOM     24  O   UNL A   1     -23.907   2.139  24.772  0.00  0.00    -0.032 OA
ATOM     25  O   UNL A   1     -23.401   2.825  25.879  0.00  0.00    -0.159 OA
ENDBRANCH  20  25
ENDBRANCH   1  21
BRANCH   1  26
ATOM     26  C   UNL A   1     -25.044   0.016  28.801  0.00  0.00    +0.109 C 
BRANCH  26  28
ATOM     27  O   UNL A   1     -26.776   1.415  29.242  0.00  0.00    -0.246 OA
ATOM     28  C   UNL A   1     -26.520   0.259  28.965  0.00  0.00    +0.365 C 
ATOM     29  O   UNL A   1     -27.272  -0.731  28.801  0.00  0.00    -0.246 OA
ENDBRANCH  26  28
BRANCH  26  30
ATOM     30  C   UNL A   1     -24.855  -1.012  30.143  0.00  0.00    +0.049 C 
BRANCH  30  31
ATOM     31  C   UNL A   1     -24.973  -2.505  29.788  0.00  0.00    -0.021 C 
ATOM     32  C   UNL A   1     -23.906  -3.173  29.146  0.00  0.00    -0.004 C 
ATOM     33  C   UNL A   1     -23.989  -4.549  28.853  0.00  0.00    -0.000 C 
ATOM     34  C   UNL A   1     -25.137  -5.280  29.205  0.00  0.00    -0.000 C 
ATOM     35  C   UNL A   1     -26.232  -4.611  29.784  0.00  0.00    -0.000 C 
ATOM     36  C   UNL A   1     -26.155  -3.232  30.065  0.00  0.00    -0.004 C 
ENDBRANCH  30  31
BRANCH  30  37
ATOM     37  C   UNL A   1     -25.387  -0.679  31.571  0.00  0.00    +0.077 C 
ATOM     38  C   UNL A   1     -25.189   0.773  32.028  0.00  0.00    +0.019 C 
ATOM     39  C   UNL A   1     -25.336   0.684  33.544  0.00  0.00    +0.020 C 
ATOM     40  C   UNL A   1     -24.829  -0.715  33.905  0.00  0.00    +0.089 C 
ATOM     41  N   UNL A   1     -24.758  -1.481  32.646  0.00  0.00    -0.219 NA
ENDBRANCH  30  37
ENDBRANCH  26  30
ENDBRANCH   1  26
TORSDOF 12
