MODEL 3013
MODEL 1
REMARK VINA RESULT:    -7.103      0.000      0.000
REMARK INTER + INTRA:          -7.103
REMARK INTER:                  -7.103
REMARK INTRA:                   0.000
REMARK UNBOUND:                 0.000
REMARK  Name = No_3013-gen_results/8p0m/2024-11-27-11-27-31/
REMARK  0 active torsions:
REMARK  status: ('A' for Active; 'I' for Inactive)
REMARK                            x       y       z     vdW  Elec       q    Type
REMARK                         _______ _______ _______ _____ _____    ______ ____
ROOT
ATOM      1  C   UNL A   1     -25.927  -0.622  25.973  0.00  0.00    -0.003 A 
ATOM      2  C   UNL A   1     -25.617   0.019  25.196  0.00  0.00    -0.001 A 
ATOM      3  C   UNL A   1     -25.256  -0.526  27.212  0.00  0.00    -0.004 A 
ATOM      4  C   UNL A   1     -25.639  -1.275  28.438  0.00  0.00    +0.055 C 
ATOM      5  C   UNL A   1     -24.556   1.040  25.141  0.00  0.00    -0.003 A 
ATOM      6  C   UNL A   1     -23.847   1.188  26.333  0.00  0.00    -0.009 A 
ATOM      7  C   UNL A   1     -24.205   0.447  27.413  0.00  0.00    +0.044 A 
ATOM      8  C   UNL A   1     -24.726  -1.248  29.537  0.00  0.00    -0.004 A 
ATOM      9  C   UNL A   1     -25.121  -1.463  30.737  0.00  0.00    -0.003 A 
ATOM     10  C   UNL A   1     -24.109  -1.213  31.879  0.00  0.00    -0.000 A 
ATOM     11  C   UNL A   1     -22.809  -0.795  31.538  0.00  0.00    +0.001 A 
ATOM     12  C   UNL A   1     -22.467  -0.667  30.227  0.00  0.00    +0.015 A 
ATOM     13  C   UNL A   1     -23.422  -0.761  29.204  0.00  0.00    +0.048 A 
ATOM     14  N   UNL A   1     -23.138  -0.002  28.111  0.00  0.00    -0.288 N 
ATOM     15  C   UNL A   1     -22.099   0.896  28.500  0.00  0.00    +0.096 C 
ATOM     16  C   UNL A   1     -21.609   1.690  27.548  0.00  0.00    +0.026 C 
ATOM     17  C   UNL A   1     -22.699   2.055  26.449  0.00  0.00    +0.029 C 
ENDROOT
TORSDOF 0
ENDMDL
ENDMDL
