REMARK  Name = outputs/IAG933/test6/raw/output_3014_IAG933_linker_design_.xyz
REMARK  14 active torsions:
REMARK  status: ('A' for Active; 'I' for Inactive)
REMARK    1  A    between atoms: C_1  and  C_2
REMARK    2  A    between atoms: C_1  and  C_8
REMARK    3  A    between atoms: C_1  and  S_33
REMARK    4  A    between atoms: C_13  and  N_31
REMARK    5  A    between atoms: C_14  and  C_15
REMARK    6  A    between atoms: C_21  and  O_22
REMARK    7  A    between atoms: O_22  and  C_23
REMARK    8  A    between atoms: C_23  and  C_24
REMARK    9  A    between atoms: C_30  and  N_31
REMARK   10  A    between atoms: C_30  and  C_37
REMARK   11  A    between atoms: N_31  and  C_34
REMARK   12  A    between atoms: S_33  and  C_34
REMARK   13  A    between atoms: S_33  and  N_40
REMARK   14  A    between atoms: C_38  and  N_40
REMARK                            x       y       z     vdW  Elec       q    Type
REMARK                         _______ _______ _______ _____ _____    ______ ____
ROOT
ATOM      1  S   UNL A   1     -25.581   0.014  28.901  0.00  0.00    +0.031 S 
ATOM      2  O   UNL A   1     -26.434  -0.756  28.022  0.00  0.00    -0.150 OA
ENDROOT
BRANCH   1   3
ATOM      3  C   UNL A   1     -24.855  -1.012  30.143  0.00  0.00    +0.114 C 
BRANCH   3   4
ATOM      4  C   UNL A   1     -24.973  -2.505  29.788  0.00  0.00    -0.009 C 
ATOM      5  C   UNL A   1     -23.906  -3.173  29.146  0.00  0.00    -0.003 C 
ATOM      6  C   UNL A   1     -23.989  -4.549  28.853  0.00  0.00    -0.000 C 
ATOM      7  C   UNL A   1     -25.137  -5.280  29.205  0.00  0.00    -0.000 C 
ATOM      8  C   UNL A   1     -26.232  -4.611  29.784  0.00  0.00    -0.000 C 
ATOM      9  C   UNL A   1     -26.155  -3.232  30.065  0.00  0.00    -0.003 C 
ENDBRANCH   3   4
BRANCH   3  10
ATOM     10  C   UNL A   1     -25.387  -0.679  31.571  0.00  0.00    +0.089 C 
ATOM     11  C   UNL A   1     -25.189   0.773  32.028  0.00  0.00    +0.020 C 
ATOM     12  C   UNL A   1     -25.336   0.684  33.544  0.00  0.00    +0.020 C 
ATOM     13  C   UNL A   1     -24.829  -0.715  33.905  0.00  0.00    +0.089 C 
ATOM     14  N   UNL A   1     -24.758  -1.481  32.646  0.00  0.00    -0.218 NA
ENDBRANCH   3  10
ENDBRANCH   1   3
BRANCH   1  15
ATOM     15  C   UNL A   1     -24.021   0.350  28.101  0.00  0.00    +0.180 C 
BRANCH  15  16
ATOM     16  N   UNL A   1     -24.396   1.344  27.037  0.00  0.00    -0.282 N 
BRANCH  16  17
ATOM     17  C   UNL A   1     -25.688   1.614  26.461  0.00  0.00    +0.088 C 
ATOM     18  C   UNL A   1     -26.250   2.920  26.395  0.00  0.00    +0.090 C 
ATOM     19  C   UNL A   1     -27.438   3.091  25.645  0.00  0.00    +0.108 C 
ATOM     20  N   UNL A   1     -28.075   2.089  25.003  0.00  0.00    -0.208 NA
ATOM     21  C   UNL A   1     -27.543   0.849  25.079  0.00  0.00    +0.255 C 
ATOM     22  C   UNL A   1     -26.354   0.576  25.777  0.00  0.00    +0.206 C 
ATOM     23  F   UNL A   1     -25.860  -0.681  25.795  0.00  0.00    -0.198 F 
BRANCH  18  24
ATOM     24  C   UNL A   1     -25.642   4.093  27.123  0.00  0.00    +0.268 C 
ATOM     25  N   UNL A   1     -25.614   5.252  26.449  0.00  0.00    -0.200 NA
ATOM     26  C   UNL A   1     -25.026   6.479  26.963  0.00  0.00    +0.139 C 
ATOM     27  O   UNL A   1     -25.143   3.966  28.243  0.00  0.00    -0.268 OA
ENDBRANCH  18  24
BRANCH  21  28
ATOM     28  O   UNL A   1     -28.193  -0.208  24.477  0.00  0.00    -0.456 OA
BRANCH  28  29
ATOM     29  C   UNL A   1     -29.460   0.005  23.866  0.00  0.00    +0.243 C 
BRANCH  29  30
ATOM     30  C   UNL A   1     -30.065  -1.377  23.573  0.00  0.00    +0.229 C 
ATOM     31  O   UNL A   1     -30.729  -1.878  24.721  0.00  0.00    -0.216 OA
ENDBRANCH  29  30
ENDBRANCH  28  29
ENDBRANCH  21  28
ENDBRANCH  16  17
BRANCH  16  32
ATOM     32  C   UNL A   1     -23.117   1.841  26.790  0.00  0.00    +0.174 C 
ATOM     33 CL   UNL A   1     -22.750   2.507  25.228  0.00  0.00    -0.091 Cl
BRANCH  32  34
ATOM     34  C   UNL A   1     -22.256   1.708  28.005  0.00  0.00    +0.146 C 
ATOM     35  N   UNL A   1     -20.913   1.402  27.469  0.00  0.00    -0.128 NA
ENDBRANCH  32  34
ENDBRANCH  16  32
ENDBRANCH  15  16
ENDBRANCH   1  15
BRANCH   1  36
ATOM     36  N   UNL A   1     -26.327   1.301  29.575  0.00  0.00    -0.172 NA
BRANCH  36  41
ATOM     37  C   UNL A   1     -28.258   1.036  31.007  0.00  0.00    +0.017 C 
ATOM     38  C   UNL A   1     -27.812   3.188  29.832  0.00  0.00    +0.017 C 
ATOM     39  C   UNL A   1     -29.780   2.968  31.329  0.00  0.00    +0.000 C 
ATOM     40  C   UNL A   1     -28.980   3.760  30.434  0.00  0.00    +0.001 C 
ATOM     41  C   UNL A   1     -27.446   1.841  30.147  0.00  0.00    +0.079 C 
ATOM     42  C   UNL A   1     -29.419   1.611  31.600  0.00  0.00    +0.001 C 
ENDBRANCH  36  41
ENDBRANCH   1  36
TORSDOF 14
