MODEL 3014
MODEL 1
REMARK VINA RESULT:    -8.629      0.000      0.000
REMARK INTER + INTRA:         -12.514
REMARK INTER:                 -11.655
REMARK INTRA:                  -0.859
REMARK UNBOUND:                -0.859
REMARK  Name = No_3014-gen_results/8p0m/2024-11-27-11-27-31/
REMARK  6 active torsions:
REMARK  status: ('A' for Active; 'I' for Inactive)
REMARK    1  A    between atoms: C_4  and  C_5
REMARK    2  A    between atoms: C_5  and  C_7
REMARK    3  A    between atoms: C_7  and  C_9
REMARK    4  A    between atoms: C_12  and  C_21
REMARK    5  A    between atoms: C_16  and  C_18
REMARK    6  A    between atoms: C_30  and  C_33
REMARK                            x       y       z     vdW  Elec       q    Type
REMARK                         _______ _______ _______ _____ _____    ______ ____
ROOT
ATOM      1  C   UNL A   1     -24.730   0.472  26.979  0.00  0.00    -0.022 A 
ATOM      2  C   UNL A   1     -24.632   0.569  25.569  0.00  0.00    -0.004 A 
ATOM      3  C   UNL A   1     -25.758   0.425  24.711  0.00  0.00    +0.004 A 
ATOM      4  C   UNL A   1     -27.028   0.339  25.320  0.00  0.00    +0.054 A 
ATOM      5  C   UNL A   1     -27.149   0.350  26.729  0.00  0.00    +0.004 A 
ATOM      6  C   UNL A   1     -26.036   0.505  27.493  0.00  0.00    -0.004 A 
ENDROOT
BRANCH   4   7
ATOM      7  C   UNL A   1     -28.253   0.277  24.468  0.00  0.00    +0.253 C 
ATOM      8  N   UNL A   1     -29.123   1.088  24.538  0.00  0.00    -0.255 N 
ATOM      9  C   UNL A   1     -30.233   1.078  23.785  0.00  0.00    +0.050 A 
ATOM     10  C   UNL A   1     -30.799   1.962  23.027  0.00  0.00    -0.008 A 
ATOM     11  C   UNL A   1     -30.991  -0.283  23.791  0.00  0.00    +0.015 A 
ATOM     12  C   UNL A   1     -32.081  -0.471  22.895  0.00  0.00    +0.001 A 
ATOM     13  C   UNL A   1     -31.931   1.815  22.172  0.00  0.00    -0.003 A 
ATOM     14  C   UNL A   1     -32.567   0.555  22.149  0.00  0.00    -0.000 A 
ATOM     15  C   UNL A   1     -29.039   2.311  25.241  0.00  0.00    +0.104 C 
ATOM     16  C   UNL A   1     -29.817   3.371  24.760  0.00  0.00    +0.091 C 
ATOM     17  C   UNL A   1     -30.751   3.255  23.696  0.00  0.00    +0.035 C 
ATOM     18  O   UNL A   1     -28.328  -0.808  23.791  0.00  0.00    -0.270 OA
BRANCH  16  19
ATOM     19  C   UNL A   1     -29.474   4.750  25.264  0.00  0.00    +0.320 C 
ATOM     20  F   UNL A   1     -30.268   5.391  25.821  0.00  0.00    -0.198 F 
ATOM     21  F   UNL A   1     -28.322   4.610  26.061  0.00  0.00    -0.198 F 
ENDBRANCH  16  19
ENDBRANCH   4   7
BRANCH   1  22
ATOM     22  C   UNL A   1     -23.580   0.637  27.827  0.00  0.00    +0.035 C 
BRANCH  22  23
ATOM     23  C   UNL A   1     -23.424   0.084  28.894  0.00  0.00    +0.081 C 
ATOM     24  C   UNL A   1     -23.643   0.792  30.147  0.00  0.00    +0.010 C 
BRANCH  23  28
ATOM     25  C   UNL A   1     -23.795  -3.522  28.726  0.00  0.00    +0.093 C 
ATOM     26  C   UNL A   1     -24.454  -4.277  29.051  0.00  0.00    +0.022 C 
ATOM     27  N   UNL A   1     -24.000  -2.231  29.106  0.00  0.00    -0.279 N 
ATOM     28  C   UNL A   1     -23.058  -1.218  28.968  0.00  0.00    +0.226 C 
ATOM     29  O   UNL A   1     -21.771  -1.470  28.962  0.00  0.00    -0.275 OA
ATOM     30  C   UNL A   1     -25.299  -2.082  29.548  0.00  0.00    +0.105 C 
ATOM     31  C   UNL A   1     -26.137  -3.071  29.865  0.00  0.00    +0.123 C 
ATOM     32  C   UNL A   1     -25.717  -4.330  29.537  0.00  0.00    +0.015 C 
BRANCH  31  33
ATOM     33  C   UNL A   1     -27.490  -2.790  30.444  0.00  0.00    +0.366 C 
ATOM     34  O   UNL A   1     -28.465  -3.142  30.140  0.00  0.00    -0.246 OA
ATOM     35  O   UNL A   1     -27.412  -1.631  31.230  0.00  0.00    -0.246 OA
ENDBRANCH  31  33
ENDBRANCH  23  28
ENDBRANCH  22  23
ENDBRANCH   1  22
TORSDOF 6
ENDMDL
ENDMDL
