MODEL 3015
MODEL 1
REMARK VINA RESULT:    -7.130      0.000      0.000
REMARK INTER + INTRA:          -9.005
REMARK INTER:                  -8.380
REMARK INTRA:                  -0.625
REMARK UNBOUND:                -0.625
REMARK  Name = No_3015-gen_results/8p0m/2024-11-27-11-27-31/
REMARK  3 active torsions:
REMARK  status: ('A' for Active; 'I' for Inactive)
REMARK    1  A    between atoms: C_3  and  C_4
REMARK    2  A    between atoms: C_6  and  C_13
REMARK    3  A    between atoms: N_14  and  C_15
REMARK                            x       y       z     vdW  Elec       q    Type
REMARK                         _______ _______ _______ _____ _____    ______ ____
ROOT
ATOM      1  C   UNL A   1     -10.658   0.851  36.482  0.00  0.00    +0.005 A 
ATOM      2  C   UNL A   1     -11.724   1.285  36.853  0.00  0.00    +0.000 A 
ATOM      3  C   UNL A   1     -12.409   2.240  36.110  0.00  0.00    +0.000 A 
ATOM      4  C   UNL A   1      -9.972   1.462  35.332  0.00  0.00    +0.055 A 
ATOM      5  C   UNL A   1     -10.609   2.356  34.506  0.00  0.00    +0.005 A 
ATOM      6  C   UNL A   1     -11.873   2.845  34.878  0.00  0.00    +0.000 A 
ENDROOT
BRANCH   3   7
ATOM      7  C   UNL A   1     -13.719   2.858  36.464  0.00  0.00    +0.003 A 
ATOM      8  C   UNL A   1     -14.752   3.214  35.528  0.00  0.00    +0.000 A 
ATOM      9  C   UNL A   1     -15.950   3.704  36.003  0.00  0.00    +0.003 A 
ATOM     10  C   UNL A   1     -16.367   3.737  37.300  0.00  0.00    +0.042 A 
ATOM     11  C   UNL A   1     -14.163   2.896  37.845  0.00  0.00    +0.042 A 
ATOM     12  C   UNL A   1     -15.439   3.342  38.212  0.00  0.00    +0.196 A 
ATOM     13  O   UNL A   1     -15.706   3.343  39.539  0.00  0.00    -0.287 OA
ENDBRANCH   3   7
BRANCH   4  14
ATOM     14  C   UNL A   1      -8.618   1.019  34.889  0.00  0.00    +0.269 C 
ATOM     15  N   UNL A   1      -7.893   0.231  35.632  0.00  0.00    -0.175 NA
ATOM     16  O   UNL A   1      -8.187   1.481  33.817  0.00  0.00    -0.268 OA
BRANCH  15  17
ATOM     17  C   UNL A   1      -6.922  -0.509  35.162  0.00  0.00    +0.074 A 
ATOM     18  C   UNL A   1      -7.039  -1.474  34.725  0.00  0.00    +0.017 A 
ATOM     19  C   UNL A   1      -5.973  -2.284  34.158  0.00  0.00    +0.001 A 
ATOM     20  C   UNL A   1      -4.652  -1.844  34.387  0.00  0.00    +0.000 A 
ATOM     21  C   UNL A   1      -5.534   0.004  35.452  0.00  0.00    +0.017 A 
ATOM     22  C   UNL A   1      -4.482  -0.642  35.044  0.00  0.00    +0.001 A 
ENDBRANCH  15  17
ENDBRANCH   4  14
TORSDOF 3
ENDMDL
ENDMDL
