REMARK  Name = No_3015-gen_results/8p0m/2024-11-27-11-27-31/
REMARK  3 active torsions:
REMARK  status: ('A' for Active; 'I' for Inactive)
REMARK    1  A    between atoms: C_3  and  C_4
REMARK    2  A    between atoms: C_6  and  C_13
REMARK    3  A    between atoms: N_14  and  C_15
REMARK                            x       y       z     vdW  Elec       q    Type
REMARK                         _______ _______ _______ _____ _____    ______ ____
ROOT
ATOM      1  C   UNL A   1     -28.016  -0.814  28.878  0.00  0.00    +0.005 A 
ATOM      2  C   UNL A   1     -27.064  -0.119  28.608  0.00  0.00    +0.000 A 
ATOM      3  C   UNL A   1     -25.792  -0.430  29.076  0.00  0.00    +0.000 A 
ATOM      4  C   UNL A   1     -27.882  -1.899  29.863  0.00  0.00    +0.055 A 
ATOM      5  C   UNL A   1     -26.653  -2.314  30.314  0.00  0.00    +0.005 A 
ATOM      6  C   UNL A   1     -25.515  -1.561  29.979  0.00  0.00    +0.000 A 
ENDROOT
BRANCH   3   7
ATOM      7  C   UNL A   1     -24.546   0.349  28.823  0.00  0.00    +0.003 A 
ATOM      8  C   UNL A   1     -23.241   0.022  29.332  0.00  0.00    +0.000 A 
ATOM      9  C   UNL A   1     -22.159   0.787  28.951  0.00  0.00    +0.003 A 
ATOM     10  C   UNL A   1     -22.131   1.744  27.982  0.00  0.00    +0.042 A 
ATOM     11  C   UNL A   1     -24.516   1.371  27.793  0.00  0.00    +0.042 A 
ATOM     12  C   UNL A   1     -23.338   2.035  27.427  0.00  0.00    +0.196 A 
ATOM     13  O   UNL A   1     -23.466   2.980  26.467  0.00  0.00    -0.287 OA
ENDBRANCH   3   7
BRANCH   4  14
ATOM     14  C   UNL A   1     -29.046  -2.729  30.292  0.00  0.00    +0.269 C 
ATOM     15  N   UNL A   1     -28.944  -4.023  30.400  0.00  0.00    -0.175 NA
ATOM     16  O   UNL A   1     -30.128  -2.144  30.479  0.00  0.00    -0.268 OA
BRANCH  15  17
ATOM     17  C   UNL A   1     -29.746  -4.750  31.135  0.00  0.00    +0.074 A 
ATOM     18  C   UNL A   1     -29.826  -4.697  32.197  0.00  0.00    +0.017 A 
ATOM     19  C   UNL A   1     -30.747  -5.466  33.018  0.00  0.00    +0.001 A 
ATOM     20  C   UNL A   1     -31.448  -6.509  32.377  0.00  0.00    +0.000 A 
ATOM     21  C   UNL A   1     -30.455  -5.858  30.398  0.00  0.00    +0.017 A 
ATOM     22  C   UNL A   1     -31.276  -6.655  31.015  0.00  0.00    +0.001 A 
ENDBRANCH  15  17
ENDBRANCH   4  14
TORSDOF 3
