REMARK  Name = outputs/IAG933/test6/raw/output_3016_IAG933_linker_design_.xyz
REMARK  10 active torsions:
REMARK  status: ('A' for Active; 'I' for Inactive)
REMARK    1  A    between atoms: C_1  and  C_2
REMARK    2  A    between atoms: C_1  and  C_8
REMARK    3  A    between atoms: C_1  and  N_41
REMARK    4  A    between atoms: C_13  and  C_39
REMARK    5  A    between atoms: C_14  and  C_15
REMARK    6  A    between atoms: C_21  and  O_22
REMARK    7  A    between atoms: O_22  and  C_23
REMARK    8  A    between atoms: C_23  and  C_24
REMARK    9  A    between atoms: C_30  and  C_42
REMARK   10  A    between atoms: C_31  and  C_32
REMARK                            x       y       z     vdW  Elec       q    Type
REMARK                         _______ _______ _______ _____ _____    ______ ____
ROOT
ATOM      1  C   UNL A   1     -24.372   0.851  29.033  0.00  0.00    +0.073 A 
ATOM      2  C   UNL A   1     -25.150   1.004  28.509  0.00  0.00    +0.070 A 
ATOM      3  C   UNL A   1     -23.301   1.514  26.953  0.00  0.00    +0.108 A 
ATOM      4  O   UNL A   1     -21.141   0.706  27.628  0.00  0.00    -0.285 OA
ATOM      5  C   UNL A   1     -22.398   0.974  27.862  0.00  0.00    +0.216 A 
ATOM      6  C   UNL A   1     -23.062   0.653  29.076  0.00  0.00    +0.105 A 
ATOM      7  C   UNL A   1     -24.660   1.388  27.291  0.00  0.00    +0.017 A 
ATOM      8  N   UNL A   1     -24.038  -0.154  29.724  0.00  0.00    -0.279 N 
ENDROOT
BRANCH   7   9
ATOM      9  C   UNL A   1     -25.688   1.614  26.461  0.00  0.00    +0.038 C 
ATOM     10  C   UNL A   1     -26.250   2.920  26.395  0.00  0.00    +0.076 C 
ATOM     11  C   UNL A   1     -27.438   3.091  25.645  0.00  0.00    +0.107 C 
ATOM     12  N   UNL A   1     -28.075   2.089  25.003  0.00  0.00    -0.208 NA
ATOM     13  C   UNL A   1     -27.543   0.849  25.079  0.00  0.00    +0.253 C 
ATOM     14  C   UNL A   1     -26.354   0.576  25.777  0.00  0.00    +0.193 C 
ATOM     15  F   UNL A   1     -25.860  -0.681  25.795  0.00  0.00    -0.199 F 
BRANCH  10  16
ATOM     16  C   UNL A   1     -25.642   4.093  27.123  0.00  0.00    +0.266 C 
ATOM     17  N   UNL A   1     -25.614   5.252  26.449  0.00  0.00    -0.200 NA
ATOM     18  C   UNL A   1     -25.026   6.479  26.963  0.00  0.00    +0.139 C 
ATOM     19  O   UNL A   1     -25.143   3.966  28.243  0.00  0.00    -0.268 OA
ENDBRANCH  10  16
BRANCH  13  20
ATOM     20  O   UNL A   1     -28.193  -0.208  24.477  0.00  0.00    -0.456 OA
BRANCH  20  21
ATOM     21  C   UNL A   1     -29.460   0.005  23.866  0.00  0.00    +0.243 C 
BRANCH  21  22
ATOM     22  C   UNL A   1     -30.065  -1.377  23.573  0.00  0.00    +0.229 C 
ATOM     23  O   UNL A   1     -30.729  -1.878  24.721  0.00  0.00    -0.216 OA
ENDBRANCH  21  22
ENDBRANCH  20  21
ENDBRANCH  13  20
ENDBRANCH   7   9
BRANCH   2  27
ATOM     24  N   UNL A   1     -26.887  -0.772  28.399  0.00  0.00    -0.200 NA
ATOM     25  O   UNL A   1     -27.601   1.229  29.318  0.00  0.00    -0.268 OA
ATOM     26  C   UNL A   1     -28.116  -1.465  28.837  0.00  0.00    +0.139 C 
ATOM     27  C   UNL A   1     -26.717   0.533  28.825  0.00  0.00    +0.266 C 
ENDBRANCH   2  27
BRANCH   3  29
ATOM     28  F   UNL A   1     -21.572   1.985  25.368  0.00  0.00    -0.159 F 
ATOM     29  C   UNL A   1     -22.737   2.163  25.897  0.00  0.00    +0.337 C 
ATOM     30  O   UNL A   1     -23.365   3.029  25.199  0.00  0.00    -0.254 OA
ENDBRANCH   3  29
BRANCH   8  31
ATOM     31  C   UNL A   1     -24.855  -1.012  30.143  0.00  0.00    +0.116 C 
BRANCH  31  32
ATOM     32  C   UNL A   1     -24.973  -2.505  29.788  0.00  0.00    -0.003 C 
ATOM     33  C   UNL A   1     -23.906  -3.173  29.146  0.00  0.00    -0.003 C 
ATOM     34  C   UNL A   1     -23.989  -4.549  28.853  0.00  0.00    -0.000 C 
ATOM     35  C   UNL A   1     -25.137  -5.280  29.205  0.00  0.00    -0.000 C 
ATOM     36  C   UNL A   1     -26.232  -4.611  29.784  0.00  0.00    -0.000 C 
ATOM     37  C   UNL A   1     -26.155  -3.232  30.065  0.00  0.00    -0.003 C 
ENDBRANCH  31  32
BRANCH  31  38
ATOM     38  C   UNL A   1     -25.387  -0.679  31.571  0.00  0.00    +0.095 C 
ATOM     39  C   UNL A   1     -25.189   0.773  32.028  0.00  0.00    +0.021 C 
ATOM     40  C   UNL A   1     -25.336   0.684  33.544  0.00  0.00    +0.020 C 
ATOM     41  C   UNL A   1     -24.829  -0.715  33.905  0.00  0.00    +0.089 C 
ATOM     42  N   UNL A   1     -24.758  -1.481  32.646  0.00  0.00    -0.217 NA
ENDBRANCH  31  38
ENDBRANCH   8  31
TORSDOF 10
