REMARK  Name = No_3017-gen_results/8p0m/2024-11-27-11-27-31/
REMARK  9 active torsions:
REMARK  status: ('A' for Active; 'I' for Inactive)
REMARK    1  A    between atoms: C_3  and  C_8
REMARK    2  A    between atoms: C_6  and  O_7
REMARK    3  A    between atoms: O_7  and  C_15
REMARK    4  A    between atoms: C_15  and  C_16
REMARK    5  A    between atoms: C_16  and  O_17
REMARK    6  A    between atoms: O_17  and  C_18
REMARK    7  A    between atoms: C_18  and  C_19
REMARK    8  A    between atoms: C_18  and  N_25
REMARK    9  A    between atoms: N_25  and  C_26
REMARK                            x       y       z     vdW  Elec       q    Type
REMARK                         _______ _______ _______ _____ _____    ______ ____
ROOT
ATOM      1  C   UNL A   1     -28.737  -3.986  30.669  0.00  0.00    +0.237 C 
ENDROOT
BRANCH   1   2
ATOM      2  O   UNL A   1     -28.930  -2.730  30.115  0.00  0.00    -0.473 OA
BRANCH   2   8
ATOM      3  C   UNL A   1     -28.016  -0.814  28.878  0.00  0.00    +0.037 A 
ATOM      4  C   UNL A   1     -27.064  -0.119  28.608  0.00  0.00    +0.003 A 
ATOM      5  C   UNL A   1     -25.765  -0.390  29.036  0.00  0.00    +0.001 A 
ATOM      6  C   UNL A   1     -25.530  -1.530  29.901  0.00  0.00    +0.003 A 
ATOM      7  C   UNL A   1     -26.689  -2.289  30.181  0.00  0.00    +0.037 A 
ATOM      8  C   UNL A   1     -27.873  -1.951  29.737  0.00  0.00    +0.139 A 
BRANCH   5   9
ATOM      9  C   UNL A   1     -24.539   0.421  28.742  0.00  0.00    +0.011 A 
ATOM     10  C   UNL A   1     -24.091   1.393  29.598  0.00  0.00    +0.058 A 
ATOM     11  C   UNL A   1     -22.965   2.202  29.235  0.00  0.00    +0.011 A 
ATOM     12  C   UNL A   1     -22.273   1.976  28.001  0.00  0.00    +0.001 A 
ATOM     13  C   UNL A   1     -22.786   1.040  27.163  0.00  0.00    +0.000 A 
ATOM     14  C   UNL A   1     -23.873   0.277  27.499  0.00  0.00    +0.001 A 
ATOM     15 CL   UNL A   1     -24.808   1.628  31.118  0.00  0.00    -0.082 Cl
ENDBRANCH   5   9
ENDBRANCH   2   8
ENDBRANCH   1   2
BRANCH   1  16
ATOM     16  C   UNL A   1     -29.723  -4.905  30.229  0.00  0.00    +0.192 C 
BRANCH  16  17
ATOM     17  O   UNL A   1     -30.231  -4.849  29.166  0.00  0.00    -0.329 OA
BRANCH  17  18
ATOM     18  C   UNL A   1     -31.578  -5.289  28.970  0.00  0.00    +0.233 C 
BRANCH  18  19
ATOM     19  C   UNL A   1     -31.643  -6.477  28.443  0.00  0.00    +0.025 A 
ATOM     20  C   UNL A   1     -32.200  -6.640  27.255  0.00  0.00    -0.000 A 
ATOM     21  C   UNL A   1     -32.120  -7.946  26.522  0.00  0.00    -0.000 A 
ATOM     22  C   UNL A   1     -31.481  -8.998  27.151  0.00  0.00    -0.000 A 
ATOM     23  C   UNL A   1     -30.990  -8.843  28.454  0.00  0.00    -0.000 A 
ATOM     24  C   UNL A   1     -31.025  -7.631  29.038  0.00  0.00    -0.000 A 
ENDBRANCH  18  19
BRANCH  18  25
ATOM     25  N   UNL A   1     -32.173  -4.241  28.104  0.00  0.00    -0.201 NA
BRANCH  25  26
ATOM     26  C   UNL A   1     -31.665  -3.029  27.910  0.00  0.00    +0.143 C 
ATOM     27  C   UNL A   1     -32.535  -2.115  27.133  0.00  0.00    +0.295 C 
ATOM     28  F   UNL A   1     -32.080  -1.024  26.922  0.00  0.00    -0.171 F 
ATOM     29  F   UNL A   1     -33.701  -1.970  27.782  0.00  0.00    -0.171 F 
ENDBRANCH  25  26
ENDBRANCH  18  25
ENDBRANCH  17  18
ENDBRANCH  16  17
ENDBRANCH   1  16
TORSDOF 9
