MODEL 3017
MODEL 1
REMARK VINA RESULT:    -5.926      0.000      0.000
REMARK INTER + INTRA:         -12.194
REMARK INTER:                  -9.043
REMARK INTRA:                  -3.151
REMARK UNBOUND:                -3.151
REMARK  Name = No_3017-gen_results/8p0m/2024-11-27-11-27-31/
REMARK  9 active torsions:
REMARK  status: ('A' for Active; 'I' for Inactive)
REMARK    1  A    between atoms: C_3  and  C_8
REMARK    2  A    between atoms: C_6  and  O_7
REMARK    3  A    between atoms: O_7  and  C_15
REMARK    4  A    between atoms: C_15  and  C_16
REMARK    5  A    between atoms: C_16  and  O_17
REMARK    6  A    between atoms: O_17  and  C_18
REMARK    7  A    between atoms: C_18  and  C_19
REMARK    8  A    between atoms: C_18  and  N_25
REMARK    9  A    between atoms: N_25  and  C_26
REMARK                            x       y       z     vdW  Elec       q    Type
REMARK                         _______ _______ _______ _____ _____    ______ ____
ROOT
ATOM      1  C   UNL A   1     -25.373   2.944  31.126  0.00  0.00    +0.237 C 
ENDROOT
BRANCH   1   2
ATOM      2  O   UNL A   1     -25.292   3.733  29.988  0.00  0.00    -0.473 OA
BRANCH   2   8
ATOM      3  C   UNL A   1     -27.069   2.459  28.867  0.00  0.00    +0.037 A 
ATOM      4  C   UNL A   1     -27.750   2.284  27.883  0.00  0.00    +0.003 A 
ATOM      5  C   UNL A   1     -27.564   2.971  26.684  0.00  0.00    +0.001 A 
ATOM      6  C   UNL A   1     -26.542   3.997  26.610  0.00  0.00    +0.003 A 
ATOM      7  C   UNL A   1     -25.793   4.152  27.799  0.00  0.00    +0.037 A 
ATOM      8  C   UNL A   1     -26.047   3.462  28.881  0.00  0.00    +0.139 A 
BRANCH   5   9
ATOM      9  C   UNL A   1     -28.364   2.809  25.427  0.00  0.00    +0.011 A 
ATOM     10  C   UNL A   1     -29.546   3.475  25.229  0.00  0.00    +0.058 A 
ATOM     11  C   UNL A   1     -30.320   3.222  24.049  0.00  0.00    +0.011 A 
ATOM     12  C   UNL A   1     -29.849   2.310  23.050  0.00  0.00    +0.001 A 
ATOM     13  C   UNL A   1     -28.702   1.635  23.316  0.00  0.00    +0.000 A 
ATOM     14  C   UNL A   1     -27.969   1.860  24.450  0.00  0.00    +0.001 A 
ATOM     15 CL   UNL A   1     -30.093   4.645  26.329  0.00  0.00    -0.082 Cl
ENDBRANCH   5   9
ENDBRANCH   2   8
ENDBRANCH   1   2
BRANCH   1  16
ATOM     16  C   UNL A   1     -24.349   1.965  31.153  0.00  0.00    +0.192 C 
BRANCH  16  17
ATOM     17  O   UNL A   1     -23.433   1.966  30.409  0.00  0.00    -0.329 OA
BRANCH  17  18
ATOM     18  C   UNL A   1     -23.084   0.792  29.670  0.00  0.00    +0.233 C 
BRANCH  18  19
ATOM     19  C   UNL A   1     -23.370   0.896  28.405  0.00  0.00    +0.025 A 
ATOM     20  C   UNL A   1     -24.315   0.135  27.879  0.00  0.00    -0.000 A 
ATOM     21  C   UNL A   1     -24.817   0.356  26.484  0.00  0.00    -0.000 A 
ATOM     22  C   UNL A   1     -24.225   1.359  25.739  0.00  0.00    -0.000 A 
ATOM     23  C   UNL A   1     -23.152   2.087  26.270  0.00  0.00    -0.000 A 
ATOM     24  C   UNL A   1     -22.788   1.896  27.551  0.00  0.00    -0.000 A 
ENDBRANCH  18  19
BRANCH  18  25
ATOM     25  N   UNL A   1     -23.840  -0.292  30.344  0.00  0.00    -0.201 NA
BRANCH  25  26
ATOM     26  C   UNL A   1     -23.296  -1.343  30.949  0.00  0.00    +0.143 C 
ATOM     27  C   UNL A   1     -22.996  -1.138  32.386  0.00  0.00    +0.295 C 
ATOM     28  F   UNL A   1     -22.477  -2.066  32.942  0.00  0.00    -0.171 F 
ATOM     29  F   UNL A   1     -24.136  -0.841  33.029  0.00  0.00    -0.171 F 
ENDBRANCH  25  26
ENDBRANCH  18  25
ENDBRANCH  17  18
ENDBRANCH  16  17
ENDBRANCH   1  16
TORSDOF 9
ENDMDL
ENDMDL
