REMARK  Name = outputs/IAG933/test6/raw/output_3018_IAG933_linker_design_.xyz
REMARK  13 active torsions:
REMARK  status: ('A' for Active; 'I' for Inactive)
REMARK    1  A    between atoms: C_1  and  C_2
REMARK    2  A    between atoms: C_1  and  C_8
REMARK    3  A    between atoms: C_1  and  N_38
REMARK    4  A    between atoms: C_13  and  N_30
REMARK    5  A    between atoms: C_14  and  C_15
REMARK    6  A    between atoms: C_21  and  O_22
REMARK    7  A    between atoms: O_22  and  C_23
REMARK    8  A    between atoms: C_23  and  C_24
REMARK    9  A    between atoms: N_30  and  C_35
REMARK   10  A    between atoms: C_32  and  C_35
REMARK   11  A    between atoms: C_32  and  C_43
REMARK   12  A    between atoms: C_34  and  C_43
REMARK   13  A    between atoms: C_35  and  N_38
REMARK                            x       y       z     vdW  Elec       q    Type
REMARK                         _______ _______ _______ _____ _____    ______ ____
ROOT
ATOM      1  N   UNL A   1     -23.149   0.188  28.768  0.00  0.00    -0.036 NA
ATOM      2  N   UNL A   1     -25.100   1.018  27.594  0.00  0.00    -0.176 N 
ATOM      3  C   UNL A   1     -21.453   1.875  27.305  0.00  0.00    +0.012 C 
ATOM      4  C   UNL A   1     -22.855   2.006  27.238  0.00  0.00    +0.090 C 
ATOM      5  C   UNL A   1     -20.924   0.921  28.214  0.00  0.00    +0.051 C 
ATOM      6  C   UNL A   1     -23.721   1.083  27.878  0.00  0.00    +0.325 C 
ATOM      7  C   UNL A   1     -21.775   0.082  28.921  0.00  0.00    +0.236 C 
ENDROOT
BRANCH   2   8
ATOM      8  C   UNL A   1     -25.688   1.614  26.461  0.00  0.00    +0.231 C 
ATOM      9  C   UNL A   1     -26.250   2.920  26.395  0.00  0.00    +0.097 C 
ATOM     10  C   UNL A   1     -27.438   3.091  25.645  0.00  0.00    +0.106 C 
ATOM     11  N   UNL A   1     -28.075   2.089  25.003  0.00  0.00    -0.212 NA
ATOM     12  C   UNL A   1     -27.543   0.849  25.079  0.00  0.00    +0.238 C 
ATOM     13  C   UNL A   1     -26.354   0.576  25.777  0.00  0.00    +0.282 C 
ATOM     14  F   UNL A   1     -25.860  -0.681  25.795  0.00  0.00    -0.223 F 
BRANCH   9  15
ATOM     15  C   UNL A   1     -25.642   4.093  27.123  0.00  0.00    +0.266 C 
ATOM     16  N   UNL A   1     -25.614   5.252  26.449  0.00  0.00    -0.200 NA
ATOM     17  C   UNL A   1     -25.026   6.479  26.963  0.00  0.00    +0.139 C 
ATOM     18  O   UNL A   1     -25.143   3.966  28.243  0.00  0.00    -0.269 OA
ENDBRANCH   9  15
BRANCH  12  19
ATOM     19  O   UNL A   1     -28.193  -0.208  24.477  0.00  0.00    -0.458 OA
BRANCH  19  20
ATOM     20  C   UNL A   1     -29.460   0.005  23.866  0.00  0.00    +0.242 C 
BRANCH  20  21
ATOM     21  C   UNL A   1     -30.065  -1.377  23.573  0.00  0.00    +0.229 C 
ATOM     22  O   UNL A   1     -30.729  -1.878  24.721  0.00  0.00    -0.216 OA
ENDBRANCH  20  21
ENDBRANCH  19  20
ENDBRANCH  12  19
ENDBRANCH   2   8
BRANCH   2  23
ATOM     23  C   UNL A   1     -25.897   0.170  28.355  0.00  0.00    +0.237 C 
BRANCH  23  24
ATOM     24  C   UNL A   1     -27.354  -0.095  28.330  0.00  0.00    +0.069 C 
BRANCH  24  25
ATOM     25  C   UNL A   1     -28.674  -0.140  28.671  0.00  0.00    +0.035 C 
BRANCH  25  27
ATOM     26  O   UNL A   1     -30.590   1.524  28.833  0.00  0.00    -0.356 OA
ATOM     27  C   UNL A   1     -29.199   1.159  29.106  0.00  0.00    +0.115 C 
ATOM     28  C   UNL A   1     -29.698   3.564  29.802  0.00  0.00    +0.032 C 
ATOM     29  C   UNL A   1     -28.631   2.814  30.655  0.00  0.00    +0.005 C 
ATOM     30  C   UNL A   1     -30.920   2.661  29.612  0.00  0.00    +0.142 C 
ATOM     31  C   UNL A   1     -29.099   1.361  30.545  0.00  0.00    +0.030 C 
ENDBRANCH  25  27
ENDBRANCH  24  25
ENDBRANCH  23  24
BRANCH  23  32
ATOM     32  N   UNL A   1     -25.757  -0.325  29.264  0.00  0.00    -0.173 NA
BRANCH  32  33
ATOM     33  C   UNL A   1     -24.855  -1.012  30.143  0.00  0.00    +0.115 C 
BRANCH  33  34
ATOM     34  C   UNL A   1     -24.973  -2.505  29.788  0.00  0.00    -0.005 C 
ATOM     35  C   UNL A   1     -23.906  -3.173  29.146  0.00  0.00    -0.003 C 
ATOM     36  C   UNL A   1     -23.989  -4.549  28.853  0.00  0.00    -0.000 C 
ATOM     37  C   UNL A   1     -25.137  -5.280  29.205  0.00  0.00    -0.000 C 
ATOM     38  C   UNL A   1     -26.232  -4.611  29.784  0.00  0.00    -0.000 C 
ATOM     39  C   UNL A   1     -26.155  -3.232  30.065  0.00  0.00    -0.003 C 
ENDBRANCH  33  34
BRANCH  33  40
ATOM     40  C   UNL A   1     -25.387  -0.679  31.571  0.00  0.00    +0.093 C 
ATOM     41  C   UNL A   1     -25.189   0.773  32.028  0.00  0.00    +0.021 C 
ATOM     42  C   UNL A   1     -25.336   0.684  33.544  0.00  0.00    +0.020 C 
ATOM     43  C   UNL A   1     -24.829  -0.715  33.905  0.00  0.00    +0.089 C 
ATOM     44  N   UNL A   1     -24.758  -1.481  32.646  0.00  0.00    -0.218 NA
ENDBRANCH  33  40
ENDBRANCH  32  33
ENDBRANCH  23  32
ENDBRANCH   2  23
TORSDOF 13
