MODEL 3018
MODEL 1
REMARK VINA RESULT:    -6.595      0.000      0.000
REMARK INTER + INTRA:          -6.595
REMARK INTER:                  -6.595
REMARK INTRA:                   0.000
REMARK UNBOUND:                 0.000
REMARK  Name = No_3018-gen_results/8p0m/2024-11-27-11-27-31/
REMARK  0 active torsions:
REMARK  status: ('A' for Active; 'I' for Inactive)
REMARK                            x       y       z     vdW  Elec       q    Type
REMARK                         _______ _______ _______ _____ _____    ______ ____
ROOT
ATOM      1  C   UNL A   1     -24.689  -4.984  29.109  0.00  0.00    +0.000 A 
ATOM      2  C   UNL A   1     -24.075  -3.963  28.905  0.00  0.00    +0.000 A 
ATOM      3  C   UNL A   1     -24.579  -2.692  29.177  0.00  0.00    +0.000 A 
ATOM      4  C   UNL A   1     -25.935  -2.562  29.676  0.00  0.00    +0.000 A 
ATOM      5  C   UNL A   1     -26.614  -3.763  29.877  0.00  0.00    +0.000 A 
ATOM      6  C   UNL A   1     -26.062  -4.925  29.582  0.00  0.00    +0.000 A 
ATOM      7  C   UNL A   1     -23.880  -1.392  28.961  0.00  0.00    +0.000 A 
ATOM      8  C   UNL A   1     -22.585  -1.307  28.898  0.00  0.00    +0.000 A 
ATOM      9  C   UNL A   1     -21.925  -0.038  28.770  0.00  0.00    +0.000 A 
ATOM     10  C   UNL A   1     -22.575   1.145  28.832  0.00  0.00    +0.000 A 
ATOM     11  C   UNL A   1     -24.639  -0.134  29.036  0.00  0.00    +0.000 A 
ATOM     12  C   UNL A   1     -26.039  -0.135  29.169  0.00  0.00    +0.000 A 
ATOM     13  C   UNL A   1     -23.901   1.168  28.947  0.00  0.00    +0.000 A 
ATOM     14  C   UNL A   1     -26.705  -1.324  29.628  0.00  0.00    +0.000 A 
ENDROOT
TORSDOF 0
ENDMDL
ENDMDL
