MODEL 3019
MODEL 1
REMARK VINA RESULT:    -5.203      0.000      0.000
REMARK INTER + INTRA:          -5.203
REMARK INTER:                  -5.203
REMARK INTRA:                   0.000
REMARK UNBOUND:                 0.000
REMARK  Name = No_3019-gen_results/8p0m/2024-11-27-11-27-31/
REMARK  0 active torsions:
REMARK  status: ('A' for Active; 'I' for Inactive)
REMARK                            x       y       z     vdW  Elec       q    Type
REMARK                         _______ _______ _______ _____ _____    ______ ____
ROOT
ATOM      1  C   UNL A   1     -21.926   1.722  27.433  0.00  0.00    +0.000 A 
ATOM      2  C   UNL A   1     -22.846   1.886  26.947  0.00  0.00    +0.000 A 
ATOM      3  C   UNL A   1     -21.885   0.530  28.364  0.00  0.00    +0.000 A 
ATOM      4  C   UNL A   1     -22.991  -0.345  28.414  0.00  0.00    +0.000 A 
ATOM      5  C   UNL A   1     -24.109   1.127  26.801  0.00  0.00    +0.000 A 
ATOM      6  C   UNL A   1     -24.107   0.020  27.638  0.00  0.00    +0.000 A 
ATOM      7  C   UNL A   1     -23.016  -1.472  29.284  0.00  0.00    +0.000 A 
ATOM      8  C   UNL A   1     -23.797  -2.256  29.319  0.00  0.00    +0.000 A 
ATOM      9  C   UNL A   1     -25.035  -2.020  28.499  0.00  0.00    +0.000 A 
ATOM     10  C   UNL A   1     -25.193  -0.900  27.750  0.00  0.00    +0.000 A 
ENDROOT
TORSDOF 0
ENDMDL
ENDMDL
