MODEL 301
MODEL 1
REMARK VINA RESULT:    -4.550      0.000      0.000
REMARK INTER + INTRA:          -4.550
REMARK INTER:                  -4.550
REMARK INTRA:                   0.000
REMARK UNBOUND:                 0.000
REMARK  Name = No_301-gen_results/8p0m/2024-11-27-11-27-31/
REMARK  0 active torsions:
REMARK  status: ('A' for Active; 'I' for Inactive)
REMARK                            x       y       z     vdW  Elec       q    Type
REMARK                         _______ _______ _______ _____ _____    ______ ____
ROOT
ATOM      1  C   UNL A   1     -10.210  -9.774  18.300  0.00  0.00    +0.030 A 
ATOM      2  C   UNL A   1      -9.233 -10.417  17.995  0.00  0.00    +0.140 A 
ATOM      3  C   UNL A   1      -8.116 -10.509  18.761  0.00  0.00    +0.030 A 
ATOM      4  C   UNL A   1      -8.087  -9.815  19.986  0.00  0.00    +0.002 A 
ATOM      5  C   UNL A   1     -10.287  -9.118  19.580  0.00  0.00    +0.002 A 
ATOM      6  C   UNL A   1      -9.180  -9.156  20.375  0.00  0.00    +0.000 A 
ATOM      7  F   UNL A   1      -9.187 -11.111  16.829  0.00  0.00    -0.204 F 
ENDROOT
TORSDOF 0
ENDMDL
ENDMDL
