REMARK  Name = outputs/IAG933/test6/raw/output_302_IAG933_linker_design_.xyz
REMARK  14 active torsions:
REMARK  status: ('A' for Active; 'I' for Inactive)
REMARK    1  A    between atoms: C_1  and  C_2
REMARK    2  A    between atoms: C_1  and  C_8
REMARK    3  A    between atoms: C_1  and  C_44
REMARK    4  A    between atoms: C_13  and  C_29
REMARK    5  A    between atoms: C_14  and  C_15
REMARK    6  A    between atoms: C_21  and  O_22
REMARK    7  A    between atoms: O_22  and  C_23
REMARK    8  A    between atoms: C_23  and  C_24
REMARK    9  A    between atoms: C_30  and  C_40
REMARK   10  A    between atoms: O_31  and  C_40
REMARK   11  A    between atoms: O_37  and  C_41
REMARK   12  A    between atoms: N_38  and  C_44
REMARK   13  A    between atoms: C_39  and  C_40
REMARK   14  A    between atoms: C_42  and  C_44
REMARK                            x       y       z     vdW  Elec       q    Type
REMARK                         _______ _______ _______ _____ _____    ______ ____
ROOT
ATOM      1  C   UNL A   1     -24.564   1.202  27.220  0.00  0.00    +0.074 A 
ATOM      2  O   UNL A   1     -23.244   0.179  28.721  0.00  0.00    -0.430 OA
ATOM      3  F   UNL A   1     -21.056   1.129  27.824  0.00  0.00    -0.160 F 
ATOM      4  C   UNL A   1     -22.448   0.915  27.846  0.00  0.00    +0.322 A 
ATOM      5  C   UNL A   1     -23.187   1.514  27.067  0.00  0.00    +0.205 A 
ATOM      6  C   UNL A   1     -24.530   0.423  28.358  0.00  0.00    +0.148 A 
ENDROOT
BRANCH   1   7
ATOM      7  C   UNL A   1     -25.688   1.614  26.461  0.00  0.00    +0.044 C 
ATOM      8  C   UNL A   1     -26.250   2.920  26.395  0.00  0.00    +0.077 C 
ATOM      9  C   UNL A   1     -27.438   3.091  25.645  0.00  0.00    +0.107 C 
ATOM     10  N   UNL A   1     -28.075   2.089  25.003  0.00  0.00    -0.208 NA
ATOM     11  C   UNL A   1     -27.543   0.849  25.079  0.00  0.00    +0.253 C 
ATOM     12  C   UNL A   1     -26.354   0.576  25.777  0.00  0.00    +0.193 C 
ATOM     13  F   UNL A   1     -25.860  -0.681  25.795  0.00  0.00    -0.199 F 
BRANCH   8  14
ATOM     14  C   UNL A   1     -25.642   4.093  27.123  0.00  0.00    +0.266 C 
ATOM     15  N   UNL A   1     -25.614   5.252  26.449  0.00  0.00    -0.200 NA
ATOM     16  C   UNL A   1     -25.026   6.479  26.963  0.00  0.00    +0.139 C 
ATOM     17  O   UNL A   1     -25.143   3.966  28.243  0.00  0.00    -0.268 OA
ENDBRANCH   8  14
BRANCH  11  18
ATOM     18  O   UNL A   1     -28.193  -0.208  24.477  0.00  0.00    -0.456 OA
BRANCH  18  19
ATOM     19  C   UNL A   1     -29.460   0.005  23.866  0.00  0.00    +0.243 C 
BRANCH  19  20
ATOM     20  C   UNL A   1     -30.065  -1.377  23.573  0.00  0.00    +0.229 C 
ATOM     21  O   UNL A   1     -30.729  -1.878  24.721  0.00  0.00    -0.216 OA
ENDBRANCH  19  20
ENDBRANCH  18  19
ENDBRANCH  11  18
ENDBRANCH   1   7
BRANCH   5  23
ATOM     22  C   UNL A   1     -22.545   2.267  24.954  0.00  0.00    +0.253 C 
ATOM     23  O   UNL A   1     -22.785   2.632  26.304  0.00  0.00    -0.466 OA
ENDBRANCH   5  23
BRANCH   6  24
ATOM     24  C   UNL A   1     -25.695  -0.213  29.009  0.00  0.00    +0.158 C 
BRANCH  24  26
ATOM     25  O   UNL A   1     -29.341  -0.722  28.596  0.00  0.00    -0.270 OA
ATOM     26  N   UNL A   1     -27.110   0.015  28.482  0.00  0.00    -0.197 NA
ATOM     27  C   UNL A   1     -28.450   0.080  29.127  0.00  0.00    +0.280 C 
BRANCH  27  28
ATOM     28  C   UNL A   1     -28.928   1.205  29.989  0.00  0.00    +0.296 C 
BRANCH  28  29
ATOM     29  C   UNL A   1     -29.978   1.970  29.613  0.00  0.00    +0.401 C 
ATOM     30  O   UNL A   1     -29.769   2.967  29.093  0.00  0.00    -0.242 OA
ATOM     31  O   UNL A   1     -31.413   1.669  29.850  0.00  0.00    -0.242 OA
ENDBRANCH  28  29
BRANCH  28  33
ATOM     32  C   UNL A   1     -28.264   3.085  31.444  0.00  0.00    +0.175 C 
ATOM     33  O   UNL A   1     -28.293   1.705  31.188  0.00  0.00    -0.335 OA
ENDBRANCH  28  33
ENDBRANCH  27  28
ENDBRANCH  24  26
BRANCH  24  34
ATOM     34  C   UNL A   1     -24.855  -1.012  30.143  0.00  0.00    +0.066 C 
BRANCH  34  35
ATOM     35  C   UNL A   1     -24.973  -2.505  29.788  0.00  0.00    -0.019 C 
ATOM     36  C   UNL A   1     -23.906  -3.173  29.146  0.00  0.00    -0.004 C 
ATOM     37  C   UNL A   1     -23.989  -4.549  28.853  0.00  0.00    -0.000 C 
ATOM     38  C   UNL A   1     -25.137  -5.280  29.205  0.00  0.00    -0.000 C 
ATOM     39  C   UNL A   1     -26.232  -4.611  29.784  0.00  0.00    -0.000 C 
ATOM     40  C   UNL A   1     -26.155  -3.232  30.065  0.00  0.00    -0.004 C 
ENDBRANCH  34  35
BRANCH  34  41
ATOM     41  C   UNL A   1     -25.387  -0.679  31.571  0.00  0.00    +0.079 C 
ATOM     42  C   UNL A   1     -25.189   0.773  32.028  0.00  0.00    +0.019 C 
ATOM     43  C   UNL A   1     -25.336   0.684  33.544  0.00  0.00    +0.020 C 
ATOM     44  C   UNL A   1     -24.829  -0.715  33.905  0.00  0.00    +0.089 C 
ATOM     45  N   UNL A   1     -24.758  -1.481  32.646  0.00  0.00    -0.219 NA
ENDBRANCH  34  41
ENDBRANCH  24  34
ENDBRANCH   6  24
TORSDOF 14
