MODEL 3020
MODEL 1
REMARK VINA RESULT:    -6.929      0.000      0.000
REMARK INTER + INTRA:         -11.669
REMARK INTER:                 -10.575
REMARK INTRA:                  -1.093
REMARK UNBOUND:                -1.093
REMARK  Name = No_3020-gen_results/8p0m/2024-11-27-11-27-31/
REMARK  9 active torsions:
REMARK  status: ('A' for Active; 'I' for Inactive)
REMARK    1  A    between atoms: C_3  and  C_7
REMARK    2  A    between atoms: C_7  and  N_8
REMARK    3  A    between atoms: N_8  and  C_9
REMARK    4  A    between atoms: C_10  and  C_11
REMARK    5  A    between atoms: C_11  and  C_12
REMARK    6  A    between atoms: C_15  and  C_19
REMARK    7  A    between atoms: C_19  and  N_20
REMARK    8  A    between atoms: N_20  and  C_21
REMARK    9  A    between atoms: N_20  and  C_22
REMARK                            x       y       z     vdW  Elec       q    Type
REMARK                         _______ _______ _______ _____ _____    ______ ____
ROOT
ATOM      1  C   UNL A   1     -23.635   1.922  27.003  0.00  0.00    -0.018 A 
ATOM      2  C   UNL A   1     -23.949   3.326  26.800  0.00  0.00    -0.004 A 
ATOM      3  C   UNL A   1     -24.542   0.968  26.380  0.00  0.00    -0.006 A 
ATOM      4  C   UNL A   1     -25.693   1.427  25.663  0.00  0.00    -0.002 A 
ATOM      5  C   UNL A   1     -25.076   3.720  26.104  0.00  0.00    -0.001 A 
ATOM      6  C   UNL A   1     -25.947   2.753  25.572  0.00  0.00    -0.003 A 
ENDROOT
BRANCH   1   7
ATOM      7  C   UNL A   1     -22.550   1.483  27.669  0.00  0.00    +0.054 C 
BRANCH   7   9
ATOM      8  C   UNL A   1     -22.915   0.230  29.790  0.00  0.00    +0.057 C 
ATOM      9  C   UNL A   1     -22.550   0.290  28.390  0.00  0.00    -0.006 C 
BRANCH   8  10
ATOM     10  N   UNL A   1     -23.376  -0.924  30.322  0.00  0.00    -0.301 N 
ATOM     11  C   UNL A   1     -23.023  -0.969  31.808  0.00  0.00    +0.113 C 
BRANCH  10  12
ATOM     12  C   UNL A   1     -24.610  -1.307  30.072  0.00  0.00    +0.118 C 
BRANCH  12  15
ATOM     13  C   UNL A   1     -25.995  -3.433  30.020  0.00  0.00    -0.003 A 
ATOM     14  C   UNL A   1     -26.132  -4.407  29.641  0.00  0.00    -0.000 A 
ATOM     15  C   UNL A   1     -24.788  -2.764  29.625  0.00  0.00    -0.002 A 
ATOM     16  C   UNL A   1     -23.803  -3.372  28.958  0.00  0.00    -0.003 A 
ATOM     17  C   UNL A   1     -25.199  -5.262  28.922  0.00  0.00    -0.000 A 
ATOM     18  C   UNL A   1     -24.068  -4.666  28.569  0.00  0.00    -0.000 A 
ENDBRANCH  12  15
ENDBRANCH  10  12
ENDBRANCH   8  10
ENDBRANCH   7   9
ENDBRANCH   1   7
BRANCH   4  19
ATOM     19  C   UNL A   1     -26.574   0.381  25.130  0.00  0.00    +0.128 C 
BRANCH  19  20
ATOM     20  N   UNL A   1     -27.798   0.330  25.500  0.00  0.00    -0.247 N 
BRANCH  20  21
ATOM     21  C   UNL A   1     -28.868  -0.032  24.600  0.00  0.00    +0.002 C 
ATOM     22  C   UNL A   1     -28.913   0.828  23.350  0.00  0.00    -0.070 C 
ATOM     23  C   UNL A   1     -28.965   2.258  23.719  0.00  0.00    +0.092 C 
ENDBRANCH  20  21
BRANCH  20  24
ATOM     24  C   UNL A   1     -28.138   0.460  26.720  0.00  0.00    +0.211 C 
ATOM     25  N   UNL A   1     -29.495   0.262  27.182  0.00  0.00    -0.107 NA
ENDBRANCH  20  24
ENDBRANCH  19  20
ENDBRANCH   4  19
TORSDOF 9
ENDMDL
ENDMDL
