REMARK  Name = No_3020-gen_results/8p0m/2024-11-27-11-27-31/
REMARK  9 active torsions:
REMARK  status: ('A' for Active; 'I' for Inactive)
REMARK    1  A    between atoms: C_3  and  C_7
REMARK    2  A    between atoms: C_7  and  N_8
REMARK    3  A    between atoms: N_8  and  C_9
REMARK    4  A    between atoms: C_10  and  C_11
REMARK    5  A    between atoms: C_11  and  C_12
REMARK    6  A    between atoms: C_15  and  C_19
REMARK    7  A    between atoms: C_19  and  N_20
REMARK    8  A    between atoms: N_20  and  C_21
REMARK    9  A    between atoms: N_20  and  C_22
REMARK                            x       y       z     vdW  Elec       q    Type
REMARK                         _______ _______ _______ _____ _____    ______ ____
ROOT
ATOM      1  C   UNL A   1     -22.473   1.298  27.178  0.00  0.00    -0.018 A 
ATOM      2  C   UNL A   1     -21.088   1.456  27.586  0.00  0.00    -0.004 A 
ATOM      3  C   UNL A   1     -23.267   0.361  27.961  0.00  0.00    -0.006 A 
ATOM      4  C   UNL A   1     -22.665  -0.380  29.029  0.00  0.00    -0.002 A 
ATOM      5  C   UNL A   1     -20.551   0.714  28.620  0.00  0.00    -0.001 A 
ATOM      6  C   UNL A   1     -21.350  -0.218  29.305  0.00  0.00    -0.003 A 
ENDROOT
BRANCH   1   7
ATOM      7  C   UNL A   1     -23.048   1.997  26.181  0.00  0.00    +0.054 C 
BRANCH   7   9
ATOM      8  C   UNL A   1     -25.404   1.198  26.061  0.00  0.00    +0.057 C 
ATOM      9  C   UNL A   1     -24.417   2.255  26.145  0.00  0.00    -0.006 C 
BRANCH   8  10
ATOM     10  N   UNL A   1     -26.662   1.408  26.509  0.00  0.00    -0.301 N 
ATOM     11  C   UNL A   1     -27.310   2.519  25.684  0.00  0.00    +0.113 C 
BRANCH  10  12
ATOM     12  C   UNL A   1     -27.460   0.380  26.709  0.00  0.00    +0.118 C 
BRANCH  12  15
ATOM     13  C   UNL A   1     -28.016  -0.814  28.878  0.00  0.00    -0.003 A 
ATOM     14  C   UNL A   1     -28.469  -0.785  29.829  0.00  0.00    -0.000 A 
ATOM     15  C   UNL A   1     -28.196   0.348  28.055  0.00  0.00    -0.002 A 
ATOM     16  C   UNL A   1     -29.019   1.350  28.378  0.00  0.00    -0.003 A 
ATOM     17  C   UNL A   1     -29.411   0.180  30.378  0.00  0.00    -0.000 A 
ATOM     18  C   UNL A   1     -29.606   1.250  29.619  0.00  0.00    -0.000 A 
ENDBRANCH  12  15
ENDBRANCH  10  12
ENDBRANCH   8  10
ENDBRANCH   7   9
ENDBRANCH   1   7
BRANCH   4  19
ATOM     19  C   UNL A   1     -23.538  -1.343  29.710  0.00  0.00    +0.128 C 
BRANCH  19  20
ATOM     20  N   UNL A   1     -24.122  -1.014  30.800  0.00  0.00    -0.247 N 
BRANCH  20  21
ATOM     21  C   UNL A   1     -25.542  -1.179  31.003  0.00  0.00    +0.002 C 
ATOM     22  C   UNL A   1     -26.178  -0.017  31.744  0.00  0.00    -0.070 C 
ATOM     23  C   UNL A   1     -25.466   0.225  33.016  0.00  0.00    +0.092 C 
ENDBRANCH  20  21
BRANCH  20  24
ATOM     24  C   UNL A   1     -23.468  -0.647  31.829  0.00  0.00    +0.211 C 
ATOM     25  N   UNL A   1     -24.015   0.243  32.831  0.00  0.00    -0.107 NA
ENDBRANCH  20  24
ENDBRANCH  19  20
ENDBRANCH   4  19
TORSDOF 9
