MODEL 3021
MODEL 1
REMARK VINA RESULT:    -7.446      0.000      0.000
REMARK INTER + INTRA:         -12.645
REMARK INTER:                 -10.493
REMARK INTRA:                  -2.152
REMARK UNBOUND:                -2.152
REMARK  Name = No_3021-gen_results/8p0m/2024-11-27-11-27-31/
REMARK  7 active torsions:
REMARK  status: ('A' for Active; 'I' for Inactive)
REMARK    1  A    between atoms: C_1  and  O_15
REMARK    2  A    between atoms: C_9  and  C_22
REMARK    3  A    between atoms: O_15  and  C_16
REMARK    4  A    between atoms: C_16  and  C_17
REMARK    5  A    between atoms: C_22  and  C_23
REMARK    6  A    between atoms: C_22  and  C_30
REMARK    7  A    between atoms: C_23  and  C_24
REMARK                            x       y       z     vdW  Elec       q    Type
REMARK                         _______ _______ _______ _____ _____    ______ ____
ROOT
ATOM      1  C   UNL A   1     -24.640  -2.612  29.252  0.00  0.00    +0.149 A 
ATOM      2  C   UNL A   1     -25.678  -2.953  29.771  0.00  0.00    +0.035 A 
ATOM      3  C   UNL A   1     -26.147  -4.256  29.652  0.00  0.00    +0.003 A 
ATOM      4  C   UNL A   1     -25.390  -5.209  29.193  0.00  0.00    +0.000 A 
ATOM      5  C   UNL A   1     -24.157  -4.844  28.550  0.00  0.00    +0.003 A 
ATOM      6  C   UNL A   1     -23.821  -3.572  28.569  0.00  0.00    +0.038 A 
ATOM      7  C   UNL A   1     -26.743  -2.150  30.545  0.00  0.00    +0.003 A 
ATOM      8  C   UNL A   1     -26.514  -1.135  30.999  0.00  0.00    -0.004 A 
ATOM      9  C   UNL A   1     -27.448  -0.393  31.843  0.00  0.00    -0.014 A 
ATOM     10  C   UNL A   1     -28.720  -0.974  32.148  0.00  0.00    +0.008 A 
ATOM     11  C   UNL A   1     -28.975  -2.246  31.668  0.00  0.00    +0.057 A 
ATOM     12  C   UNL A   1     -28.055  -2.884  30.881  0.00  0.00    +0.011 A 
ATOM     13  C   UNL A   1     -28.390  -4.222  30.472  0.00  0.00    +0.001 A 
ATOM     14  C   UNL A   1     -27.441  -4.809  30.044  0.00  0.00    +0.000 A 
ATOM     15 CL   UNL A   1     -30.458  -3.002  32.060  0.00  0.00    -0.082 Cl
ENDROOT
BRANCH   1  16
ATOM     16  O   UNL A   1     -24.226  -1.353  29.265  0.00  0.00    -0.416 OA
BRANCH  16  17
ATOM     17  C   UNL A   1     -23.159  -0.959  29.903  0.00  0.00    +0.427 C 
ATOM     18  O   UNL A   1     -23.015  -1.135  31.127  0.00  0.00    -0.237 OA
BRANCH  17  19
ATOM     19  C   UNL A   1     -22.248  -0.416  29.050  0.00  0.00    +0.463 C 
ATOM     20  O   UNL A   1     -22.518   0.390  28.261  0.00  0.00    -0.233 OA
ATOM     21  O   UNL A   1     -21.123  -1.038  28.886  0.00  0.00    -0.233 OA
ENDBRANCH  17  19
ENDBRANCH  16  17
ENDBRANCH   1  16
BRANCH   9  22
ATOM     22  C   UNL A   1     -27.164   0.974  32.288  0.00  0.00    +0.091 C 
BRANCH  22  23
ATOM     23  C   UNL A   1     -26.066   1.198  32.988  0.00  0.00    +0.034 C 
ATOM     24  C   UNL A   1     -25.302   2.417  32.629  0.00  0.00    +0.005 C 
BRANCH  23  25
ATOM     25  C   UNL A   1     -25.815   0.574  34.012  0.00  0.00    -0.022 A 
ATOM     26  C   UNL A   1     -24.768  -0.456  34.141  0.00  0.00    -0.004 A 
ATOM     27  C   UNL A   1     -24.565  -1.128  35.330  0.00  0.00    -0.000 A 
ATOM     28  C   UNL A   1     -25.318  -0.865  36.419  0.00  0.00    -0.000 A 
ATOM     29  C   UNL A   1     -26.458  -0.081  36.311  0.00  0.00    -0.000 A 
ATOM     30  C   UNL A   1     -26.694   0.653  35.203  0.00  0.00    -0.004 A 
ENDBRANCH  23  25
ENDBRANCH  22  23
BRANCH  22  31
ATOM     31  C   UNL A   1     -28.112   2.033  31.953  0.00  0.00    +0.212 C 
ATOM     32  O   UNL A   1     -28.920   2.440  32.702  0.00  0.00    -0.288 OA
ENDBRANCH  22  31
ENDBRANCH   9  22
TORSDOF 7
ENDMDL
ENDMDL
