MODEL 3022
MODEL 1
REMARK VINA RESULT:    -6.577      0.000      0.000
REMARK INTER + INTRA:          -7.310
REMARK INTER:                  -6.961
REMARK INTRA:                  -0.349
REMARK UNBOUND:                -0.349
REMARK  Name = No_3022-gen_results/8p0m/2024-11-27-11-27-31/
REMARK  1 active torsions:
REMARK  status: ('A' for Active; 'I' for Inactive)
REMARK    1  A    between atoms: C_2  and  C_7
REMARK                            x       y       z     vdW  Elec       q    Type
REMARK                         _______ _______ _______ _____ _____    ______ ____
ROOT
ATOM      1  C   UNL A   1     -25.617  -2.523  29.541  0.00  0.00    +0.000 A 
ATOM      2  C   UNL A   1     -24.495  -2.564  29.092  0.00  0.00    +0.000 A 
ATOM      3  C   UNL A   1     -23.909  -3.772  28.732  0.00  0.00    +0.000 A 
ATOM      4  C   UNL A   1     -24.603  -5.019  28.925  0.00  0.00    +0.000 A 
ATOM      5  C   UNL A   1     -25.886  -4.882  29.471  0.00  0.00    +0.000 A 
ATOM      6  C   UNL A   1     -26.388  -3.716  29.811  0.00  0.00    +0.000 A 
ENDROOT
BRANCH   2   7
ATOM      7  C   UNL A   1     -23.623  -1.382  28.851  0.00  0.00    +0.000 A 
ATOM      8  C   UNL A   1     -22.470  -1.174  29.194  0.00  0.00    +0.000 A 
ATOM      9  C   UNL A   1     -21.656  -0.019  28.796  0.00  0.00    +0.000 A 
ATOM     10  C   UNL A   1     -22.280   0.941  27.972  0.00  0.00    +0.000 A 
ATOM     11  C   UNL A   1     -24.196  -0.350  27.953  0.00  0.00    +0.000 A 
ATOM     12  C   UNL A   1     -23.533   0.724  27.576  0.00  0.00    +0.000 A 
ENDBRANCH   2   7
TORSDOF 1
ENDMDL
ENDMDL
