MODEL 3023
MODEL 1
REMARK VINA RESULT:    -8.024      0.000      0.000
REMARK INTER + INTRA:         -10.406
REMARK INTER:                  -9.431
REMARK INTRA:                  -0.975
REMARK UNBOUND:                -0.975
REMARK  Name = No_3023-gen_results/8p0m/2024-11-27-11-27-31/
REMARK  3 active torsions:
REMARK  status: ('A' for Active; 'I' for Inactive)
REMARK    1  A    between atoms: C_3  and  C_4
REMARK    2  A    between atoms: C_4  and  C_8
REMARK    3  A    between atoms: C_9  and  C_14
REMARK                            x       y       z     vdW  Elec       q    Type
REMARK                         _______ _______ _______ _____ _____    ______ ____
ROOT
ATOM      1  C   UNL A   1     -23.351  -0.751  29.501  0.00  0.00    -0.018 A 
ATOM      2  C   UNL A   1     -23.874   0.101  29.314  0.00  0.00    -0.004 A 
ATOM      3  C   UNL A   1     -23.924   1.381  30.102  0.00  0.00    -0.000 A 
ATOM      4  C   UNL A   1     -24.001   1.392  31.359  0.00  0.00    -0.000 A 
ATOM      5  C   UNL A   1     -23.787   0.056  31.983  0.00  0.00    -0.000 A 
ATOM      6  C   UNL A   1     -23.599  -1.033  31.122  0.00  0.00    -0.004 A 
ENDROOT
BRANCH   2   7
ATOM      7  C   UNL A   1     -23.973   0.559  27.735  0.00  0.00    -0.000 A 
ATOM      8  C   UNL A   1     -24.627   0.279  26.874  0.00  0.00    -0.000 A 
ATOM      9  C   UNL A   1     -22.707   1.428  27.424  0.00  0.00    -0.000 A 
ATOM     10  C   UNL A   1     -22.673   2.182  26.291  0.00  0.00    -0.000 A 
ATOM     11  C   UNL A   1     -24.620   0.902  25.565  0.00  0.00    -0.000 A 
ATOM     12  C   UNL A   1     -23.599   1.775  25.247  0.00  0.00    -0.000 A 
ENDBRANCH   2   7
BRANCH   1  13
ATOM     13  C   UNL A   1     -23.356  -2.029  28.879  0.00  0.00    +0.053 C 
BRANCH  13  16
ATOM     14  C   UNL A   1     -25.799  -2.661  29.590  0.00  0.00    -0.004 A 
ATOM     15  C   UNL A   1     -26.417  -3.483  29.819  0.00  0.00    -0.000 A 
ATOM     16  C   UNL A   1     -24.440  -2.969  29.117  0.00  0.00    -0.018 A 
ATOM     17  C   UNL A   1     -26.257  -4.935  29.564  0.00  0.00    -0.000 A 
ATOM     18  C   UNL A   1     -24.998  -5.308  29.108  0.00  0.00    -0.000 A 
ATOM     19  C   UNL A   1     -24.041  -4.354  28.838  0.00  0.00    -0.004 A 
ENDBRANCH  13  16
ENDBRANCH   1  13
TORSDOF 3
ENDMDL
ENDMDL
