REMARK  Name = No_3024-gen_results/8p0m/2024-11-27-11-27-31/
REMARK  0 active torsions:
REMARK  status: ('A' for Active; 'I' for Inactive)
REMARK                            x       y       z     vdW  Elec       q    Type
REMARK                         _______ _______ _______ _____ _____    ______ ____
ROOT
ATOM      1 CL   UNL A   1     -28.149  -0.820  28.908  0.00  0.00    -0.079 Cl
ATOM      2  C   UNL A   1     -26.912  -0.080  28.945  0.00  0.00    +0.100 A 
ATOM      3  C   UNL A   1     -25.966  -0.212  29.623  0.00  0.00    +0.181 A 
ATOM      4  C   UNL A   1     -24.704   0.553  29.622  0.00  0.00    +0.198 A 
ATOM      5  C   UNL A   1     -24.601   1.544  28.621  0.00  0.00    +0.198 A 
ATOM      6  C   UNL A   1     -25.667   1.716  27.803  0.00  0.00    +0.181 A 
ATOM      7  C   UNL A   1     -26.761   0.962  27.884  0.00  0.00    +0.100 A 
ATOM      8  F   UNL A   1     -23.523   2.281  28.605  0.00  0.00    -0.199 F 
ATOM      9 CL   UNL A   1     -28.019   1.240  26.743  0.00  0.00    -0.079 Cl
ATOM     10  F   UNL A   1     -23.680   0.389  30.484  0.00  0.00    -0.199 F 
ATOM     11  F   UNL A   1     -25.546   2.675  26.834  0.00  0.00    -0.201 F 
ATOM     12  F   UNL A   1     -25.878  -1.191  30.639  0.00  0.00    -0.201 F 
ENDROOT
TORSDOF 0
