MODEL 3024
MODEL 1
REMARK VINA RESULT:    -5.035      0.000      0.000
REMARK INTER + INTRA:          -5.035
REMARK INTER:                  -5.035
REMARK INTRA:                   0.000
REMARK UNBOUND:                 0.000
REMARK  Name = No_3024-gen_results/8p0m/2024-11-27-11-27-31/
REMARK  0 active torsions:
REMARK  status: ('A' for Active; 'I' for Inactive)
REMARK                            x       y       z     vdW  Elec       q    Type
REMARK                         _______ _______ _______ _____ _____    ______ ____
ROOT
ATOM      1 CL   UNL A   1     -12.063 -22.732  20.284  0.00  0.00    -0.079 Cl
ATOM      2  C   UNL A   1     -12.273 -21.670  19.331  0.00  0.00    +0.100 A 
ATOM      3  C   UNL A   1     -11.745 -21.450  18.309  0.00  0.00    +0.181 A 
ATOM      4  C   UNL A   1     -11.997 -20.361  17.345  0.00  0.00    +0.198 A 
ATOM      5  C   UNL A   1     -13.068 -19.501  17.674  0.00  0.00    +0.198 A 
ATOM      6  C   UNL A   1     -13.718 -19.734  18.840  0.00  0.00    +0.181 A 
ATOM      7  C   UNL A   1     -13.414 -20.755  19.638  0.00  0.00    +0.100 A 
ATOM      8  F   UNL A   1     -13.305 -18.494  16.878  0.00  0.00    -0.199 F 
ATOM      9 CL   UNL A   1     -14.359 -20.977  21.059  0.00  0.00    -0.079 Cl
ATOM     10  F   UNL A   1     -11.298 -20.128  16.216  0.00  0.00    -0.199 F 
ATOM     11  F   UNL A   1     -14.758 -18.895  19.138  0.00  0.00    -0.201 F 
ATOM     12  F   UNL A   1     -10.690 -22.242  17.801  0.00  0.00    -0.201 F 
ENDROOT
TORSDOF 0
ENDMDL
ENDMDL
