REMARK  Name = No_3026-gen_results/8p0m/2024-11-27-11-27-31/
REMARK  9 active torsions:
REMARK  status: ('A' for Active; 'I' for Inactive)
REMARK    1  A    between atoms: C_1  and  C_2
REMARK    2  A    between atoms: C_1  and  N_8
REMARK    3  A    between atoms: C_4  and  C_21
REMARK    4  A    between atoms: C_5  and  C_12
REMARK    5  A    between atoms: N_8  and  C_9
REMARK    6  A    between atoms: C_16  and  N_25
REMARK    7  A    between atoms: C_21  and  C_23
REMARK    8  A    between atoms: N_25  and  C_26
REMARK    9  A    between atoms: C_27  and  C_28
REMARK                            x       y       z     vdW  Elec       q    Type
REMARK                         _______ _______ _______ _____ _____    ______ ____
ROOT
ATOM      1  C   UNL A   1     -28.016  -0.814  28.878  0.00  0.00    +0.119 C 
ENDROOT
BRANCH   1   2
ATOM      2  C   UNL A   1     -27.064  -0.119  28.608  0.00  0.00    +0.006 A 
ATOM      3  C   UNL A   1     -25.792  -0.430  29.076  0.00  0.00    -0.005 A 
ATOM      4  C   UNL A   1     -24.546   0.349  28.823  0.00  0.00    -0.003 A 
ATOM      5  C   UNL A   1     -24.659   1.420  27.888  0.00  0.00    +0.053 A 
ATOM      6  C   UNL A   1     -25.947   1.681  27.379  0.00  0.00    +0.015 A 
ATOM      7  C   UNL A   1     -27.044   0.974  27.687  0.00  0.00    +0.055 A 
ATOM      8 CL   UNL A   1     -28.534   1.375  26.991  0.00  0.00    -0.083 Cl
BRANCH   5   9
ATOM      9  C   UNL A   1     -23.448   2.147  27.584  0.00  0.00    +0.265 C 
ATOM     10  N   UNL A   1     -22.519   1.811  27.221  0.00  0.00    -0.200 NA
ATOM     11  O   UNL A   1     -23.710   3.494  27.501  0.00  0.00    -0.268 OA
ATOM     12  C   UNL A   1     -21.349   2.513  27.001  0.00  0.00    +0.139 C 
ENDBRANCH   5   9
BRANCH   4  13
ATOM     13  C   UNL A   1     -23.262  -0.056  29.395  0.00  0.00    +0.132 C 
BRANCH  13  14
ATOM     14  C   UNL A   1     -23.029  -0.473  30.375  0.00  0.00    +0.078 C 
ATOM     15  N   UNL A   1     -23.006  -1.086  31.435  0.00  0.00    -0.196 NA
ENDBRANCH  13  14
ENDBRANCH   4  13
ENDBRANCH   1   2
BRANCH   1  16
ATOM     16  N   UNL A   1     -28.657  -0.553  30.096  0.00  0.00    -0.178 NA
BRANCH  16  17
ATOM     17  C   UNL A   1     -29.565  -0.526  30.535  0.00  0.00    +0.248 C 
ATOM     18  N   UNL A   1     -29.823  -0.269  31.926  0.00  0.00    -0.160 NA
ATOM     19  N   UNL A   1     -30.702  -1.098  29.902  0.00  0.00    -0.170 NA
ATOM     20  C   UNL A   1     -31.999  -1.169  30.460  0.00  0.00    +0.278 C 
ATOM     21  C   UNL A   1     -31.098  -0.316  32.492  0.00  0.00    +0.207 C 
ATOM     22  C   UNL A   1     -32.143  -0.787  31.751  0.00  0.00    +0.265 C 
ATOM     23  O   UNL A   1     -32.911  -1.581  29.721  0.00  0.00    -0.270 OA
ATOM     24  O   UNL A   1     -33.353  -0.838  32.302  0.00  0.00    -0.210 OA
BRANCH  21  25
ATOM     25  N   UNL A   1     -31.177   0.064  33.802  0.00  0.00    -0.217 NA
BRANCH  25  26
ATOM     26  C   UNL A   1     -30.558   0.695  34.523  0.00  0.00    +0.082 C 
ATOM     27  C   UNL A   1     -29.689   1.640  34.153  0.00  0.00    +0.017 C 
BRANCH  27  28
ATOM     28  C   UNL A   1     -30.049   2.719  33.459  0.00  0.00    +0.001 C 
ATOM     29  C   UNL A   1     -29.138   3.649  32.899  0.00  0.00    +0.000 C 
ENDBRANCH  27  28
ENDBRANCH  25  26
ENDBRANCH  21  25
ENDBRANCH  16  17
ENDBRANCH   1  16
TORSDOF 9
