REMARK  Name = outputs/IAG933/test6/raw/output_3027_IAG933_linker_design_.xyz
REMARK  17 active torsions:
REMARK  status: ('A' for Active; 'I' for Inactive)
REMARK    1  A    between atoms: C_1  and  C_2
REMARK    2  A    between atoms: C_1  and  C_8
REMARK    3  A    between atoms: C_9  and  C_43
REMARK    4  A    between atoms: C_13  and  C_35
REMARK    5  A    between atoms: C_14  and  C_15
REMARK    6  A    between atoms: C_21  and  O_22
REMARK    7  A    between atoms: O_22  and  C_23
REMARK    8  A    between atoms: C_23  and  C_24
REMARK    9  A    between atoms: O_28  and  C_45
REMARK   10  A    between atoms: C_29  and  C_48
REMARK   11  A    between atoms: C_30  and  N_32
REMARK   12  A    between atoms: N_32  and  C_35
REMARK   13  A    between atoms: N_32  and  C_36
REMARK   14  A    between atoms: C_36  and  C_47
REMARK   15  A    between atoms: C_37  and  C_42
REMARK   16  A    between atoms: C_37  and  C_43
REMARK   17  A    between atoms: C_43  and  C_47
REMARK                            x       y       z     vdW  Elec       q    Type
REMARK                         _______ _______ _______ _____ _____    ______ ____
ROOT
ATOM      1  C   UNL A   1     -25.153   1.872  31.420  0.00  0.00    +0.007 C 
ENDROOT
BRANCH   1   3
ATOM      2  C   UNL A   1     -25.387  -0.679  31.571  0.00  0.00    +0.077 C 
ATOM      3  C   UNL A   1     -25.189   0.773  32.028  0.00  0.00    +0.018 C 
ATOM      4  C   UNL A   1     -25.336   0.684  33.544  0.00  0.00    +0.020 C 
ATOM      5  C   UNL A   1     -24.829  -0.715  33.905  0.00  0.00    +0.089 C 
ATOM      6  N   UNL A   1     -24.758  -1.481  32.646  0.00  0.00    -0.219 NA
BRANCH   2   7
ATOM      7  C   UNL A   1     -24.855  -1.012  30.143  0.00  0.00    +0.044 C 
BRANCH   7   8
ATOM      8  C   UNL A   1     -24.973  -2.505  29.788  0.00  0.00    -0.021 C 
ATOM      9  C   UNL A   1     -23.906  -3.173  29.146  0.00  0.00    -0.004 C 
ATOM     10  C   UNL A   1     -23.989  -4.549  28.853  0.00  0.00    -0.000 C 
ATOM     11  C   UNL A   1     -25.137  -5.280  29.205  0.00  0.00    -0.000 C 
ATOM     12  C   UNL A   1     -26.232  -4.611  29.784  0.00  0.00    -0.000 C 
ATOM     13  C   UNL A   1     -26.155  -3.232  30.065  0.00  0.00    -0.004 C 
ENDBRANCH   7   8
ENDBRANCH   2   7
ENDBRANCH   1   3
BRANCH   1  14
ATOM     14  C   UNL A   1     -26.368   2.729  31.893  0.00  0.00    +0.026 C 
BRANCH  14  15
ATOM     15  C   UNL A   1     -26.002   3.751  33.007  0.00  0.00    -0.026 C 
ATOM     16  C   UNL A   1     -24.827   4.479  32.868  0.00  0.00    -0.003 C 
BRANCH  16  17
ATOM     17  C   UNL A   1     -24.435   5.329  33.462  0.00  0.00    +0.017 C 
ATOM     18  O   UNL A   1     -22.966   7.808  33.365  0.00  0.00    -0.084 OA
ATOM     19  C   UNL A   1     -24.130   7.597  36.889  0.00  0.00    +0.027 C 
ATOM     20  C   UNL A   1     -23.056   7.787  35.816  0.00  0.00    +0.135 C 
ATOM     21  C   UNL A   1     -25.529   8.200  36.561  0.00  0.00    +0.005 C 
ATOM     22  C   UNL A   1     -24.566   6.453  34.219  0.00  0.00    +0.090 C 
ATOM     23  N   UNL A   1     -23.581   7.387  34.514  0.00  0.00    -0.208 N 
ATOM     24  C   UNL A   1     -26.446   7.858  35.338  0.00  0.00    +0.036 C 
ATOM     25  C   UNL A   1     -25.997   6.581  34.662  0.00  0.00    +0.155 C 
BRANCH  25  26
ATOM     26  O   UNL A   1     -26.674   5.399  35.098  0.00  0.00    -0.348 OA
ATOM     27  C   UNL A   1     -27.216   5.385  36.473  0.00  0.00    +0.174 C 
ENDBRANCH  25  26
ENDBRANCH  16  17
ENDBRANCH  14  15
ENDBRANCH   1  14
BRANCH   1  28
ATOM     28  C   UNL A   1     -24.113   2.305  30.390  0.00  0.00    +0.018 C 
BRANCH  28  29
ATOM     29  C   UNL A   1     -23.628   1.443  29.398  0.00  0.00    +0.072 C 
BRANCH  29  30
ATOM     30  N   UNL A   1     -23.694   1.798  27.989  0.00  0.00    -0.269 NA
BRANCH  30  31
ATOM     31  C   UNL A   1     -22.273   1.673  27.470  0.00  0.00    +0.072 C 
ATOM     32  C   UNL A   1     -21.979   2.040  25.992  0.00  0.00    +0.019 C 
ENDBRANCH  30  31
BRANCH  30  33
ATOM     33  C   UNL A   1     -24.455   1.303  26.863  0.00  0.00    +0.102 C 
BRANCH  33  34
ATOM     34  C   UNL A   1     -25.688   1.614  26.461  0.00  0.00    +0.032 C 
ATOM     35  C   UNL A   1     -26.250   2.920  26.395  0.00  0.00    +0.074 C 
ATOM     36  C   UNL A   1     -27.438   3.091  25.645  0.00  0.00    +0.106 C 
ATOM     37  N   UNL A   1     -28.075   2.089  25.003  0.00  0.00    -0.208 NA
ATOM     38  C   UNL A   1     -27.543   0.849  25.079  0.00  0.00    +0.253 C 
ATOM     39  C   UNL A   1     -26.354   0.576  25.777  0.00  0.00    +0.190 C 
ATOM     40  F   UNL A   1     -25.860  -0.681  25.795  0.00  0.00    -0.200 F 
BRANCH  35  41
ATOM     41  C   UNL A   1     -25.642   4.093  27.123  0.00  0.00    +0.266 C 
ATOM     42  N   UNL A   1     -25.614   5.252  26.449  0.00  0.00    -0.200 NA
ATOM     43  C   UNL A   1     -25.026   6.479  26.963  0.00  0.00    +0.139 C 
ATOM     44  O   UNL A   1     -25.143   3.966  28.243  0.00  0.00    -0.268 OA
ENDBRANCH  35  41
BRANCH  38  45
ATOM     45  O   UNL A   1     -28.193  -0.208  24.477  0.00  0.00    -0.456 OA
BRANCH  45  46
ATOM     46  C   UNL A   1     -29.460   0.005  23.866  0.00  0.00    +0.243 C 
BRANCH  46  47
ATOM     47  C   UNL A   1     -30.065  -1.377  23.573  0.00  0.00    +0.229 C 
ATOM     48  O   UNL A   1     -30.729  -1.878  24.721  0.00  0.00    -0.216 OA
ENDBRANCH  46  47
ENDBRANCH  45  46
ENDBRANCH  38  45
ENDBRANCH  33  34
ENDBRANCH  30  33
ENDBRANCH  29  30
ENDBRANCH  28  29
ENDBRANCH   1  28
TORSDOF 17
