MODEL 3027
MODEL 1
REMARK VINA RESULT:    -5.781      0.000      0.000
REMARK INTER + INTRA:          -6.662
REMARK INTER:                  -6.457
REMARK INTRA:                  -0.204
REMARK UNBOUND:                -0.204
REMARK  Name = No_3027-gen_results/8p0m/2024-11-27-11-27-31/
REMARK  2 active torsions:
REMARK  status: ('A' for Active; 'I' for Inactive)
REMARK    1  A    between atoms: C_4  and  C_8
REMARK    2  A    between atoms: C_9  and  C_10
REMARK                            x       y       z     vdW  Elec       q    Type
REMARK                         _______ _______ _______ _____ _____    ______ ____
ROOT
ATOM      1  C   UNL A   1     -24.078  -4.706  28.703  0.00  0.00    +0.004 C 
ATOM      2  C   UNL A   1     -23.943  -3.514  28.550  0.00  0.00    +0.022 C 
ATOM      3  C   UNL A   1     -24.896  -2.617  29.020  0.00  0.00    -0.044 C 
ATOM      4  C   UNL A   1     -24.751  -1.209  28.931  0.00  0.00    -0.009 C 
ATOM      5  C   UNL A   1     -25.356  -5.245  29.173  0.00  0.00    +0.001 C 
ATOM      6  C   UNL A   1     -26.311  -4.441  29.744  0.00  0.00    +0.004 C 
ATOM      7  C   UNL A   1     -26.110  -3.061  29.668  0.00  0.00    +0.022 C 
ENDROOT
BRANCH   4   8
ATOM      8  C   UNL A   1     -23.606  -0.583  28.593  0.00  0.00    -0.001 C 
ATOM      9  C   UNL A   1     -23.312   0.549  28.395  0.00  0.00    -0.000 C 
BRANCH   9  10
ATOM     10  C   UNL A   1     -21.999   0.895  28.099  0.00  0.00    -0.000 C 
ATOM     11  C   UNL A   1     -21.800   1.835  27.088  0.00  0.00    -0.000 C 
ENDBRANCH   9  10
ENDBRANCH   4   8
TORSDOF 2
ENDMDL
ENDMDL
