MODEL 3028
MODEL 1
REMARK VINA RESULT:    -6.820      0.000      0.000
REMARK INTER + INTRA:          -8.283
REMARK INTER:                  -8.017
REMARK INTRA:                  -0.266
REMARK UNBOUND:                -0.266
REMARK  Name = No_3028-gen_results/8p0m/2024-11-27-11-27-31/
REMARK  3 active torsions:
REMARK  status: ('A' for Active; 'I' for Inactive)
REMARK    1  A    between atoms: C_6  and  O_7
REMARK    2  A    between atoms: O_7  and  C_16
REMARK    3  A    between atoms: C_16  and  C_17
REMARK                            x       y       z     vdW  Elec       q    Type
REMARK                         _______ _______ _______ _____ _____    ______ ____
ROOT
ATOM      1  C   UNL A   1     -23.312  -1.259  29.084  0.00  0.00    +0.037 A 
ATOM      2  C   UNL A   1     -24.055  -2.178  29.342  0.00  0.00    -0.001 A 
ATOM      3  C   UNL A   1     -25.394  -1.955  29.644  0.00  0.00    -0.016 A 
ATOM      4  C   UNL A   1     -25.928  -0.618  29.703  0.00  0.00    -0.001 A 
ATOM      5  C   UNL A   1     -24.994   0.385  29.414  0.00  0.00    +0.037 A 
ATOM      6  C   UNL A   1     -23.734   0.123  29.151  0.00  0.00    +0.139 A 
ATOM      7  C   UNL A   1     -26.419  -3.013  29.971  0.00  0.00    +0.070 C 
ATOM      8  C   UNL A   1     -26.195  -4.278  29.662  0.00  0.00    +0.002 C 
ATOM      9  C   UNL A   1     -25.552  -4.964  29.286  0.00  0.00    -0.002 C 
ATOM     10  C   UNL A   1     -24.270  -4.485  28.733  0.00  0.00    -0.000 C 
ATOM     11  C   UNL A   1     -23.743  -3.292  28.894  0.00  0.00    -0.000 C 
ATOM     12  C   UNL A   1     -27.703  -4.810  30.144  0.00  0.00    +0.089 C 
ATOM     13  N   UNL A   1     -28.529  -3.829  30.499  0.00  0.00    -0.269 NA
ATOM     14  C   UNL A   1     -27.728  -2.658  30.438  0.00  0.00    +0.134 C 
ENDROOT
BRANCH   6  15
ATOM     15  O   UNL A   1     -22.883   1.159  28.918  0.00  0.00    -0.464 OA
BRANCH  15  16
ATOM     16  C   UNL A   1     -22.339   1.336  27.701  0.00  0.00    +0.319 C 
BRANCH  16  17
ATOM     17  C   UNL A   1     -23.130   2.033  26.910  0.00  0.00    +0.408 C 
ATOM     18  O   UNL A   1     -23.366   1.764  25.909  0.00  0.00    -0.241 OA
ATOM     19  O   UNL A   1     -23.734   3.125  27.381  0.00  0.00    -0.241 OA
ENDBRANCH  16  17
ENDBRANCH  15  16
ENDBRANCH   6  15
TORSDOF 3
ENDMDL
ENDMDL
