REMARK  Name = outputs/IAG933/test6/raw/output_3028_IAG933_linker_design_.xyz
REMARK  13 active torsions:
REMARK  status: ('A' for Active; 'I' for Inactive)
REMARK    1  A    between atoms: C_1  and  C_2
REMARK    2  A    between atoms: C_1  and  C_8
REMARK    3  A    between atoms: C_1  and  C_28
REMARK    4  A    between atoms: C_13  and  C_31
REMARK    5  A    between atoms: C_14  and  C_15
REMARK    6  A    between atoms: C_21  and  O_22
REMARK    7  A    between atoms: O_22  and  C_23
REMARK    8  A    between atoms: C_23  and  C_24
REMARK    9  A    between atoms: C_28  and  N_38
REMARK   10  A    between atoms: C_28  and  C_39
REMARK   11  A    between atoms: C_30  and  C_37
REMARK   12  A    between atoms: C_30  and  C_41
REMARK   13  A    between atoms: C_36  and  C_41
REMARK                            x       y       z     vdW  Elec       q    Type
REMARK                         _______ _______ _______ _____ _____    ______ ____
ROOT
ATOM      1  C   UNL A   1     -24.327   1.329  27.147  0.00  0.00    +0.011 C 
ATOM      2  C   UNL A   1     -21.674   0.932  28.235  0.00  0.00    +0.001 C 
ATOM      3  C   UNL A   1     -22.804   0.374  28.849  0.00  0.00    -0.003 C 
ATOM      4  C   UNL A   1     -23.148   1.826  26.546  0.00  0.00    +0.058 C 
ATOM      5  C   UNL A   1     -24.105   0.591  28.348  0.00  0.00    -0.001 C 
ATOM      6 CL   UNL A   1     -23.212   2.638  25.022  0.00  0.00    -0.082 Cl
ATOM      7  C   UNL A   1     -21.887   1.689  27.076  0.00  0.00    +0.011 C 
ENDROOT
BRANCH   1   8
ATOM      8  C   UNL A   1     -25.688   1.614  26.461  0.00  0.00    +0.039 C 
ATOM      9  C   UNL A   1     -26.250   2.920  26.395  0.00  0.00    +0.077 C 
ATOM     10  C   UNL A   1     -27.438   3.091  25.645  0.00  0.00    +0.107 C 
ATOM     11  N   UNL A   1     -28.075   2.089  25.003  0.00  0.00    -0.208 NA
ATOM     12  C   UNL A   1     -27.543   0.849  25.079  0.00  0.00    +0.253 C 
ATOM     13  C   UNL A   1     -26.354   0.576  25.777  0.00  0.00    +0.193 C 
ATOM     14  F   UNL A   1     -25.860  -0.681  25.795  0.00  0.00    -0.199 F 
BRANCH   9  15
ATOM     15  C   UNL A   1     -25.642   4.093  27.123  0.00  0.00    +0.266 C 
ATOM     16  N   UNL A   1     -25.614   5.252  26.449  0.00  0.00    -0.200 NA
ATOM     17  C   UNL A   1     -25.026   6.479  26.963  0.00  0.00    +0.139 C 
ATOM     18  O   UNL A   1     -25.143   3.966  28.243  0.00  0.00    -0.268 OA
ENDBRANCH   9  15
BRANCH  12  19
ATOM     19  O   UNL A   1     -28.193  -0.208  24.477  0.00  0.00    -0.456 OA
BRANCH  19  20
ATOM     20  C   UNL A   1     -29.460   0.005  23.866  0.00  0.00    +0.243 C 
BRANCH  20  21
ATOM     21  C   UNL A   1     -30.065  -1.377  23.573  0.00  0.00    +0.229 C 
ATOM     22  O   UNL A   1     -30.729  -1.878  24.721  0.00  0.00    -0.216 OA
ENDBRANCH  20  21
ENDBRANCH  19  20
ENDBRANCH  12  19
ENDBRANCH   1   8
BRANCH   5  23
ATOM     23  C   UNL A   1     -25.296   0.073  29.141  0.00  0.00    +0.123 C 
BRANCH  23  26
ATOM     24  O   UNL A   1     -28.619  -0.001  28.981  0.00  0.00    -0.273 OA
ATOM     25  C   UNL A   1     -27.751   0.721  28.899  0.00  0.00    +0.242 C 
ATOM     26  N   UNL A   1     -26.576   0.098  28.434  0.00  0.00    -0.202 NA
BRANCH  25  27
ATOM     27  C   UNL A   1     -28.090   2.217  29.127  0.00  0.00    +0.095 C 
BRANCH  27  28
ATOM     28  C   UNL A   1     -29.126   2.296  30.256  0.00  0.00    +0.074 C 
BRANCH  28  30
ATOM     29  C   UNL A   1     -30.656   3.815  31.490  0.00  0.00    +0.072 C 
ATOM     30  C   UNL A   1     -29.758   3.632  30.318  0.00  0.00    +0.152 C 
ATOM     31  O   UNL A   1     -29.630   4.446  29.422  0.00  0.00    -0.296 OA
ENDBRANCH  28  30
ENDBRANCH  27  28
ENDBRANCH  25  27
ENDBRANCH  23  26
BRANCH  23  32
ATOM     32  C   UNL A   1     -24.855  -1.012  30.143  0.00  0.00    +0.062 C 
BRANCH  32  33
ATOM     33  C   UNL A   1     -24.973  -2.505  29.788  0.00  0.00    -0.019 C 
ATOM     34  C   UNL A   1     -23.906  -3.173  29.146  0.00  0.00    -0.004 C 
ATOM     35  C   UNL A   1     -23.989  -4.549  28.853  0.00  0.00    -0.000 C 
ATOM     36  C   UNL A   1     -25.137  -5.280  29.205  0.00  0.00    -0.000 C 
ATOM     37  C   UNL A   1     -26.232  -4.611  29.784  0.00  0.00    -0.000 C 
ATOM     38  C   UNL A   1     -26.155  -3.232  30.065  0.00  0.00    -0.004 C 
ENDBRANCH  32  33
BRANCH  32  39
ATOM     39  C   UNL A   1     -25.387  -0.679  31.571  0.00  0.00    +0.079 C 
ATOM     40  C   UNL A   1     -25.189   0.773  32.028  0.00  0.00    +0.019 C 
ATOM     41  C   UNL A   1     -25.336   0.684  33.544  0.00  0.00    +0.020 C 
ATOM     42  C   UNL A   1     -24.829  -0.715  33.905  0.00  0.00    +0.089 C 
ATOM     43  N   UNL A   1     -24.758  -1.481  32.646  0.00  0.00    -0.219 NA
ENDBRANCH  32  39
ENDBRANCH  23  32
ENDBRANCH   5  23
TORSDOF 13
