MODEL 3029
MODEL 1
REMARK VINA RESULT:    -8.130      0.000      0.000
REMARK INTER + INTRA:         -11.492
REMARK INTER:                 -10.506
REMARK INTRA:                  -0.985
REMARK UNBOUND:                -0.985
REMARK  Name = No_3029-gen_results/8p0m/2024-11-27-11-27-31/
REMARK  6 active torsions:
REMARK  status: ('A' for Active; 'I' for Inactive)
REMARK    1  A    between atoms: C_5  and  C_14
REMARK    2  A    between atoms: C_8  and  C_11
REMARK    3  A    between atoms: N_16  and  C_17
REMARK    4  A    between atoms: C_22  and  C_23
REMARK    5  A    between atoms: C_24  and  C_25
REMARK    6  A    between atoms: C_25  and  O_26
REMARK                            x       y       z     vdW  Elec       q    Type
REMARK                         _______ _______ _______ _____ _____    ______ ____
ROOT
ATOM      1  C   UNL A   1     -29.621  -9.596   9.436  0.00  0.00    +0.145 A 
ATOM      2  C   UNL A   1     -30.213  -8.649   9.899  0.00  0.00    +0.031 A 
ATOM      3  C   UNL A   1     -31.490  -8.690  10.432  0.00  0.00    +0.003 A 
ATOM      4  C   UNL A   1     -32.140  -9.959  10.460  0.00  0.00    +0.005 A 
ATOM      5  C   UNL A   1     -31.404 -11.019  10.088  0.00  0.00    +0.058 A 
ATOM      6  C   UNL A   1     -30.188 -10.889   9.640  0.00  0.00    +0.042 A 
ATOM      7  C   UNL A   1     -32.098  -7.349  10.738  0.00  0.00    +0.005 A 
ATOM      8  C   UNL A   1     -31.593  -6.260  10.381  0.00  0.00    +0.056 A 
ATOM      9  C   UNL A   1     -30.260  -6.210   9.850  0.00  0.00    +0.001 A 
ATOM     10  C   UNL A   1     -29.627  -7.273   9.571  0.00  0.00    -0.015 A 
ATOM     11  O   UNL A   1     -28.374  -9.624   8.959  0.00  0.00    -0.451 OA
ATOM     12  C   UNL A   1     -27.473  -9.020   9.183  0.00  0.00    +0.175 C 
ATOM     13  C   UNL A   1     -27.503  -7.536   9.296  0.00  0.00    +0.019 C 
ATOM     14  C   UNL A   1     -28.286  -6.930   9.306  0.00  0.00    +0.056 C 
ENDROOT
BRANCH   8  15
ATOM     15  C   UNL A   1     -32.227  -4.935  10.799  0.00  0.00    +0.284 C 
ATOM     16  N   UNL A   1     -33.016  -4.274   9.978  0.00  0.00    -0.084 NA
ATOM     17  O   UNL A   1     -32.199  -4.517  12.038  0.00  0.00    -0.267 OA
ENDBRANCH   8  15
BRANCH   5  18
ATOM     18  C   UNL A   1     -32.060 -12.352  10.259  0.00  0.00    +0.269 C 
ATOM     19  O   UNL A   1     -32.967 -12.532  10.866  0.00  0.00    -0.268 OA
ATOM     20  N   UNL A   1     -31.609 -13.346   9.419  0.00  0.00    -0.174 NA
BRANCH  20  21
ATOM     21  C   UNL A   1     -32.129 -14.724   9.504  0.00  0.00    +0.089 C 
ATOM     22  C   UNL A   1     -31.599 -15.553   9.990  0.00  0.00    +0.018 C 
BRANCH  22  23
ATOM     23  C   UNL A   1     -30.293 -15.562  10.268  0.00  0.00    +0.002 C 
ATOM     24  C   UNL A   1     -29.733 -15.402  11.427  0.00  0.00    +0.037 C 
BRANCH  24  25
ATOM     25  C   UNL A   1     -30.011 -14.851  12.555  0.00  0.00    +0.292 C 
ATOM     26  O   UNL A   1     -29.099 -15.174  12.863  0.00  0.00    -0.185 OA
BRANCH  25  27
ATOM     27  O   UNL A   1     -29.639 -13.673  12.846  0.00  0.00    -0.323 OA
ATOM     28  C   UNL A   1     -30.134 -13.802  12.877  0.00  0.00    +0.177 C 
ENDBRANCH  25  27
ENDBRANCH  24  25
ENDBRANCH  22  23
ENDBRANCH  20  21
ENDBRANCH   5  18
TORSDOF 6
ENDMDL
ENDMDL
