REMARK  Name = No_3029-gen_results/8p0m/2024-11-27-11-27-31/
REMARK  6 active torsions:
REMARK  status: ('A' for Active; 'I' for Inactive)
REMARK    1  A    between atoms: C_5  and  C_14
REMARK    2  A    between atoms: C_8  and  C_11
REMARK    3  A    between atoms: N_16  and  C_17
REMARK    4  A    between atoms: C_22  and  C_23
REMARK    5  A    between atoms: C_24  and  C_25
REMARK    6  A    between atoms: C_25  and  O_26
REMARK                            x       y       z     vdW  Elec       q    Type
REMARK                         _______ _______ _______ _____ _____    ______ ____
ROOT
ATOM      1  C   UNL A   1     -28.016  -0.814  28.878  0.00  0.00    +0.145 A 
ATOM      2  C   UNL A   1     -27.064  -0.119  28.608  0.00  0.00    +0.031 A 
ATOM      3  C   UNL A   1     -26.972   0.714  27.506  0.00  0.00    +0.003 A 
ATOM      4  C   UNL A   1     -28.105   0.774  26.642  0.00  0.00    +0.005 A 
ATOM      5  C   UNL A   1     -29.204   0.118  27.048  0.00  0.00    +0.058 A 
ATOM      6  C   UNL A   1     -29.213  -0.609  28.128  0.00  0.00    +0.042 A 
ATOM      7  C   UNL A   1     -25.610   1.303  27.263  0.00  0.00    +0.005 A 
ATOM      8  C   UNL A   1     -24.579   0.945  27.878  0.00  0.00    +0.056 A 
ATOM      9  C   UNL A   1     -24.672   0.100  29.035  0.00  0.00    +0.001 A 
ATOM     10  C   UNL A   1     -25.772  -0.440  29.363  0.00  0.00    -0.015 A 
ATOM     11  O   UNL A   1     -28.180  -1.593  29.950  0.00  0.00    -0.451 OA
ATOM     12  C   UNL A   1     -27.774  -1.544  30.980  0.00  0.00    +0.175 C 
ATOM     13  C   UNL A   1     -26.340  -1.273  31.271  0.00  0.00    +0.019 C 
ATOM     14  C   UNL A   1     -25.620  -1.001  30.647  0.00  0.00    +0.056 C 
ENDROOT
BRANCH   8  15
ATOM     15  C   UNL A   1     -23.245   1.646  27.633  0.00  0.00    +0.284 C 
ATOM     16  N   UNL A   1     -22.328   1.705  28.576  0.00  0.00    -0.084 NA
ATOM     17  O   UNL A   1     -22.868   2.014  26.436  0.00  0.00    -0.267 OA
ENDBRANCH   8  15
BRANCH   5  18
ATOM     18  C   UNL A   1     -30.420   0.310  26.198  0.00  0.00    +0.269 C 
ATOM     19  O   UNL A   1     -31.453   0.084  26.521  0.00  0.00    -0.268 OA
ATOM     20  N   UNL A   1     -30.223   1.018  25.033  0.00  0.00    -0.174 NA
BRANCH  20  21
ATOM     21  C   UNL A   1     -31.319   1.245  24.072  0.00  0.00    +0.089 C 
ATOM     22  C   UNL A   1     -32.079   0.496  23.818  0.00  0.00    +0.018 C 
BRANCH  22  23
ATOM     23  C   UNL A   1     -31.961  -0.815  24.042  0.00  0.00    +0.002 C 
ATOM     24  C   UNL A   1     -31.874  -1.414  25.189  0.00  0.00    +0.037 C 
BRANCH  24  25
ATOM     25  C   UNL A   1     -31.502  -1.135  26.388  0.00  0.00    +0.292 C 
ATOM     26  O   UNL A   1     -32.465  -0.859  26.553  0.00  0.00    -0.185 OA
BRANCH  25  27
ATOM     27  O   UNL A   1     -31.623  -1.958  27.346  0.00  0.00    -0.323 OA
ATOM     28  C   UNL A   1     -31.245  -2.014  27.005  0.00  0.00    +0.177 C 
ENDBRANCH  25  27
ENDBRANCH  24  25
ENDBRANCH  22  23
ENDBRANCH  20  21
ENDBRANCH   5  18
TORSDOF 6
