MODEL 302
MODEL 1
REMARK VINA RESULT:    -5.039      0.000      0.000
REMARK INTER + INTRA:          -5.361
REMARK INTER:                  -5.333
REMARK INTRA:                  -0.028
REMARK UNBOUND:                -0.028
REMARK  Name = No_302-gen_results/8p0m/2024-11-27-11-27-31/
REMARK  1 active torsions:
REMARK  status: ('A' for Active; 'I' for Inactive)
REMARK    1  A    between atoms: C_2  and  C_7
REMARK                            x       y       z     vdW  Elec       q    Type
REMARK                         _______ _______ _______ _____ _____    ______ ____
ROOT
ATOM      1  C   UNL A   1      -8.198  -8.903  17.281  0.00  0.00    +0.007 A 
ATOM      2  C   UNL A   1      -8.704  -9.522  17.968  0.00  0.00    +0.080 A 
ATOM      3  C   UNL A   1      -7.262  -7.918  17.847  0.00  0.00    +0.000 A 
ATOM      4  C   UNL A   1      -6.964  -7.918  19.241  0.00  0.00    +0.000 A 
ATOM      5  C   UNL A   1      -8.539  -9.759  19.428  0.00  0.00    +0.007 A 
ATOM      6  C   UNL A   1      -7.685  -8.858  19.991  0.00  0.00    +0.000 A 
ENDROOT
BRANCH   2   7
ATOM      7  C   UNL A   1      -9.713 -10.614  17.394  0.00  0.00    +0.388 C 
ATOM      8  O   UNL A   1     -10.864 -10.231  17.008  0.00  0.00    -0.241 OA
ATOM      9  O   UNL A   1      -9.421 -11.826  17.642  0.00  0.00    -0.241 OA
ENDBRANCH   2   7
TORSDOF 1
ENDMDL
ENDMDL
