REMARK  Name = No_303-gen_results/8p0m/2024-11-27-11-27-31/
REMARK  1 active torsions:
REMARK  status: ('A' for Active; 'I' for Inactive)
REMARK    1  A    between atoms: C_6  and  C_8
REMARK                            x       y       z     vdW  Elec       q    Type
REMARK                         _______ _______ _______ _____ _____    ______ ____
ROOT
ATOM      1  C   UNL A   1     -28.016  -0.814  28.878  0.00  0.00    +0.019 A 
ATOM      2  C   UNL A   1     -27.064  -0.119  28.608  0.00  0.00    +0.058 A 
ATOM      3  C   UNL A   1     -25.792  -0.430  29.076  0.00  0.00    +0.011 A 
ATOM      4  C   UNL A   1     -25.576  -1.565  29.936  0.00  0.00    +0.001 A 
ATOM      5  C   UNL A   1     -26.735  -2.300  30.217  0.00  0.00    +0.008 A 
ATOM      6  C   UNL A   1     -27.918  -1.954  29.763  0.00  0.00    +0.090 A 
ATOM      7 CL   UNL A   1     -27.146   1.292  27.641  0.00  0.00    -0.082 Cl
ENDROOT
BRANCH   6   8
ATOM      8  C   UNL A   1     -29.068  -2.788  30.181  0.00  0.00    +0.385 C 
ATOM      9  N   UNL A   1     -28.957  -4.077  30.436  0.00  0.00    -0.030 NA
ATOM     10  C   UNL A   1     -30.067  -4.837  30.726  0.00  0.00    +0.237 C 
ATOM     11  C   UNL A   1     -30.500  -4.833  31.724  0.00  0.00    +0.062 C 
ATOM     12  C   UNL A   1     -31.448  -3.725  31.998  0.00  0.00    +0.093 C 
ATOM     13  N   UNL A   1     -30.152  -2.037  30.567  0.00  0.00    +0.014 NA
ATOM     14  C   UNL A   1     -31.132  -2.432  31.198  0.00  0.00    +0.133 C 
ENDBRANCH   6   8
TORSDOF 1
