MODEL 3030
MODEL 1
REMARK VINA RESULT:    -7.298      0.000      0.000
REMARK INTER + INTRA:         -10.006
REMARK INTER:                  -8.578
REMARK INTRA:                  -1.428
REMARK UNBOUND:                -1.428
REMARK  Name = No_3030-gen_results/8p0m/2024-11-27-11-27-31/
REMARK  3 active torsions:
REMARK  status: ('A' for Active; 'I' for Inactive)
REMARK    1  A    between atoms: C_3  and  O_14
REMARK    2  A    between atoms: C_4  and  C_8
REMARK    3  A    between atoms: O_14  and  C_15
REMARK                            x       y       z     vdW  Elec       q    Type
REMARK                         _______ _______ _______ _____ _____    ______ ____
ROOT
ATOM      1  F   UNL A   1     -27.650  -3.842  30.413  0.00  0.00    -0.201 F 
ATOM      2  C   UNL A   1     -26.502  -3.754  29.962  0.00  0.00    +0.174 A 
ATOM      3  C   UNL A   1     -26.038  -2.642  29.655  0.00  0.00    +0.172 A 
ATOM      4  C   UNL A   1     -24.778  -2.418  28.973  0.00  0.00    +0.037 A 
ATOM      5  C   UNL A   1     -24.051  -3.564  28.603  0.00  0.00    +0.003 A 
ATOM      6  C   UNL A   1     -24.606  -4.798  28.886  0.00  0.00    +0.003 A 
ATOM      7  C   UNL A   1     -25.771  -4.876  29.514  0.00  0.00    +0.033 A 
ENDROOT
BRANCH   4   8
ATOM      8  C   UNL A   1     -24.046  -1.221  28.503  0.00  0.00    +0.003 A 
ATOM      9  C   UNL A   1     -24.504  -0.460  27.491  0.00  0.00    +0.000 A 
ATOM     10  C   UNL A   1     -22.852  -0.773  29.154  0.00  0.00    +0.000 A 
ATOM     11  C   UNL A   1     -22.231   0.419  28.679  0.00  0.00    +0.000 A 
ATOM     12  C   UNL A   1     -23.848   0.691  27.006  0.00  0.00    +0.000 A 
ATOM     13  C   UNL A   1     -22.731   1.117  27.648  0.00  0.00    +0.000 A 
ENDBRANCH   4   8
BRANCH   3  14
ATOM     14  O   UNL A   1     -26.667  -1.490  29.909  0.00  0.00    -0.452 OA
BRANCH  14  15
ATOM     15  C   UNL A   1     -26.231  -0.620  30.812  0.00  0.00    +0.141 A 
ATOM     16  C   UNL A   1     -26.401   0.506  30.609  0.00  0.00    +0.013 A 
ATOM     17  C   UNL A   1     -26.918   1.097  29.627  0.00  0.00    +0.034 C 
ATOM     18  C   UNL A   1     -25.774   1.428  31.689  0.00  0.00    -0.002 A 
ATOM     19  C   UNL A   1     -25.079   0.974  32.664  0.00  0.00    -0.004 A 
ATOM     20  C   UNL A   1     -24.967  -0.436  32.799  0.00  0.00    -0.019 A 
ATOM     21  C   UNL A   1     -24.218  -0.981  33.901  0.00  0.00    +0.031 C 
ATOM     22  C   UNL A   1     -25.543  -1.207  31.873  0.00  0.00    +0.033 A 
ENDBRANCH  14  15
ENDBRANCH   3  14
TORSDOF 3
ENDMDL
ENDMDL
