MODEL 3031
MODEL 1
REMARK VINA RESULT:    -7.579      0.000      0.000
REMARK INTER + INTRA:         -11.808
REMARK INTER:                 -10.680
REMARK INTRA:                  -1.127
REMARK UNBOUND:                -1.127
REMARK  Name = No_3031-gen_results/8p0m/2024-11-27-11-27-31/
REMARK  7 active torsions:
REMARK  status: ('A' for Active; 'I' for Inactive)
REMARK    1  A    between atoms: C_4  and  C_8
REMARK    2  A    between atoms: C_7  and  O_12
REMARK    3  A    between atoms: O_12  and  C_13
REMARK    4  A    between atoms: C_13  and  C_14
REMARK    5  A    between atoms: C_23  and  C_32
REMARK    6  A    between atoms: C_26  and  C_28
REMARK    7  A    between atoms: C_28  and  O_30
REMARK                            x       y       z     vdW  Elec       q    Type
REMARK                         _______ _______ _______ _____ _____    ______ ____
ROOT
ATOM      1  C   UNL A   1     -21.134 -18.602   5.243  0.00  0.00    +0.020 A 
ATOM      2  C   UNL A   1     -20.905 -19.835   4.463  0.00  0.00    -0.001 A 
ATOM      3  C   UNL A   1     -19.932 -20.810   4.762  0.00  0.00    -0.003 A 
ATOM      4  C   UNL A   1     -19.143 -20.559   5.896  0.00  0.00    -0.000 A 
ATOM      5  C   UNL A   1     -19.263 -19.464   6.678  0.00  0.00    -0.000 A 
ATOM      6  C   UNL A   1     -20.239 -18.542   6.366  0.00  0.00    -0.001 A 
ATOM      7  C   UNL A   1     -18.086 -21.551   6.258  0.00  0.00    +0.000 A 
ATOM      8  C   UNL A   1     -18.078 -22.726   5.645  0.00  0.00    -0.000 A 
ATOM      9  C   UNL A   1     -18.951 -22.888   4.470  0.00  0.00    -0.003 A 
ATOM     10  C   UNL A   1     -19.873 -21.997   4.048  0.00  0.00    -0.012 A 
ATOM     11  C   UNL A   1     -17.093 -23.721   5.945  0.00  0.00    +0.000 A 
ATOM     12  C   UNL A   1     -16.346 -23.707   6.833  0.00  0.00    +0.006 A 
ATOM     13  C   UNL A   1     -16.461 -22.638   7.757  0.00  0.00    +0.076 A 
ATOM     14  C   UNL A   1     -17.350 -21.480   7.428  0.00  0.00    +0.006 A 
ENDROOT
BRANCH  10  15
ATOM     15  C   UNL A   1     -20.731 -22.217   2.927  0.00  0.00    +0.079 C 
ATOM     16 BR   UNL A   1     -20.975 -21.879   1.524  0.00  0.00    -0.077 Br
ATOM     17  C   UNL A   1     -21.892 -23.179   3.540  0.00  0.00    +0.017 C 
ENDBRANCH  10  15
BRANCH   1  18
ATOM     18  C   UNL A   1     -22.015 -17.790   4.959  0.00  0.00    +0.218 C 
ATOM     19 CL   UNL A   1     -23.503 -18.318   4.290  0.00  0.00    -0.077 Cl
BRANCH  18  20
ATOM     20  O   UNL A   1     -21.841 -16.621   5.161  0.00  0.00    -0.332 OA
BRANCH  20  27
ATOM     21  O   UNL A   1     -22.143 -14.949   3.307  0.00  0.00    -0.293 OA
ATOM     22  C   UNL A   1     -22.811 -14.553   4.270  0.00  0.00    +0.178 C 
ATOM     23  C   UNL A   1     -23.541 -13.718   4.527  0.00  0.00    +0.076 C 
ATOM     24  C   UNL A   1     -24.460 -13.536   5.714  0.00  0.00    +0.086 C 
ATOM     25  C   UNL A   1     -24.317 -14.486   6.688  0.00  0.00    +0.013 C 
ATOM     26  C   UNL A   1     -23.452 -15.531   6.449  0.00  0.00    +0.038 C 
ATOM     27  C   UNL A   1     -22.704 -15.648   5.419  0.00  0.00    +0.174 C 
BRANCH  24  28
ATOM     28  C   UNL A   1     -25.357 -12.415   5.925  0.00  0.00    +0.241 C 
ATOM     29  N   UNL A   1     -25.259 -11.322   5.201  0.00  0.00    -0.203 NA
ATOM     30  O   UNL A   1     -26.194 -12.438   6.877  0.00  0.00    -0.273 OA
ATOM     31  C   UNL A   1     -25.649 -10.077   5.511  0.00  0.00    +0.139 C 
ENDBRANCH  24  28
ENDBRANCH  20  27
ENDBRANCH  18  20
ENDBRANCH   1  18
BRANCH  13  32
ATOM     32  C   UNL A   1     -15.586 -22.410   8.930  0.00  0.00    +0.341 C 
ATOM     33  O   UNL A   1     -14.549 -22.077   9.077  0.00  0.00    -0.245 OA
BRANCH  32  34
ATOM     34  O   UNL A   1     -16.212 -22.752  10.159  0.00  0.00    -0.441 OA
ATOM     35  C   UNL A   1     -16.242 -23.985  10.522  0.00  0.00    +0.256 C 
ENDBRANCH  32  34
ENDBRANCH  13  32
TORSDOF 7
ENDMDL
ENDMDL
