REMARK  Name = outputs/IAG933/test6/raw/output_3031_IAG933_linker_design_.xyz
REMARK  9 active torsions:
REMARK  status: ('A' for Active; 'I' for Inactive)
REMARK    1  A    between atoms: C_1  and  C_2
REMARK    2  A    between atoms: C_1  and  C_8
REMARK    3  A    between atoms: C_1  and  C_44
REMARK    4  A    between atoms: C_21  and  O_22
REMARK    5  A    between atoms: O_22  and  C_23
REMARK    6  A    between atoms: C_23  and  C_24
REMARK    7  A    between atoms: C_28  and  O_43
REMARK    8  A    between atoms: C_36  and  C_42
REMARK    9  A    between atoms: C_38  and  C_39
REMARK                            x       y       z     vdW  Elec       q    Type
REMARK                         _______ _______ _______ _____ _____    ______ ____
ROOT
ATOM      1  C   UNL A   1     -25.688   1.614  26.461  0.00  0.00    +0.044 C 
ATOM      2  C   UNL A   1     -26.250   2.920  26.395  0.00  0.00    +0.075 C 
ATOM      3  C   UNL A   1     -25.642   4.093  27.123  0.00  0.00    +0.225 C 
ATOM      4  N   UNL A   1     -25.614   5.252  26.449  0.00  0.00    -0.236 NA
ATOM      5  C   UNL A   1     -25.026   6.479  26.963  0.00  0.00    +0.155 C 
ATOM      6  O   UNL A   1     -25.143   3.966  28.243  0.00  0.00    -0.421 OA
ATOM      7  C   UNL A   1     -27.438   3.091  25.645  0.00  0.00    +0.107 C 
ATOM      8  N   UNL A   1     -28.075   2.089  25.003  0.00  0.00    -0.208 NA
ATOM      9  C   UNL A   1     -27.543   0.849  25.079  0.00  0.00    +0.253 C 
ATOM     10  C   UNL A   1     -26.354   0.576  25.777  0.00  0.00    +0.193 C 
ATOM     11  F   UNL A   1     -25.860  -0.681  25.795  0.00  0.00    -0.199 F 
ATOM     12  C   UNL A   1     -22.983   1.242  27.016  0.00  0.00    +0.194 C 
ATOM     13  O   UNL A   1     -22.625   0.328  29.109  0.00  0.00    -0.445 OA
ATOM     14  C   UNL A   1     -24.314   1.155  27.266  0.00  0.00    +0.075 C 
ATOM     15  C   UNL A   1     -22.132   0.983  28.040  0.00  0.00    +0.385 C 
ATOM     16  C   UNL A   1     -24.836   0.581  28.260  0.00  0.00    +0.175 C 
ATOM     17  O   UNL A   1     -25.905   1.276  28.914  0.00  0.00    -0.435 OA
ATOM     18  C   UNL A   1     -25.593   2.679  29.088  0.00  0.00    +0.407 C 
ATOM     19  F   UNL A   1     -20.810   1.260  27.990  0.00  0.00    -0.180 F 
ATOM     20  C   UNL A   1     -24.026  -0.016  29.205  0.00  0.00    +0.158 C 
ENDROOT
BRANCH  18  24
ATOM     21  C   UNL A   1     -28.631   3.414  31.525  0.00  0.00    +0.032 C 
ATOM     22  C   UNL A   1     -27.701   2.782  30.532  0.00  0.00    +0.031 C 
ATOM     23  O   UNL A   1     -26.147   4.492  30.563  0.00  0.00    -0.284 OA
ATOM     24  C   UNL A   1     -26.503   3.318  30.102  0.00  0.00    +0.251 C 
BRANCH  22  26
ATOM     25  O   UNL A   1     -28.782   1.582  28.721  0.00  0.00    -0.215 OA
ATOM     26  C   UNL A   1     -28.333   1.468  30.111  0.00  0.00    +0.207 C 
ENDBRANCH  22  26
ENDBRANCH  18  24
BRANCH  12  28
ATOM     27  C   UNL A   1     -21.594   2.087  25.294  0.00  0.00    +0.252 C 
ATOM     28  O   UNL A   1     -22.701   1.428  25.816  0.00  0.00    -0.469 OA
ENDBRANCH  12  28
BRANCH  20  29
ATOM     29  C   UNL A   1     -24.855  -1.012  30.143  0.00  0.00    +0.098 C 
BRANCH  29  30
ATOM     30  C   UNL A   1     -24.973  -2.505  29.788  0.00  0.00    -0.014 C 
ATOM     31  C   UNL A   1     -23.906  -3.173  29.146  0.00  0.00    -0.004 C 
ATOM     32  C   UNL A   1     -23.989  -4.549  28.853  0.00  0.00    -0.000 C 
ATOM     33  C   UNL A   1     -25.137  -5.280  29.205  0.00  0.00    -0.000 C 
ATOM     34  C   UNL A   1     -26.232  -4.611  29.784  0.00  0.00    -0.000 C 
ATOM     35  C   UNL A   1     -26.155  -3.232  30.065  0.00  0.00    -0.004 C 
ENDBRANCH  29  30
BRANCH  29  36
ATOM     36  C   UNL A   1     -25.387  -0.679  31.571  0.00  0.00    +0.084 C 
ATOM     37  C   UNL A   1     -25.189   0.773  32.028  0.00  0.00    +0.020 C 
ATOM     38  C   UNL A   1     -25.336   0.684  33.544  0.00  0.00    +0.020 C 
ATOM     39  C   UNL A   1     -24.829  -0.715  33.905  0.00  0.00    +0.089 C 
ATOM     40  N   UNL A   1     -24.758  -1.481  32.646  0.00  0.00    -0.219 NA
ENDBRANCH  29  36
ENDBRANCH  20  29
BRANCH   9  41
ATOM     41  O   UNL A   1     -28.193  -0.208  24.477  0.00  0.00    -0.456 OA
BRANCH  41  42
ATOM     42  C   UNL A   1     -29.460   0.005  23.866  0.00  0.00    +0.243 C 
BRANCH  42  43
ATOM     43  C   UNL A   1     -30.065  -1.377  23.573  0.00  0.00    +0.229 C 
ATOM     44  O   UNL A   1     -30.729  -1.878  24.721  0.00  0.00    -0.216 OA
ENDBRANCH  42  43
ENDBRANCH  41  42
ENDBRANCH   9  41
TORSDOF 9
