MODEL 3032
MODEL 1
REMARK VINA RESULT:    -5.842      0.000      0.000
REMARK INTER + INTRA:          -7.366
REMARK INTER:                  -6.867
REMARK INTRA:                  -0.499
REMARK UNBOUND:                -0.499
REMARK  Name = No_3032-gen_results/8p0m/2024-11-27-11-27-31/
REMARK  3 active torsions:
REMARK  status: ('A' for Active; 'I' for Inactive)
REMARK    1  A    between atoms: C_7  and  C_8
REMARK    2  A    between atoms: C_9  and  C_10
REMARK    3  A    between atoms: C_11  and  C_12
REMARK                            x       y       z     vdW  Elec       q    Type
REMARK                         _______ _______ _______ _____ _____    ______ ____
ROOT
ATOM      1  C   UNL A   1     -26.536  -3.000  30.005  0.00  0.00    +0.030 A 
ATOM      2  C   UNL A   1     -26.418  -4.194  29.850  0.00  0.00    +0.140 A 
ATOM      3  F   UNL A   1     -27.369  -4.984  30.090  0.00  0.00    -0.204 F 
ATOM      4  C   UNL A   1     -25.292  -4.874  29.210  0.00  0.00    +0.030 A 
ATOM      5  C   UNL A   1     -25.327  -2.180  29.861  0.00  0.00    +0.002 A 
ATOM      6  C   UNL A   1     -24.183  -4.069  28.945  0.00  0.00    +0.002 A 
ATOM      7  C   UNL A   1     -24.238  -2.734  29.256  0.00  0.00    +0.000 A 
ENDROOT
BRANCH   7   8
ATOM      8  C   UNL A   1     -23.061  -1.900  28.965  0.00  0.00    +0.000 C 
ATOM      9  C   UNL A   1     -23.126  -0.653  29.031  0.00  0.00    +0.000 C 
BRANCH   9  10
ATOM     10  C   UNL A   1     -22.559   0.254  29.005  0.00  0.00    +0.000 C 
ATOM     11  C   UNL A   1     -22.532   1.428  28.070  0.00  0.00    +0.000 C 
BRANCH  11  12
ATOM     12  C   UNL A   1     -23.432   1.265  27.023  0.00  0.00    +0.000 C 
ATOM     13  C   UNL A   1     -23.342   1.885  25.875  0.00  0.00    +0.000 C 
ENDBRANCH  11  12
ENDBRANCH   9  10
ENDBRANCH   7   8
TORSDOF 3
ENDMDL
ENDMDL
