MODEL 3033
MODEL 1
REMARK VINA RESULT:    -7.025      0.000      0.000
REMARK INTER + INTRA:         -10.064
REMARK INTER:                  -9.079
REMARK INTRA:                  -0.985
REMARK UNBOUND:                -0.985
REMARK  Name = No_3033-gen_results/8p0m/2024-11-27-11-27-31/
REMARK  5 active torsions:
REMARK  status: ('A' for Active; 'I' for Inactive)
REMARK    1  A    between atoms: C_3  and  C_4
REMARK    2  A    between atoms: C_4  and  C_8
REMARK    3  A    between atoms: C_8  and  C_9
REMARK    4  A    between atoms: C_8  and  C_15
REMARK    5  A    between atoms: C_15  and  N_17
REMARK                            x       y       z     vdW  Elec       q    Type
REMARK                         _______ _______ _______ _____ _____    ______ ____
ROOT
ATOM      1  C   UNL A   1     -24.246  -0.533  29.662  0.00  0.00    +0.143 C 
ENDROOT
BRANCH   1   2
ATOM      2  C   UNL A   1     -23.261   0.008  29.023  0.00  0.00    -0.010 A 
ATOM      3  C   UNL A   1     -21.913  -0.552  29.133  0.00  0.00    -0.004 A 
ATOM      4  C   UNL A   1     -20.856   0.110  28.401  0.00  0.00    -0.000 A 
ATOM      5  C   UNL A   1     -21.169   1.216  27.601  0.00  0.00    -0.000 A 
ATOM      6  C   UNL A   1     -22.495   1.659  27.425  0.00  0.00    -0.000 A 
ATOM      7  C   UNL A   1     -23.493   1.057  28.162  0.00  0.00    -0.004 A 
ENDBRANCH   1   2
BRANCH   1   8
ATOM      8  C   UNL A   1     -24.463  -0.297  31.042  0.00  0.00    +0.407 C 
ATOM      9  N   UNL A   1     -24.675   0.585  31.614  0.00  0.00    +0.195 NA
BRANCH   8  10
ATOM     10  N   UNL A   1     -24.178  -1.384  31.909  0.00  0.00    -0.026 NA
ATOM     11  C   UNL A   1     -23.110  -1.161  32.665  0.00  0.00    +0.286 C 
ENDBRANCH   8  10
ENDBRANCH   1   8
BRANCH   1  12
ATOM     12  C   UNL A   1     -25.179  -1.337  28.999  0.00  0.00    +0.043 C 
BRANCH  12  15
ATOM     13  C   UNL A   1     -23.914  -3.597  28.509  0.00  0.00    -0.004 A 
ATOM     14  C   UNL A   1     -24.063  -4.640  28.513  0.00  0.00    -0.000 A 
ATOM     15  C   UNL A   1     -25.070  -2.774  29.033  0.00  0.00    -0.021 A 
ATOM     16  C   UNL A   1     -25.095  -5.481  29.133  0.00  0.00    -0.000 A 
ATOM     17  C   UNL A   1     -26.172  -4.800  29.659  0.00  0.00    -0.000 A 
ATOM     18  C   UNL A   1     -26.191  -3.429  29.660  0.00  0.00    -0.004 A 
ENDBRANCH  12  15
ENDBRANCH   1  12
TORSDOF 5
ENDMDL
ENDMDL
