MODEL 3034
MODEL 1
REMARK VINA RESULT:    -6.725      0.000      0.000
REMARK INTER + INTRA:          -9.580
REMARK INTER:                  -8.691
REMARK INTRA:                  -0.889
REMARK UNBOUND:                -0.889
REMARK  Name = No_3034-gen_results/8p0m/2024-11-27-11-27-31/
REMARK  5 active torsions:
REMARK  status: ('A' for Active; 'I' for Inactive)
REMARK    1  A    between atoms: C_1  and  O_19
REMARK    2  A    between atoms: C_12  and  O_14
REMARK    3  A    between atoms: O_19  and  C_20
REMARK    4  A    between atoms: C_20  and  C_21
REMARK    5  A    between atoms: C_26  and  O_27
REMARK                            x       y       z     vdW  Elec       q    Type
REMARK                         _______ _______ _______ _____ _____    ______ ____
ROOT
ATOM      1  C   UNL A   1     -11.829   1.713  36.541  0.00  0.00    +0.160 A 
ATOM      2  C   UNL A   1     -12.631   2.130  37.344  0.00  0.00    +0.095 A 
ATOM      3  C   UNL A   1     -13.852   2.701  36.989  0.00  0.00    +0.048 A 
ATOM      4  C   UNL A   1     -14.881   3.244  37.898  0.00  0.00    +0.006 A 
ATOM      5  C   UNL A   1     -16.116   3.865  37.494  0.00  0.00    +0.021 A 
ATOM      6  C   UNL A   1     -17.034   4.337  38.453  0.00  0.00    +0.002 A 
ATOM      7  C   UNL A   1     -12.077   1.967  35.089  0.00  0.00    +0.095 A 
ATOM      8  C   UNL A   1     -13.275   2.443  34.634  0.00  0.00    +0.051 A 
ATOM      9  C   UNL A   1     -14.244   2.891  35.572  0.00  0.00    +0.141 A 
ATOM     10  C   UNL A   1     -16.925   3.973  39.831  0.00  0.00    +0.037 A 
ATOM     11  C   UNL A   1     -14.826   2.995  39.337  0.00  0.00    +0.037 A 
ATOM     12  C   UNL A   1     -15.797   3.364  40.221  0.00  0.00    +0.139 A 
ATOM     13 CL   UNL A   1     -10.811   1.510  34.042  0.00  0.00    -0.079 Cl
ATOM     14 CL   UNL A   1     -12.348   1.897  39.061  0.00  0.00    -0.079 Cl
ATOM     15  O   UNL A   1     -15.308   3.398  35.135  0.00  0.00    -0.471 OA
ATOM     16  C   UNL A   1     -16.293   3.931  36.019  0.00  0.00    +0.232 C 
ENDROOT
BRANCH  12  17
ATOM     17  O   UNL A   1     -15.797   3.014  41.511  0.00  0.00    -0.471 OA
ATOM     18  C   UNL A   1     -15.250   1.805  41.751  0.00  0.00    +0.253 C 
ENDBRANCH  12  17
BRANCH   1  19
ATOM     19  O   UNL A   1     -10.646   1.172  36.806  0.00  0.00    -0.469 OA
BRANCH  19  20
ATOM     20  C   UNL A   1     -10.361  -0.072  36.792  0.00  0.00    +0.232 C 
BRANCH  20  21
ATOM     21  C   UNL A   1     -10.535  -0.753  37.762  0.00  0.00    +0.021 A 
ATOM     22  C   UNL A   1      -9.704  -0.568  38.889  0.00  0.00    +0.002 A 
ATOM     23  C   UNL A   1     -10.091  -1.006  40.201  0.00  0.00    +0.037 A 
ATOM     24  C   UNL A   1     -11.526  -1.773  38.034  0.00  0.00    +0.002 A 
ATOM     25  C   UNL A   1     -11.818  -2.361  39.235  0.00  0.00    +0.037 A 
ATOM     26  C   UNL A   1     -11.018  -2.004  40.332  0.00  0.00    +0.139 A 
BRANCH  26  27
ATOM     27  O   UNL A   1     -11.215  -2.535  41.548  0.00  0.00    -0.471 OA
ATOM     28  C   UNL A   1     -10.568  -2.748  42.470  0.00  0.00    +0.253 C 
ENDBRANCH  26  27
ENDBRANCH  20  21
ENDBRANCH  19  20
ENDBRANCH   1  19
TORSDOF 5
ENDMDL
ENDMDL
