MODEL 3035
MODEL 1
REMARK VINA RESULT:    -4.734      0.000      0.000
REMARK INTER + INTRA:          -5.363
REMARK INTER:                  -5.287
REMARK INTRA:                  -0.076
REMARK UNBOUND:                -0.076
REMARK  Name = No_3035-gen_results/8p0m/2024-11-27-11-27-31/
REMARK  2 active torsions:
REMARK  status: ('A' for Active; 'I' for Inactive)
REMARK    1  A    between atoms: C_1  and  C_2
REMARK    2  A    between atoms: C_1  and  C_3
REMARK                            x       y       z     vdW  Elec       q    Type
REMARK                         _______ _______ _______ _____ _____    ______ ____
ROOT
ATOM      1  C   UNL A   1     -24.260  -2.682  29.332  0.00  0.00    -0.021 A 
ATOM      2  C   UNL A   1     -23.928  -3.931  28.935  0.00  0.00    -0.004 A 
ATOM      3  C   UNL A   1     -24.846  -4.938  28.938  0.00  0.00    -0.000 A 
ATOM      4  C   UNL A   1     -26.126  -4.818  29.558  0.00  0.00    -0.000 A 
ATOM      5  C   UNL A   1     -26.501  -3.564  29.962  0.00  0.00    -0.000 A 
ATOM      6  C   UNL A   1     -25.605  -2.511  29.764  0.00  0.00    -0.004 A 
ENDROOT
BRANCH   1   7
ATOM      7  C   UNL A   1     -23.592  -1.484  28.825  0.00  0.00    +0.047 C 
BRANCH   7   8
ATOM      8  C   UNL A   1     -22.816  -1.138  29.448  0.00  0.00    +0.114 C 
ATOM      9  N   UNL A   1     -21.567  -0.983  28.944  0.00  0.00    -0.131 NA
ENDBRANCH   7   8
ENDBRANCH   1   7
TORSDOF 2
ENDMDL
ENDMDL
