REMARK  Name = outputs/IAG933/test6/raw/output_3036_IAG933_linker_design_.xyz
REMARK  14 active torsions:
REMARK  status: ('A' for Active; 'I' for Inactive)
REMARK    1  A    between atoms: C_1  and  C_2
REMARK    2  A    between atoms: C_1  and  C_8
REMARK    3  A    between atoms: C_9  and  C_39
REMARK    4  A    between atoms: C_13  and  C_38
REMARK    5  A    between atoms: C_14  and  C_15
REMARK    6  A    between atoms: C_21  and  O_22
REMARK    7  A    between atoms: O_22  and  C_23
REMARK    8  A    between atoms: C_23  and  C_24
REMARK    9  A    between atoms: C_29  and  C_36
REMARK   10  A    between atoms: C_29  and  C_41
REMARK   11  A    between atoms: N_31  and  C_43
REMARK   12  A    between atoms: C_36  and  C_38
REMARK   13  A    between atoms: C_39  and  C_41
REMARK   14  A    between atoms: C_40  and  C_43
REMARK                            x       y       z     vdW  Elec       q    Type
REMARK                         _______ _______ _______ _____ _____    ______ ____
ROOT
ATOM      1  N   UNL A   1     -26.064   2.849  30.730  0.00  0.00    -0.274 NA
ATOM      2  C   UNL A   1     -25.206   1.775  30.756  0.00  0.00    +0.033 C 
ENDROOT
BRANCH   2   4
ATOM      3  C   UNL A   1     -25.387  -0.679  31.571  0.00  0.00    +0.082 C 
ATOM      4  C   UNL A   1     -25.189   0.773  32.028  0.00  0.00    +0.053 C 
ATOM      5  C   UNL A   1     -25.336   0.684  33.544  0.00  0.00    +0.026 C 
ATOM      6  C   UNL A   1     -24.829  -0.715  33.905  0.00  0.00    +0.089 C 
ATOM      7  N   UNL A   1     -24.758  -1.481  32.646  0.00  0.00    -0.219 NA
BRANCH   3   8
ATOM      8  C   UNL A   1     -24.855  -1.012  30.143  0.00  0.00    +0.044 C 
BRANCH   8   9
ATOM      9  C   UNL A   1     -24.973  -2.505  29.788  0.00  0.00    -0.021 C 
ATOM     10  C   UNL A   1     -23.906  -3.173  29.146  0.00  0.00    -0.004 C 
ATOM     11  C   UNL A   1     -23.989  -4.549  28.853  0.00  0.00    -0.000 C 
ATOM     12  C   UNL A   1     -25.137  -5.280  29.205  0.00  0.00    -0.000 C 
ATOM     13  C   UNL A   1     -26.232  -4.611  29.784  0.00  0.00    -0.000 C 
ATOM     14  C   UNL A   1     -26.155  -3.232  30.065  0.00  0.00    -0.004 C 
ENDBRANCH   8   9
ENDBRANCH   3   8
ENDBRANCH   2   4
BRANCH   2  15
ATOM     15  C   UNL A   1     -24.627   1.496  29.575  0.00  0.00    +0.041 C 
BRANCH  15  16
ATOM     16  C   UNL A   1     -23.264   1.901  28.901  0.00  0.00    +0.006 C 
BRANCH  16  18
ATOM     17  C   UNL A   1     -21.794   1.688  26.809  0.00  0.00    +0.000 C 
ATOM     18  C   UNL A   1     -23.176   2.046  27.333  0.00  0.00    +0.005 C 
BRANCH  18  19
ATOM     19  C   UNL A   1     -24.356   1.220  26.960  0.00  0.00    +0.029 C 
BRANCH  19  20
ATOM     20  C   UNL A   1     -25.688   1.614  26.461  0.00  0.00    +0.016 C 
ATOM     21  C   UNL A   1     -26.250   2.920  26.395  0.00  0.00    +0.073 C 
ATOM     22  C   UNL A   1     -27.438   3.091  25.645  0.00  0.00    +0.106 C 
ATOM     23  N   UNL A   1     -28.075   2.089  25.003  0.00  0.00    -0.208 NA
ATOM     24  C   UNL A   1     -27.543   0.849  25.079  0.00  0.00    +0.253 C 
ATOM     25  C   UNL A   1     -26.354   0.576  25.777  0.00  0.00    +0.189 C 
ATOM     26  F   UNL A   1     -25.860  -0.681  25.795  0.00  0.00    -0.200 F 
BRANCH  21  27
ATOM     27  C   UNL A   1     -25.642   4.093  27.123  0.00  0.00    +0.266 C 
ATOM     28  N   UNL A   1     -25.614   5.252  26.449  0.00  0.00    -0.200 NA
ATOM     29  C   UNL A   1     -25.026   6.479  26.963  0.00  0.00    +0.139 C 
ATOM     30  O   UNL A   1     -25.143   3.966  28.243  0.00  0.00    -0.268 OA
ENDBRANCH  21  27
BRANCH  24  31
ATOM     31  O   UNL A   1     -28.193  -0.208  24.477  0.00  0.00    -0.456 OA
BRANCH  31  32
ATOM     32  C   UNL A   1     -29.460   0.005  23.866  0.00  0.00    +0.243 C 
BRANCH  32  33
ATOM     33  C   UNL A   1     -30.065  -1.377  23.573  0.00  0.00    +0.229 C 
ATOM     34  O   UNL A   1     -30.729  -1.878  24.721  0.00  0.00    -0.216 OA
ENDBRANCH  32  33
ENDBRANCH  31  32
ENDBRANCH  24  31
ENDBRANCH  19  20
ENDBRANCH  18  19
ENDBRANCH  16  18
ENDBRANCH  15  16
ENDBRANCH   2  15
BRANCH   1  35
ATOM     35  C   UNL A   1     -26.697   3.182  32.012  0.00  0.00    +0.154 C 
BRANCH  35  42
ATOM     36  C   UNL A   1     -24.569   4.404  32.842  0.00  0.00    +0.001 C 
ATOM     37  C   UNL A   1     -26.701   5.654  32.157  0.00  0.00    +0.221 C 
ATOM     38  C   UNL A   1     -25.941   6.670  31.606  0.00  0.00    +0.178 C 
ATOM     39  C   UNL A   1     -23.889   5.630  32.614  0.00  0.00    +0.002 C 
ATOM     40  C   UNL A   1     -24.552   6.694  31.937  0.00  0.00    +0.033 C 
ATOM     41  O   UNL A   1     -27.993   5.848  32.538  0.00  0.00    -0.284 OA
ATOM     42  C   UNL A   1     -25.963   4.388  32.484  0.00  0.00    +0.043 C 
ATOM     43  F   UNL A   1     -26.485   7.468  30.681  0.00  0.00    -0.201 F 
ENDBRANCH  35  42
ENDBRANCH   1  35
TORSDOF 14
