MODEL 3036
MODEL 1
REMARK VINA RESULT:    -6.600      0.000      0.000
REMARK INTER + INTRA:          -7.795
REMARK INTER:                  -7.371
REMARK INTRA:                  -0.424
REMARK UNBOUND:                -0.424
REMARK  Name = No_3036-gen_results/8p0m/2024-11-27-11-27-31/
REMARK  2 active torsions:
REMARK  status: ('A' for Active; 'I' for Inactive)
REMARK    1  A    between atoms: C_3  and  C_7
REMARK    2  A    between atoms: C_7  and  C_8
REMARK                            x       y       z     vdW  Elec       q    Type
REMARK                         _______ _______ _______ _____ _____    ______ ____
ROOT
ATOM      1  C   UNL A   1     -24.578  -1.210  29.793  0.00  0.00    +0.053 C 
ENDROOT
BRANCH   1   4
ATOM      2  C   UNL A   1     -22.225  -0.318  29.452  0.00  0.00    -0.004 A 
ATOM      3  C   UNL A   1     -21.580   0.234  28.828  0.00  0.00    -0.000 A 
ATOM      4  C   UNL A   1     -23.619  -0.327  28.991  0.00  0.00    -0.018 A 
ATOM      5  C   UNL A   1     -24.047   0.442  27.989  0.00  0.00    -0.004 A 
ATOM      6  C   UNL A   1     -21.807   1.141  27.730  0.00  0.00    -0.000 A 
ATOM      7  C   UNL A   1     -23.111   1.138  27.332  0.00  0.00    -0.000 A 
ENDBRANCH   1   4
BRANCH   1   8
ATOM      8  C   UNL A   1     -24.822  -2.553  29.312  0.00  0.00    -0.018 A 
ATOM      9  C   UNL A   1     -23.827  -3.306  28.806  0.00  0.00    -0.004 A 
ATOM     10  C   UNL A   1     -23.996  -4.659  28.486  0.00  0.00    -0.000 A 
ATOM     11  C   UNL A   1     -25.123  -5.372  28.994  0.00  0.00    -0.000 A 
ATOM     12  C   UNL A   1     -26.130  -4.582  29.646  0.00  0.00    -0.000 A 
ATOM     13  C   UNL A   1     -25.962  -3.271  29.857  0.00  0.00    -0.004 A 
ENDBRANCH   1   8
TORSDOF 2
ENDMDL
ENDMDL
