MODEL 3037
MODEL 1
REMARK VINA RESULT:    -7.138      0.000      0.000
REMARK INTER + INTRA:          -9.512
REMARK INTER:                  -8.808
REMARK INTRA:                  -0.704
REMARK UNBOUND:                -0.704
REMARK  Name = No_3037-gen_results/8p0m/2024-11-27-11-27-31/
REMARK  4 active torsions:
REMARK  status: ('A' for Active; 'I' for Inactive)
REMARK    1  A    between atoms: C_3  and  C_8
REMARK    2  A    between atoms: C_10  and  C_11
REMARK    3  A    between atoms: C_11  and  C_15
REMARK    4  A    between atoms: C_16  and  C_17
REMARK                            x       y       z     vdW  Elec       q    Type
REMARK                         _______ _______ _______ _____ _____    ______ ____
ROOT
ATOM      1  C   UNL A   1     -24.693   0.751  26.553  0.00  0.00    -0.014 A 
ATOM      2  C   UNL A   1     -24.536   0.038  27.398  0.00  0.00    -0.008 A 
ATOM      3  C   UNL A   1     -23.329  -0.086  28.210  0.00  0.00    -0.018 A 
ATOM      4  C   UNL A   1     -23.664   1.849  26.435  0.00  0.00    -0.004 A 
ATOM      5  C   UNL A   1     -22.467   1.860  27.137  0.00  0.00    -0.001 A 
ATOM      6  C   UNL A   1     -22.293   0.899  28.115  0.00  0.00    -0.004 A 
ENDROOT
BRANCH   1   9
ATOM      7  O   UNL A   1     -25.688  -0.651  24.624  0.00  0.00    -0.273 OA
ATOM      8  C   UNL A   1     -26.115   0.381  24.889  0.00  0.00    +0.245 C 
ATOM      9  C   UNL A   1     -25.973   1.096  25.629  0.00  0.00    +0.100 C 
ATOM     10  N   UNL A   1     -27.348   0.600  24.059  0.00  0.00    -0.205 NA
ATOM     11  C   UNL A   1     -26.259   2.455  25.783  0.00  0.00    +0.015 C 
ATOM     12  C   UNL A   1     -27.911   1.892  24.123  0.00  0.00    +0.115 C 
ATOM     13  C   UNL A   1     -27.447   2.790  24.998  0.00  0.00    +0.024 C 
ENDBRANCH   1   9
BRANCH   3  14
ATOM     14  C   UNL A   1     -23.158  -0.940  29.287  0.00  0.00    +0.052 C 
BRANCH  14  15
ATOM     15  C   UNL A   1     -23.487  -2.355  28.979  0.00  0.00    -0.021 C 
ATOM     16  C   UNL A   1     -24.125  -3.049  29.572  0.00  0.00    -0.005 C 
BRANCH  16  17
ATOM     17  C   UNL A   1     -24.535  -4.433  29.104  0.00  0.00    -0.005 C 
ATOM     18  C   UNL A   1     -25.839  -4.727  29.302  0.00  0.00    -0.026 C 
ATOM     19  C   UNL A   1     -26.709  -3.915  29.990  0.00  0.00    +0.031 C 
ENDBRANCH  16  17
ENDBRANCH  14  15
ENDBRANCH   3  14
TORSDOF 4
ENDMDL
ENDMDL
