MODEL 3038
MODEL 1
REMARK VINA RESULT:    -7.941      0.000      0.000
REMARK INTER + INTRA:         -10.034
REMARK INTER:                  -9.333
REMARK INTRA:                  -0.701
REMARK UNBOUND:                -0.701
REMARK  Name = No_3038-gen_results/8p0m/2024-11-27-11-27-31/
REMARK  3 active torsions:
REMARK  status: ('A' for Active; 'I' for Inactive)
REMARK    1  A    between atoms: C_2  and  C_7
REMARK    2  A    between atoms: C_6  and  C_13
REMARK    3  A    between atoms: N_14  and  C_16
REMARK                            x       y       z     vdW  Elec       q    Type
REMARK                         _______ _______ _______ _____ _____    ______ ____
ROOT
ATOM      1  C   UNL A   1     -25.554  -2.562  29.490  0.00  0.00    +0.005 A 
ATOM      2  C   UNL A   1     -24.415  -2.622  29.088  0.00  0.00    +0.000 A 
ATOM      3  C   UNL A   1     -23.835  -3.840  28.751  0.00  0.00    +0.000 A 
ATOM      4  C   UNL A   1     -24.559  -5.075  28.913  0.00  0.00    +0.000 A 
ATOM      5  C   UNL A   1     -25.861  -4.916  29.406  0.00  0.00    +0.005 A 
ATOM      6  C   UNL A   1     -26.356  -3.742  29.726  0.00  0.00    +0.055 A 
ENDROOT
BRANCH   2   7
ATOM      7  C   UNL A   1     -23.514  -1.455  28.885  0.00  0.00    +0.000 A 
ATOM      8  C   UNL A   1     -22.688  -1.134  29.393  0.00  0.00    +0.000 A 
ATOM      9  C   UNL A   1     -21.849   0.110  29.219  0.00  0.00    +0.000 A 
ATOM     10  C   UNL A   1     -22.264   1.020  28.265  0.00  0.00    +0.002 A 
ATOM     11  C   UNL A   1     -23.428   0.751  27.542  0.00  0.00    +0.019 A 
ATOM     12  C   UNL A   1     -24.089  -0.421  27.762  0.00  0.00    +0.003 A 
ATOM     13  C   UNL A   1     -23.886   1.705  26.539  0.00  0.00    +0.099 A 
ATOM     14  N   UNL A   1     -25.191   1.514  26.101  0.00  0.00    -0.242 NA
ATOM     15  C   UNL A   1     -25.731   0.303  25.998  0.00  0.00    +0.099 A 
ATOM     16  C   UNL A   1     -25.309  -0.657  26.974  0.00  0.00    +0.021 A 
ENDBRANCH   2   7
BRANCH   6  17
ATOM     17  C   UNL A   1     -27.711  -3.722  30.330  0.00  0.00    +0.269 C 
ATOM     18  N   UNL A   1     -28.303  -4.800  30.799  0.00  0.00    -0.175 NA
ATOM     19  O   UNL A   1     -28.370  -2.649  30.322  0.00  0.00    -0.268 OA
BRANCH  18  20
ATOM     20  C   UNL A   1     -29.647  -4.916  31.274  0.00  0.00    +0.074 A 
ATOM     21  C   UNL A   1     -29.775  -4.849  32.601  0.00  0.00    +0.017 A 
ATOM     22  C   UNL A   1     -31.067  -5.186  33.199  0.00  0.00    +0.001 A 
ATOM     23  C   UNL A   1     -32.129  -5.524  32.339  0.00  0.00    +0.000 A 
ATOM     24  C   UNL A   1     -31.868  -5.568  30.952  0.00  0.00    +0.001 A 
ATOM     25  C   UNL A   1     -30.591  -5.317  30.434  0.00  0.00    +0.017 A 
ENDBRANCH  18  20
ENDBRANCH   6  17
TORSDOF 3
ENDMDL
ENDMDL
