REMARK  Name = No_3038-gen_results/8p0m/2024-11-27-11-27-31/
REMARK  3 active torsions:
REMARK  status: ('A' for Active; 'I' for Inactive)
REMARK    1  A    between atoms: C_2  and  C_7
REMARK    2  A    between atoms: C_6  and  C_13
REMARK    3  A    between atoms: N_14  and  C_16
REMARK                            x       y       z     vdW  Elec       q    Type
REMARK                         _______ _______ _______ _____ _____    ______ ____
ROOT
ATOM      1  C   UNL A   1     -28.016  -0.814  28.878  0.00  0.00    +0.005 A 
ATOM      2  C   UNL A   1     -27.064  -0.119  28.608  0.00  0.00    +0.000 A 
ATOM      3  C   UNL A   1     -25.792  -0.430  29.076  0.00  0.00    +0.000 A 
ATOM      4  C   UNL A   1     -25.576  -1.565  29.936  0.00  0.00    +0.000 A 
ATOM      5  C   UNL A   1     -26.735  -2.300  30.217  0.00  0.00    +0.005 A 
ATOM      6  C   UNL A   1     -27.918  -1.954  29.763  0.00  0.00    +0.055 A 
ENDROOT
BRANCH   2   7
ATOM      7  C   UNL A   1     -27.106   1.102  27.759  0.00  0.00    +0.000 A 
ATOM      8  C   UNL A   1     -27.858   1.531  27.216  0.00  0.00    +0.000 A 
ATOM      9  C   UNL A   1     -27.843   2.721  26.286  0.00  0.00    +0.000 A 
ATOM     10  C   UNL A   1     -26.622   3.325  26.057  0.00  0.00    +0.002 A 
ATOM     11  C   UNL A   1     -25.485   2.796  26.672  0.00  0.00    +0.019 A 
ATOM     12  C   UNL A   1     -25.622   1.736  27.519  0.00  0.00    +0.003 A 
ATOM     13  C   UNL A   1     -24.187   3.415  26.433  0.00  0.00    +0.099 A 
ATOM     14  N   UNL A   1     -23.093   2.652  26.824  0.00  0.00    -0.242 NA
ATOM     15  C   UNL A   1     -23.135   1.849  27.884  0.00  0.00    +0.099 A 
ATOM     16  C   UNL A   1     -24.395   1.218  28.143  0.00  0.00    +0.021 A 
ENDBRANCH   2   7
BRANCH   6  17
ATOM     17  C   UNL A   1     -29.078  -2.760  30.215  0.00  0.00    +0.269 C 
ATOM     18  N   UNL A   1     -28.989  -4.038  30.519  0.00  0.00    -0.175 NA
ATOM     19  O   UNL A   1     -30.222  -2.234  30.232  0.00  0.00    -0.268 OA
BRANCH  18  20
ATOM     20  C   UNL A   1     -30.058  -4.934  30.833  0.00  0.00    +0.074 A 
ATOM     21  C   UNL A   1     -29.893  -5.622  31.965  0.00  0.00    +0.017 A 
ATOM     22  C   UNL A   1     -30.810  -6.724  32.256  0.00  0.00    +0.001 A 
ATOM     23  C   UNL A   1     -31.853  -6.978  31.346  0.00  0.00    +0.000 A 
ATOM     24  C   UNL A   1     -31.920  -6.187  30.179  0.00  0.00    +0.001 A 
ATOM     25  C   UNL A   1     -30.968  -5.196  29.905  0.00  0.00    +0.017 A 
ENDBRANCH  18  20
ENDBRANCH   6  17
TORSDOF 3
