MODEL 3039
MODEL 1
REMARK VINA RESULT:    -6.227      0.000      0.000
REMARK INTER + INTRA:          -6.227
REMARK INTER:                  -6.227
REMARK INTRA:                   0.000
REMARK UNBOUND:                 0.000
REMARK  Name = No_3039-gen_results/8p0m/2024-11-27-11-27-31/
REMARK  0 active torsions:
REMARK  status: ('A' for Active; 'I' for Inactive)
REMARK                            x       y       z     vdW  Elec       q    Type
REMARK                         _______ _______ _______ _____ _____    ______ ____
ROOT
ATOM      1  C   UNL A   1     -23.738  -3.429  28.941  0.00  0.00    +0.014 A 
ATOM      2  C   UNL A   1     -24.559  -2.659  29.384  0.00  0.00    +0.044 A 
ATOM      3  N   UNL A   1     -24.289  -1.420  29.685  0.00  0.00    -0.309 N 
ATOM      4  C   UNL A   1     -24.214  -4.794  28.623  0.00  0.00    +0.001 A 
ATOM      5  C   UNL A   1     -25.456  -5.228  29.054  0.00  0.00    -0.000 A 
ATOM      6  C   UNL A   1     -26.311  -4.388  29.726  0.00  0.00    -0.003 A 
ATOM      7  C   UNL A   1     -25.880  -3.044  29.913  0.00  0.00    -0.009 A 
ATOM      8  C   UNL A   1     -24.810  -0.676  30.658  0.00  0.00    +0.073 C 
ATOM      9  C   UNL A   1     -24.451   0.566  31.001  0.00  0.00    +0.020 C 
ATOM     10  C   UNL A   1     -23.242  -0.750  29.014  0.00  0.00    +0.091 C 
ATOM     11  C   UNL A   1     -22.811   0.549  29.289  0.00  0.00    +0.021 C 
ATOM     12  C   UNL A   1     -23.465   1.229  30.328  0.00  0.00    +0.004 C 
ATOM     13  C   UNL A   1     -26.707  -2.200  30.698  0.00  0.00    +0.029 C 
ATOM     14  C   UNL A   1     -26.134  -1.084  31.196  0.00  0.00    +0.024 C 
ENDROOT
TORSDOF 0
ENDMDL
ENDMDL
