MODEL 303
MODEL 1
REMARK VINA RESULT:    -6.613      0.000      0.000
REMARK INTER + INTRA:          -7.181
REMARK INTER:                  -7.000
REMARK INTRA:                  -0.181
REMARK UNBOUND:                -0.181
REMARK  Name = No_303-gen_results/8p0m/2024-11-27-11-27-31/
REMARK  1 active torsions:
REMARK  status: ('A' for Active; 'I' for Inactive)
REMARK    1  A    between atoms: C_6  and  C_8
REMARK                            x       y       z     vdW  Elec       q    Type
REMARK                         _______ _______ _______ _____ _____    ______ ____
ROOT
ATOM      1  C   UNL A   1     -25.852  -2.978  29.662  0.00  0.00    +0.019 A 
ATOM      2  C   UNL A   1     -26.296  -4.099  29.748  0.00  0.00    +0.058 A 
ATOM      3  C   UNL A   1     -25.567  -5.196  29.303  0.00  0.00    +0.011 A 
ATOM      4  C   UNL A   1     -24.278  -5.027  28.681  0.00  0.00    +0.001 A 
ATOM      5  C   UNL A   1     -23.852  -3.695  28.600  0.00  0.00    +0.008 A 
ATOM      6  C   UNL A   1     -24.587  -2.691  29.022  0.00  0.00    +0.090 A 
ATOM      7 CL   UNL A   1     -27.827  -4.479  30.413  0.00  0.00    -0.082 Cl
ENDROOT
BRANCH   6   8
ATOM      8  C   UNL A   1     -24.039  -1.329  28.826  0.00  0.00    +0.385 C 
ATOM      9  N   UNL A   1     -22.837  -0.979  29.241  0.00  0.00    -0.030 NA
ATOM     10  C   UNL A   1     -22.403   0.322  29.128  0.00  0.00    +0.237 C 
ATOM     11  C   UNL A   1     -22.021   0.702  28.183  0.00  0.00    +0.062 C 
ATOM     12  C   UNL A   1     -23.052   1.186  27.232  0.00  0.00    +0.093 C 
ATOM     13  N   UNL A   1     -24.765  -0.593  27.921  0.00  0.00    +0.014 NA
ATOM     14  C   UNL A   1     -24.411   0.448  27.369  0.00  0.00    +0.133 C 
ENDBRANCH   6   8
TORSDOF 1
ENDMDL
ENDMDL
