REMARK  Name = outputs/IAG933/test6/raw/output_304_IAG933_linker_design_.xyz
REMARK  16 active torsions:
REMARK  status: ('A' for Active; 'I' for Inactive)
REMARK    1  A    between atoms: C_1  and  C_2
REMARK    2  A    between atoms: C_1  and  C_8
REMARK    3  A    between atoms: C_1  and  C_41
REMARK    4  A    between atoms: C_14  and  C_15
REMARK    5  A    between atoms: C_15  and  O_18
REMARK    6  A    between atoms: O_18  and  C_46
REMARK    7  A    between atoms: C_21  and  O_22
REMARK    8  A    between atoms: O_22  and  C_23
REMARK    9  A    between atoms: C_23  and  C_24
REMARK   10  A    between atoms: C_28  and  N_39
REMARK   11  A    between atoms: C_28  and  C_40
REMARK   12  A    between atoms: O_29  and  C_40
REMARK   13  A    between atoms: O_29  and  C_46
REMARK   14  A    between atoms: C_30  and  C_37
REMARK   15  A    between atoms: C_30  and  C_46
REMARK   16  A    between atoms: N_39  and  C_45
REMARK                            x       y       z     vdW  Elec       q    Type
REMARK                         _______ _______ _______ _____ _____    ______ ____
ROOT
ATOM      1  C   UNL A   1     -25.699   3.259  29.333  0.00  0.00    +0.345 C 
ENDROOT
BRANCH   1   2
ATOM      2  O   UNL A   1     -26.787   3.875  29.971  0.00  0.00    -0.427 OA
BRANCH   2   4
ATOM      3  N   UNL A   1     -25.190   3.575  31.461  0.00  0.00    -0.111 NA
ATOM      4  C   UNL A   1     -26.195   4.233  31.014  0.00  0.00    +0.235 C 
BRANCH   4   5
ATOM      5  C   UNL A   1     -26.860   5.505  31.706  0.00  0.00    +0.117 C 
ATOM      6  C   UNL A   1     -27.511   6.460  30.657  0.00  0.00    +0.026 C 
ATOM      7  C   UNL A   1     -25.677   6.377  32.195  0.00  0.00    +0.026 C 
BRANCH   5   9
ATOM      8  C   UNL A   1     -29.107   4.352  31.908  0.00  0.00    +0.091 C 
ATOM      9  N   UNL A   1     -27.922   4.916  32.539  0.00  0.00    -0.258 NA
BRANCH   9  12
ATOM     10  S   UNL A   1     -26.178   4.700  34.779  0.00  0.00    -0.065 S 
ATOM     11  C   UNL A   1     -28.303   3.088  34.203  0.00  0.00    +0.030 C 
ATOM     12  C   UNL A   1     -27.768   4.521  33.883  0.00  0.00    +0.117 C 
ENDBRANCH   9  12
ENDBRANCH   5   9
ENDBRANCH   4   5
ENDBRANCH   2   4
ENDBRANCH   1   2
BRANCH   1  13
ATOM     13  C   UNL A   1     -24.963   2.527  29.847  0.00  0.00    +0.121 C 
BRANCH  13  17
ATOM     14  O   UNL A   1     -23.015   2.109  28.733  0.00  0.00    -0.358 OA
ATOM     15  C   UNL A   1     -22.047   1.105  28.653  0.00  0.00    +0.115 C 
ATOM     16  C   UNL A   1     -22.827  -0.228  28.564  0.00  0.00    +0.032 C 
ATOM     17  C   UNL A   1     -24.035   1.484  29.486  0.00  0.00    +0.123 C 
ATOM     18  C   UNL A   1     -21.034   1.320  27.514  0.00  0.00    +0.032 C 
ATOM     19  C   UNL A   1     -24.084   0.003  29.455  0.00  0.00    +0.035 C 
BRANCH  19  20
ATOM     20  C   UNL A   1     -24.855  -1.012  30.143  0.00  0.00    +0.041 C 
BRANCH  20  21
ATOM     21  C   UNL A   1     -24.973  -2.505  29.788  0.00  0.00    -0.021 C 
ATOM     22  C   UNL A   1     -23.906  -3.173  29.146  0.00  0.00    -0.004 C 
ATOM     23  C   UNL A   1     -23.989  -4.549  28.853  0.00  0.00    -0.000 C 
ATOM     24  C   UNL A   1     -25.137  -5.280  29.205  0.00  0.00    -0.000 C 
ATOM     25  C   UNL A   1     -26.232  -4.611  29.784  0.00  0.00    -0.000 C 
ATOM     26  C   UNL A   1     -26.155  -3.232  30.065  0.00  0.00    -0.004 C 
ENDBRANCH  20  21
BRANCH  20  27
ATOM     27  C   UNL A   1     -25.387  -0.679  31.571  0.00  0.00    +0.077 C 
ATOM     28  C   UNL A   1     -25.189   0.773  32.028  0.00  0.00    +0.019 C 
ATOM     29  C   UNL A   1     -25.336   0.684  33.544  0.00  0.00    +0.020 C 
ATOM     30  C   UNL A   1     -24.829  -0.715  33.905  0.00  0.00    +0.089 C 
ATOM     31  N   UNL A   1     -24.758  -1.481  32.646  0.00  0.00    -0.219 NA
ENDBRANCH  20  27
ENDBRANCH  19  20
ENDBRANCH  13  17
ENDBRANCH   1  13
BRANCH   1  32
ATOM     32  O   UNL A   1     -25.143   3.966  28.243  0.00  0.00    -0.426 OA
BRANCH  32  33
ATOM     33  C   UNL A   1     -25.642   4.093  27.123  0.00  0.00    +0.225 C 
ATOM     34  N   UNL A   1     -25.614   5.252  26.449  0.00  0.00    -0.236 NA
ATOM     35  C   UNL A   1     -25.026   6.479  26.963  0.00  0.00    +0.155 C 
BRANCH  33  37
ATOM     36  C   UNL A   1     -25.688   1.614  26.461  0.00  0.00    +0.041 C 
ATOM     37  C   UNL A   1     -26.250   2.920  26.395  0.00  0.00    +0.074 C 
ATOM     38  C   UNL A   1     -27.438   3.091  25.645  0.00  0.00    +0.107 C 
ATOM     39  N   UNL A   1     -28.075   2.089  25.003  0.00  0.00    -0.208 NA
ATOM     40  C   UNL A   1     -27.543   0.849  25.079  0.00  0.00    +0.253 C 
ATOM     41  C   UNL A   1     -26.354   0.576  25.777  0.00  0.00    +0.193 C 
ATOM     42  F   UNL A   1     -25.860  -0.681  25.795  0.00  0.00    -0.199 F 
BRANCH  40  43
ATOM     43  O   UNL A   1     -28.193  -0.208  24.477  0.00  0.00    -0.456 OA
BRANCH  43  44
ATOM     44  C   UNL A   1     -29.460   0.005  23.866  0.00  0.00    +0.243 C 
BRANCH  44  45
ATOM     45  C   UNL A   1     -30.065  -1.377  23.573  0.00  0.00    +0.229 C 
ATOM     46  O   UNL A   1     -30.729  -1.878  24.721  0.00  0.00    -0.216 OA
ENDBRANCH  44  45
ENDBRANCH  43  44
ENDBRANCH  40  43
ENDBRANCH  33  37
ENDBRANCH  32  33
ENDBRANCH   1  32
TORSDOF 16
