MODEL 3040
MODEL 1
REMARK VINA RESULT:    -6.618      0.000      0.000
REMARK INTER + INTRA:          -7.196
REMARK INTER:                  -7.005
REMARK INTRA:                  -0.192
REMARK UNBOUND:                -0.192
REMARK  Name = No_3040-gen_results/8p0m/2024-11-27-11-27-31/
REMARK  1 active torsions:
REMARK  status: ('A' for Active; 'I' for Inactive)
REMARK    1  A    between atoms: C_4  and  C_7
REMARK                            x       y       z     vdW  Elec       q    Type
REMARK                         _______ _______ _______ _____ _____    ______ ____
ROOT
ATOM      1  C   UNL A   1      -6.806  -0.591  10.142  0.00  0.00    +0.145 A 
ATOM      2  C   UNL A   1      -6.830  -0.072   9.226  0.00  0.00    +0.088 A 
ATOM      3  C   UNL A   1      -7.561   0.003  11.256  0.00  0.00    +0.039 A 
ATOM      4  C   UNL A   1      -8.389   1.144  11.044  0.00  0.00    +0.051 A 
ATOM      5  C   UNL A   1      -8.366   1.677   9.779  0.00  0.00    +0.002 A 
ATOM      6  C   UNL A   1      -7.633   1.105   8.800  0.00  0.00    +0.007 A 
ATOM      7  C   UNL A   1      -5.911  -0.760   8.102  0.00  0.00    +0.254 C 
ATOM      8  O   UNL A   1      -6.287  -1.067   7.044  0.00  0.00    -0.270 OA
ATOM      9  N   UNL A   1      -4.663  -0.958   8.483  0.00  0.00    -0.244 N 
ATOM     10  C   UNL A   1      -3.726  -1.618   7.632  0.00  0.00    +0.097 C 
ATOM     11  C   UNL A   1      -2.793  -2.230   8.281  0.00  0.00    +0.022 C 
ATOM     12  C   UNL A   1      -2.516  -2.010   9.617  0.00  0.00    +0.007 C 
ATOM     13  C   UNL A   1      -3.422  -1.338  10.451  0.00  0.00    +0.066 C 
ATOM     14  C   UNL A   1      -4.464  -0.920   9.885  0.00  0.00    +0.247 C 
ATOM     15  O   UNL A   1      -5.589  -1.041  10.758  0.00  0.00    -0.460 OA
ENDROOT
BRANCH   4  16
ATOM     16  C   UNL A   1      -9.149   1.729  12.118  0.00  0.00    +0.328 C 
ATOM     17 BR   UNL A   1     -10.336   2.825  11.772  0.00  0.00    -0.005 Br
ATOM     18  F   UNL A   1      -8.206   2.438  13.014  0.00  0.00    -0.187 F 
ATOM     19  F   UNL A   1      -9.584   0.754  13.071  0.00  0.00    -0.187 F 
ENDBRANCH   4  16
TORSDOF 1
ENDMDL
ENDMDL
