MODEL 3041
MODEL 1
REMARK VINA RESULT:    -5.227      0.000      0.000
REMARK INTER + INTRA:          -5.553
REMARK INTER:                  -5.532
REMARK INTRA:                  -0.020
REMARK UNBOUND:                -0.020
REMARK  Name = No_3041-gen_results/8p0m/2024-11-27-11-27-31/
REMARK  1 active torsions:
REMARK  status: ('A' for Active; 'I' for Inactive)
REMARK    1  A    between atoms: C_1  and  C_5
REMARK                            x       y       z     vdW  Elec       q    Type
REMARK                         _______ _______ _______ _____ _____    ______ ____
ROOT
ATOM      1  C   UNL A   1      -9.492  -9.933  18.228  0.00  0.00    +0.042 A 
ATOM      2  C   UNL A   1      -8.425 -10.384  18.575  0.00  0.00    +0.003 A 
ATOM      3  C   UNL A   1      -7.823 -10.080  19.781  0.00  0.00    +0.000 A 
ATOM      4  C   UNL A   1      -8.574  -9.398  20.658  0.00  0.00    +0.000 A 
ATOM      5  C   UNL A   1      -9.855  -9.040  20.322  0.00  0.00    +0.000 A 
ATOM      6  C   UNL A   1     -10.304  -9.398  19.174  0.00  0.00    +0.003 A 
ENDROOT
BRANCH   1   7
ATOM      7  C   UNL A   1     -10.043 -10.457  16.971  0.00  0.00    +0.234 C 
ATOM      8  O   UNL A   1     -11.287 -10.505  16.800  0.00  0.00    -0.283 OA
ENDBRANCH   1   7
TORSDOF 1
ENDMDL
ENDMDL
