MODEL 3042
MODEL 1
REMARK VINA RESULT:    -5.875      0.000      0.000
REMARK INTER + INTRA:          -7.519
REMARK INTER:                  -6.905
REMARK INTRA:                  -0.614
REMARK UNBOUND:                -0.614
REMARK  Name = No_3042-gen_results/8p0m/2024-11-27-11-27-31/
REMARK  3 active torsions:
REMARK  status: ('A' for Active; 'I' for Inactive)
REMARK    1  A    between atoms: C_2  and  C_8
REMARK    2  A    between atoms: C_9  and  C_10
REMARK    3  A    between atoms: C_11  and  C_12
REMARK                            x       y       z     vdW  Elec       q    Type
REMARK                         _______ _______ _______ _____ _____    ______ ____
ROOT
ATOM      1  C   UNL A   1     -23.395   0.150  28.153  0.00  0.00    -0.044 C 
ATOM      2  C   UNL A   1     -23.030  -0.719  28.624  0.00  0.00    -0.009 C 
ATOM      3  C   UNL A   1     -22.409   1.104  27.731  0.00  0.00    +0.022 C 
ATOM      4  C   UNL A   1     -22.780   2.254  26.881  0.00  0.00    +0.004 C 
ATOM      5  C   UNL A   1     -23.866   2.127  25.995  0.00  0.00    +0.001 C 
ATOM      6  C   UNL A   1     -24.684   0.982  26.078  0.00  0.00    +0.004 C 
ATOM      7  C   UNL A   1     -24.422   0.012  26.973  0.00  0.00    +0.022 C 
ENDROOT
BRANCH   2   8
ATOM      8  C   UNL A   1     -24.034  -1.745  29.214  0.00  0.00    -0.001 C 
ATOM      9  C   UNL A   1     -23.885  -2.830  29.092  0.00  0.00    -0.000 C 
BRANCH   9  10
ATOM     10  C   UNL A   1     -24.614  -3.711  29.185  0.00  0.00    -0.000 C 
ATOM     11  C   UNL A   1     -25.825  -3.597  29.730  0.00  0.00    -0.000 C 
BRANCH  11  12
ATOM     12  C   UNL A   1     -26.848  -4.654  29.735  0.00  0.00    -0.005 C 
ATOM     13  C   UNL A   1     -28.034  -4.323  30.315  0.00  0.00    -0.026 C 
ATOM     14  C   UNL A   1     -28.220  -3.124  30.927  0.00  0.00    +0.031 C 
ENDBRANCH  11  12
ENDBRANCH   9  10
ENDBRANCH   2   8
TORSDOF 3
ENDMDL
ENDMDL
