MODEL 3043
MODEL 1
REMARK VINA RESULT:    -6.725      0.000      0.000
REMARK INTER + INTRA:          -8.126
REMARK INTER:                  -7.511
REMARK INTRA:                  -0.614
REMARK UNBOUND:                -0.614
REMARK  Name = No_3043-gen_results/8p0m/2024-11-27-11-27-31/
REMARK  2 active torsions:
REMARK  status: ('A' for Active; 'I' for Inactive)
REMARK    1  A    between atoms: C_3  and  C_7
REMARK    2  A    between atoms: N_8  and  C_9
REMARK                            x       y       z     vdW  Elec       q    Type
REMARK                         _______ _______ _______ _____ _____    ______ ____
ROOT
ATOM      1  C   UNL A   1     -23.281   1.068  29.887  0.00  0.00    +0.269 C 
ATOM      2  N   UNL A   1     -23.193  -0.256  30.181  0.00  0.00    -0.175 NA
ATOM      3  O   UNL A   1     -23.531   1.859  30.747  0.00  0.00    -0.268 OA
ENDROOT
BRANCH   2   4
ATOM      4  C   UNL A   1     -24.044  -1.197  29.728  0.00  0.00    +0.076 A 
ATOM      5  C   UNL A   1     -23.546  -2.281  28.916  0.00  0.00    +0.046 A 
ATOM      6  C   UNL A   1     -24.123  -3.530  28.975  0.00  0.00    +0.141 A 
ATOM      7  C   UNL A   1     -25.351  -1.316  30.200  0.00  0.00    +0.017 A 
ATOM      8  C   UNL A   1     -26.104  -2.518  30.044  0.00  0.00    +0.004 A 
ATOM      9  C   UNL A   1     -25.482  -3.642  29.462  0.00  0.00    +0.030 A 
ATOM     10  F   UNL A   1     -23.684  -4.523  28.239  0.00  0.00    -0.204 F 
ENDBRANCH   2   4
BRANCH   1  13
ATOM     11  C   UNL A   1     -21.915   1.522  27.797  0.00  0.00    +0.005 A 
ATOM     12  C   UNL A   1     -21.896   1.754  26.769  0.00  0.00    +0.000 A 
ATOM     13  C   UNL A   1     -23.209   1.506  28.418  0.00  0.00    +0.055 A 
ATOM     14  C   UNL A   1     -24.320   1.919  27.800  0.00  0.00    +0.005 A 
ATOM     15  C   UNL A   1     -22.963   2.245  25.910  0.00  0.00    +0.000 A 
ATOM     16  C   UNL A   1     -24.162   2.258  26.476  0.00  0.00    +0.000 A 
ENDBRANCH   1  13
TORSDOF 2
ENDMDL
ENDMDL
