MODEL 3044
MODEL 1
REMARK VINA RESULT:    -7.133      0.000      0.000
REMARK INTER + INTRA:          -8.131
REMARK INTER:                  -7.967
REMARK INTRA:                  -0.164
REMARK UNBOUND:                -0.164
REMARK  Name = No_3044-gen_results/8p0m/2024-11-27-11-27-31/
REMARK  2 active torsions:
REMARK  status: ('A' for Active; 'I' for Inactive)
REMARK    1  A    between atoms: C_2  and  C_5
REMARK    2  A    between atoms: C_5  and  N_12
REMARK                            x       y       z     vdW  Elec       q    Type
REMARK                         _______ _______ _______ _____ _____    ______ ____
ROOT
ATOM      1  C   UNL A   1     -23.417  -1.512  29.048  0.00  0.00    -0.003 A 
ATOM      2  C   UNL A   1     -23.797  -0.675  29.564  0.00  0.00    -0.006 A 
ATOM      3  C   UNL A   1     -24.246  -2.773  29.155  0.00  0.00    -0.000 A 
ATOM      4  C   UNL A   1     -23.878  -4.079  28.671  0.00  0.00    -0.000 A 
ATOM      5  C   UNL A   1     -24.845  -5.159  28.901  0.00  0.00    -0.000 A 
ATOM      6  C   UNL A   1     -26.057  -4.896  29.515  0.00  0.00    -0.000 A 
ATOM      7  C   UNL A   1     -26.412  -3.675  29.954  0.00  0.00    -0.000 A 
ATOM      8  C   UNL A   1     -25.579  -2.637  29.778  0.00  0.00    -0.000 A 
ATOM      9  C   UNL A   1     -25.100  -0.427  30.311  0.00  0.00    -0.003 A 
ATOM     10  C   UNL A   1     -25.928  -1.381  30.353  0.00  0.00    -0.000 A 
ENDROOT
BRANCH   2  11
ATOM     11  C   UNL A   1     -23.045   0.656  29.532  0.00  0.00    +0.099 C 
BRANCH  11  12
ATOM     12  N   UNL A   1     -22.990   1.165  28.401  0.00  0.00    -0.269 NA
ATOM     13  C   UNL A   1     -21.921   1.334  27.747  0.00  0.00    +0.072 C 
ATOM     14  C   UNL A   1     -24.266   1.633  27.780  0.00  0.00    +0.072 C 
ATOM     15  C   UNL A   1     -21.934   1.834  26.348  0.00  0.00    +0.017 C 
ATOM     16  C   UNL A   1     -24.298   2.030  26.461  0.00  0.00    +0.017 C 
ATOM     17  C   UNL A   1     -23.086   2.308  25.818  0.00  0.00    +0.003 C 
ENDBRANCH  11  12
ENDBRANCH   2  11
TORSDOF 2
ENDMDL
ENDMDL
