REMARK  Name = No_3044-gen_results/8p0m/2024-11-27-11-27-31/
REMARK  2 active torsions:
REMARK  status: ('A' for Active; 'I' for Inactive)
REMARK    1  A    between atoms: C_2  and  C_5
REMARK    2  A    between atoms: C_5  and  N_12
REMARK                            x       y       z     vdW  Elec       q    Type
REMARK                         _______ _______ _______ _____ _____    ______ ____
ROOT
ATOM      1  C   UNL A   1     -28.016  -0.814  28.878  0.00  0.00    -0.003 A 
ATOM      2  C   UNL A   1     -28.469  -0.785  29.829  0.00  0.00    -0.006 A 
ATOM      3  C   UNL A   1     -26.504  -0.778  28.877  0.00  0.00    -0.000 A 
ATOM      4  C   UNL A   1     -25.654  -0.660  27.719  0.00  0.00    -0.000 A 
ATOM      5  C   UNL A   1     -24.208  -0.635  27.968  0.00  0.00    -0.000 A 
ATOM      6  C   UNL A   1     -23.715  -0.762  29.255  0.00  0.00    -0.000 A 
ATOM      7  C   UNL A   1     -24.504  -0.889  30.338  0.00  0.00    -0.000 A 
ATOM      8  C   UNL A   1     -25.838  -0.921  30.189  0.00  0.00    -0.000 A 
ATOM      9  C   UNL A   1     -27.906  -0.840  31.243  0.00  0.00    -0.003 A 
ATOM     10  C   UNL A   1     -26.652  -0.940  31.358  0.00  0.00    -0.000 A 
ENDROOT
BRANCH   2  11
ATOM     11  C   UNL A   1     -29.992  -0.813  29.958  0.00  0.00    +0.099 C 
BRANCH  11  12
ATOM     12  N   UNL A   1     -30.569  -0.059  29.158  0.00  0.00    -0.269 NA
ATOM     13  C   UNL A   1     -30.026   0.936  28.598  0.00  0.00    +0.072 C 
ATOM     14  C   UNL A   1     -32.008  -0.326  28.855  0.00  0.00    +0.072 C 
ATOM     15  C   UNL A   1     -30.731   1.725  27.555  0.00  0.00    +0.017 C 
ATOM     16  C   UNL A   1     -32.647   0.352  27.841  0.00  0.00    +0.017 C 
ATOM     17  C   UNL A   1     -32.049   1.510  27.332  0.00  0.00    +0.003 C 
ENDBRANCH  11  12
ENDBRANCH   2  11
TORSDOF 2
