MODEL 3045
MODEL 1
REMARK VINA RESULT:    -5.808      0.000      0.000
REMARK INTER + INTRA:          -6.787
REMARK INTER:                  -6.487
REMARK INTRA:                  -0.300
REMARK UNBOUND:                -0.300
REMARK  Name = No_3045-gen_results/8p0m/2024-11-27-11-27-31/
REMARK  2 active torsions:
REMARK  status: ('A' for Active; 'I' for Inactive)
REMARK    1  A    between atoms: C_3  and  C_7
REMARK    2  A    between atoms: C_5  and  C_10
REMARK                            x       y       z     vdW  Elec       q    Type
REMARK                         _______ _______ _______ _____ _____    ______ ____
ROOT
ATOM      1  C   UNL A   1     -29.082 -10.356  32.583  0.00  0.00    +0.006 A 
ATOM      2  C   UNL A   1     -29.615 -10.182  31.691  0.00  0.00    +0.004 A 
ATOM      3  C   UNL A   1     -28.095 -11.365  32.575  0.00  0.00    +0.080 A 
ATOM      4  C   UNL A   1     -27.831 -12.120  31.450  0.00  0.00    +0.006 A 
ATOM      5  C   UNL A   1     -29.529 -10.832  30.369  0.00  0.00    +0.071 A 
ATOM      6  C   UNL A   1     -28.595 -11.808  30.318  0.00  0.00    +0.004 A 
ENDROOT
BRANCH   5   7
ATOM      7  C   UNL A   1     -30.382 -10.462  29.180  0.00  0.00    +0.419 C 
ATOM      8  F   UNL A   1     -30.649  -9.435  29.251  0.00  0.00    -0.166 F 
ATOM      9  F   UNL A   1     -31.458 -11.333  29.243  0.00  0.00    -0.166 F 
ATOM     10  F   UNL A   1     -29.698 -10.851  28.048  0.00  0.00    -0.166 F 
ENDBRANCH   5   7
BRANCH   3  11
ATOM     11  C   UNL A   1     -27.231 -11.681  33.764  0.00  0.00    +0.388 C 
ATOM     12  O   UNL A   1     -26.709 -12.763  33.800  0.00  0.00    -0.241 OA
ATOM     13  O   UNL A   1     -27.119 -10.851  34.703  0.00  0.00    -0.241 OA
ENDBRANCH   3  11
TORSDOF 2
ENDMDL
ENDMDL
