REMARK  Name = No_3047-gen_results/8p0m/2024-11-27-11-27-31/
REMARK  7 active torsions:
REMARK  status: ('A' for Active; 'I' for Inactive)
REMARK    1  A    between atoms: C_3  and  C_8
REMARK    2  A    between atoms: C_6  and  O_7
REMARK    3  A    between atoms: O_7  and  C_14
REMARK    4  A    between atoms: C_14  and  C_15
REMARK    5  A    between atoms: C_15  and  O_17
REMARK    6  A    between atoms: O_17  and  C_21
REMARK    7  A    between atoms: C_21  and  C_22
REMARK                            x       y       z     vdW  Elec       q    Type
REMARK                         _______ _______ _______ _____ _____    ______ ____
ROOT
ATOM      1  C   UNL A   1     -28.016  -0.814  28.878  0.00  0.00    +0.037 A 
ATOM      2  C   UNL A   1     -27.064  -0.119  28.608  0.00  0.00    +0.003 A 
ATOM      3  C   UNL A   1     -25.792  -0.430  29.076  0.00  0.00    +0.000 A 
ATOM      4  C   UNL A   1     -25.576  -1.565  29.936  0.00  0.00    +0.003 A 
ATOM      5  C   UNL A   1     -26.735  -2.300  30.217  0.00  0.00    +0.037 A 
ATOM      6  C   UNL A   1     -27.918  -1.954  29.763  0.00  0.00    +0.144 A 
ENDROOT
BRANCH   3   7
ATOM      7  C   UNL A   1     -24.529   0.349  28.800  0.00  0.00    +0.001 A 
ATOM      8  C   UNL A   1     -23.344   0.006  29.166  0.00  0.00    +0.000 A 
ATOM      9  C   UNL A   1     -22.178   0.781  28.778  0.00  0.00    +0.001 A 
ATOM     10  C   UNL A   1     -22.322   1.750  27.773  0.00  0.00    +0.011 A 
ATOM     11  C   UNL A   1     -24.439   1.248  27.617  0.00  0.00    +0.011 A 
ATOM     12  C   UNL A   1     -23.446   1.956  27.234  0.00  0.00    +0.058 A 
ATOM     13 CL   UNL A   1     -23.611   3.171  26.011  0.00  0.00    -0.082 Cl
ENDBRANCH   3   7
BRANCH   6  14
ATOM     14  O   UNL A   1     -29.000  -2.701  30.115  0.00  0.00    -0.422 OA
BRANCH  14  15
ATOM     15  C   UNL A   1     -30.125  -2.133  30.584  0.00  0.00    +0.503 C 
ATOM     16  F   UNL A   1     -30.034  -2.199  32.007  0.00  0.00    -0.154 F 
ATOM     17  F   UNL A   1     -30.201  -0.843  30.415  0.00  0.00    -0.154 F 
BRANCH  15  18
ATOM     18  C   UNL A   1     -31.196  -2.716  30.134  0.00  0.00    +0.423 C 
ATOM     19  O   UNL A   1     -32.144  -2.691  30.643  0.00  0.00    -0.239 OA
BRANCH  18  20
ATOM     20  O   UNL A   1     -31.187  -3.402  28.975  0.00  0.00    -0.432 OA
BRANCH  20  21
ATOM     21  C   UNL A   1     -32.211  -3.937  28.240  0.00  0.00    +0.294 C 
BRANCH  21  22
ATOM     22  C   UNL A   1     -32.302  -5.326  28.625  0.00  0.00    +0.286 C 
ATOM     23  O   UNL A   1     -32.666  -6.085  27.843  0.00  0.00    -0.269 OA
ATOM     24  N   UNL A   1     -31.880  -5.820  29.848  0.00  0.00    -0.200 NA
ATOM     25  C   UNL A   1     -31.877  -7.202  30.239  0.00  0.00    +0.139 C 
ENDBRANCH  21  22
ENDBRANCH  20  21
ENDBRANCH  18  20
ENDBRANCH  15  18
ENDBRANCH  14  15
ENDBRANCH   6  14
TORSDOF 7
