MODEL 3047
MODEL 1
REMARK VINA RESULT:    -6.421      0.000      0.000
REMARK INTER + INTRA:         -10.448
REMARK INTER:                  -9.049
REMARK INTRA:                  -1.399
REMARK UNBOUND:                -1.399
REMARK  Name = No_3047-gen_results/8p0m/2024-11-27-11-27-31/
REMARK  7 active torsions:
REMARK  status: ('A' for Active; 'I' for Inactive)
REMARK    1  A    between atoms: C_3  and  C_8
REMARK    2  A    between atoms: C_6  and  O_7
REMARK    3  A    between atoms: O_7  and  C_14
REMARK    4  A    between atoms: C_14  and  C_15
REMARK    5  A    between atoms: C_15  and  O_17
REMARK    6  A    between atoms: O_17  and  C_21
REMARK    7  A    between atoms: C_21  and  C_22
REMARK                            x       y       z     vdW  Elec       q    Type
REMARK                         _______ _______ _______ _____ _____    ______ ____
ROOT
ATOM      1  C   UNL A   1     -26.082   0.426  27.540  0.00  0.00    +0.037 A 
ATOM      2  C   UNL A   1     -27.135   0.650  26.988  0.00  0.00    +0.003 A 
ATOM      3  C   UNL A   1     -27.217   0.725  25.602  0.00  0.00    +0.000 A 
ATOM      4  C   UNL A   1     -26.042   0.585  24.781  0.00  0.00    +0.003 A 
ATOM      5  C   UNL A   1     -24.863   0.353  25.502  0.00  0.00    +0.037 A 
ATOM      6  C   UNL A   1     -24.836   0.306  26.815  0.00  0.00    +0.144 A 
ENDROOT
BRANCH   3   7
ATOM      7  C   UNL A   1     -28.468   0.987  24.800  0.00  0.00    +0.001 A 
ATOM      8  C   UNL A   1     -28.692   2.031  24.082  0.00  0.00    +0.000 A 
ATOM      9  C   UNL A   1     -29.895   2.152  23.276  0.00  0.00    +0.001 A 
ATOM     10  C   UNL A   1     -30.680   1.008  23.068  0.00  0.00    +0.011 A 
ATOM     11  C   UNL A   1     -29.291  -0.146  24.292  0.00  0.00    +0.011 A 
ATOM     12  C   UNL A   1     -30.357  -0.097  23.589  0.00  0.00    +0.058 A 
ATOM     13 CL   UNL A   1     -31.349  -1.495  23.340  0.00  0.00    -0.082 Cl
ENDBRANCH   3   7
BRANCH   6  14
ATOM     14  O   UNL A   1     -23.642   0.114  27.440  0.00  0.00    -0.422 OA
BRANCH  14  15
ATOM     15  C   UNL A   1     -22.983   1.130  28.025  0.00  0.00    +0.503 C 
ATOM     16  F   UNL A   1     -21.651   1.080  27.513  0.00  0.00    -0.154 F 
ATOM     17  F   UNL A   1     -23.341   2.318  27.629  0.00  0.00    -0.154 F 
BRANCH  15  18
ATOM     18  C   UNL A   1     -23.012   1.053  29.322  0.00  0.00    +0.423 C 
ATOM     19  O   UNL A   1     -23.432   1.818  29.953  0.00  0.00    -0.239 OA
BRANCH  18  20
ATOM     20  O   UNL A   1     -22.509  -0.013  29.974  0.00  0.00    -0.432 OA
BRANCH  20  21
ATOM     21  C   UNL A   1     -22.997  -0.730  31.034  0.00  0.00    +0.294 C 
BRANCH  21  22
ATOM     22  C   UNL A   1     -24.008  -1.610  30.495  0.00  0.00    +0.286 C 
ATOM     23  O   UNL A   1     -25.090  -1.481  30.857  0.00  0.00    -0.269 OA
ATOM     24  N   UNL A   1     -23.774  -2.535  29.491  0.00  0.00    -0.200 NA
ATOM     25  C   UNL A   1     -24.766  -3.369  28.872  0.00  0.00    +0.139 C 
ENDBRANCH  21  22
ENDBRANCH  20  21
ENDBRANCH  18  20
ENDBRANCH  15  18
ENDBRANCH  14  15
ENDBRANCH   6  14
TORSDOF 7
ENDMDL
ENDMDL
