REMARK  Name = No_3048-gen_results/8p0m/2024-11-27-11-27-31/
REMARK  6 active torsions:
REMARK  status: ('A' for Active; 'I' for Inactive)
REMARK    1  A    between atoms: C_1  and  C_2
REMARK    2  A    between atoms: C_5  and  C_10
REMARK    3  A    between atoms: C_6  and  C_13
REMARK    4  A    between atoms: C_13  and  C_14
REMARK    5  A    between atoms: C_14  and  C_15
REMARK    6  A    between atoms: C_14  and  C_16
REMARK                            x       y       z     vdW  Elec       q    Type
REMARK                         _______ _______ _______ _____ _____    ______ ____
ROOT
ATOM      1  C   UNL A   1     -27.064  -0.119  28.608  0.00  0.00    +0.071 A 
ATOM      2  C   UNL A   1     -27.001   0.691  27.491  0.00  0.00    -0.000 A 
ATOM      3  C   UNL A   1     -25.855   1.482  27.083  0.00  0.00    -0.016 A 
ATOM      4  C   UNL A   1     -24.690   1.453  27.881  0.00  0.00    +0.072 A 
ATOM      5  C   UNL A   1     -24.738   0.601  29.042  0.00  0.00    -0.016 A 
ATOM      6  C   UNL A   1     -25.823  -0.169  29.389  0.00  0.00    -0.000 A 
ATOM      7  C   UNL A   1     -25.916   2.288  25.928  0.00  0.00    +0.031 C 
ENDROOT
BRANCH   1   8
ATOM      8  C   UNL A   1     -28.016  -0.814  28.878  0.00  0.00    +0.419 C 
ATOM      9  F   UNL A   1     -29.002  -0.556  28.241  0.00  0.00    -0.166 F 
ATOM     10  F   UNL A   1     -28.356  -0.684  30.269  0.00  0.00    -0.166 F 
ATOM     11  F   UNL A   1     -27.694  -2.121  28.866  0.00  0.00    -0.166 F 
ENDBRANCH   1   8
BRANCH   4  12
ATOM     12  C   UNL A   1     -23.514   2.214  27.578  0.00  0.00    +0.387 C 
ATOM     13  O   UNL A   1     -22.617   1.746  27.195  0.00  0.00    -0.241 OA
ATOM     14  O   UNL A   1     -23.566   3.467  27.985  0.00  0.00    -0.241 OA
ENDBRANCH   4  12
BRANCH   5  15
ATOM     15  C   UNL A   1     -23.506   0.505  29.894  0.00  0.00    +0.035 C 
BRANCH  15  16
ATOM     16  C   UNL A   1     -23.343  -0.563  30.680  0.00  0.00    +0.104 C 
BRANCH  16  17
ATOM     17  C   UNL A   1     -23.781  -0.431  31.964  0.00  0.00    +0.321 C 
ATOM     18  F   UNL A   1     -23.433  -1.366  32.814  0.00  0.00    -0.198 F 
ATOM     19  F   UNL A   1     -24.487   0.455  32.413  0.00  0.00    -0.198 F 
ENDBRANCH  16  17
BRANCH  16  20
ATOM     20  C   UNL A   1     -22.617  -1.653  30.187  0.00  0.00    +0.188 C 
ATOM     21  O   UNL A   1     -21.732  -1.457  29.314  0.00  0.00    -0.220 OA
ENDBRANCH  16  20
ENDBRANCH  15  16
ENDBRANCH   5  15
TORSDOF 6
