MODEL 3048
MODEL 1
REMARK VINA RESULT:    -6.829      0.000      0.000
REMARK INTER + INTRA:         -10.066
REMARK INTER:                  -9.225
REMARK INTRA:                  -0.842
REMARK UNBOUND:                -0.842
REMARK  Name = No_3048-gen_results/8p0m/2024-11-27-11-27-31/
REMARK  6 active torsions:
REMARK  status: ('A' for Active; 'I' for Inactive)
REMARK    1  A    between atoms: C_1  and  C_2
REMARK    2  A    between atoms: C_5  and  C_10
REMARK    3  A    between atoms: C_6  and  C_13
REMARK    4  A    between atoms: C_13  and  C_14
REMARK    5  A    between atoms: C_14  and  C_15
REMARK    6  A    between atoms: C_14  and  C_16
REMARK                            x       y       z     vdW  Elec       q    Type
REMARK                         _______ _______ _______ _____ _____    ______ ____
ROOT
ATOM      1  C   UNL A   1     -25.105   0.076  26.033  0.00  0.00    +0.071 A 
ATOM      2  C   UNL A   1     -24.019   0.899  26.253  0.00  0.00    -0.000 A 
ATOM      3  C   UNL A   1     -23.266   0.994  27.490  0.00  0.00    -0.016 A 
ATOM      4  C   UNL A   1     -23.659   0.197  28.588  0.00  0.00    +0.072 A 
ATOM      5  C   UNL A   1     -24.783  -0.677  28.366  0.00  0.00    -0.016 A 
ATOM      6  C   UNL A   1     -25.459  -0.777  27.173  0.00  0.00    -0.000 A 
ATOM      7  C   UNL A   1     -22.182   1.888  27.602  0.00  0.00    +0.031 C 
ENDROOT
BRANCH   1   8
ATOM      8  C   UNL A   1     -25.666  -0.022  24.965  0.00  0.00    +0.419 C 
ATOM      9  F   UNL A   1     -26.734   0.526  24.926  0.00  0.00    -0.166 F 
ATOM     10  F   UNL A   1     -25.879  -1.404  24.633  0.00  0.00    -0.166 F 
ATOM     11  F   UNL A   1     -24.851   0.312  23.947  0.00  0.00    -0.166 F 
ENDBRANCH   1   8
BRANCH   4  12
ATOM     12  C   UNL A   1     -22.997   0.232  29.858  0.00  0.00    +0.387 C 
ATOM     13  O   UNL A   1     -23.238   0.977  30.604  0.00  0.00    -0.241 OA
ATOM     14  O   UNL A   1     -21.963  -0.581  29.947  0.00  0.00    -0.241 OA
ENDBRANCH   4  12
BRANCH   5  15
ATOM     15  C   UNL A   1     -25.207  -1.575  29.492  0.00  0.00    +0.035 C 
BRANCH  15  16
ATOM     16  C   UNL A   1     -25.081  -2.897  29.349  0.00  0.00    +0.104 C 
BRANCH  16  17
ATOM     17  C   UNL A   1     -26.169  -3.641  29.696  0.00  0.00    +0.321 C 
ATOM     18  F   UNL A   1     -27.034  -3.091  30.512  0.00  0.00    -0.198 F 
ATOM     19  F   UNL A   1     -26.421  -4.782  29.349  0.00  0.00    -0.198 F 
ENDBRANCH  16  17
BRANCH  16  20
ATOM     20  C   UNL A   1     -23.826  -3.417  29.011  0.00  0.00    +0.188 C 
ATOM     21  O   UNL A   1     -23.762  -4.425  28.260  0.00  0.00    -0.220 OA
ENDBRANCH  16  20
ENDBRANCH  15  16
ENDBRANCH   5  15
TORSDOF 6
ENDMDL
ENDMDL
