REMARK  Name = outputs/IAG933/test6/raw/output_3049_IAG933_linker_design_.xyz
REMARK  18 active torsions:
REMARK  status: ('A' for Active; 'I' for Inactive)
REMARK    1  A    between atoms: C_1  and  C_2
REMARK    2  A    between atoms: C_1  and  C_8
REMARK    3  A    between atoms: C_1  and  N_40
REMARK    4  A    between atoms: C_13  and  C_36
REMARK    5  A    between atoms: C_14  and  C_15
REMARK    6  A    between atoms: C_21  and  O_22
REMARK    7  A    between atoms: O_22  and  C_23
REMARK    8  A    between atoms: C_23  and  C_24
REMARK    9  A    between atoms: C_28  and  N_40
REMARK   10  A    between atoms: C_29  and  C_39
REMARK   11  A    between atoms: C_29  and  C_45
REMARK   12  A    between atoms: S_31  and  N_40
REMARK   13  A    between atoms: S_31  and  S_41
REMARK   14  A    between atoms: O_35  and  C_36
REMARK   15  A    between atoms: O_35  and  C_42
REMARK   16  A    between atoms: C_36  and  C_44
REMARK   17  A    between atoms: C_39  and  O_46
REMARK   18  A    between atoms: S_41  and  C_45
REMARK                            x       y       z     vdW  Elec       q    Type
REMARK                         _______ _______ _______ _____ _____    ______ ____
ROOT
ATOM      1  C   UNL A   1     -24.536   0.721  28.643  0.00  0.00    +0.015 C 
ATOM      2  C   UNL A   1     -24.218   1.242  28.033  0.00  0.00    -0.027 C 
ENDROOT
BRANCH   1   3
ATOM      3  N   UNL A   1     -25.325  -0.083  29.115  0.00  0.00    -0.201 N 
BRANCH   3   4
ATOM      4  C   UNL A   1     -24.855  -1.012  30.143  0.00  0.00    +0.132 C 
BRANCH   4   5
ATOM      5  C   UNL A   1     -24.973  -2.505  29.788  0.00  0.00    -0.001 C 
ATOM      6  C   UNL A   1     -23.906  -3.173  29.146  0.00  0.00    -0.003 C 
ATOM      7  C   UNL A   1     -23.989  -4.549  28.853  0.00  0.00    -0.000 C 
ATOM      8  C   UNL A   1     -25.137  -5.280  29.205  0.00  0.00    -0.000 C 
ATOM      9  C   UNL A   1     -26.232  -4.611  29.784  0.00  0.00    -0.000 C 
ATOM     10  C   UNL A   1     -26.155  -3.232  30.065  0.00  0.00    -0.003 C 
ENDBRANCH   4   5
BRANCH   4  11
ATOM     11  C   UNL A   1     -25.387  -0.679  31.571  0.00  0.00    +0.097 C 
ATOM     12  C   UNL A   1     -25.189   0.773  32.028  0.00  0.00    +0.021 C 
ATOM     13  C   UNL A   1     -25.336   0.684  33.544  0.00  0.00    +0.020 C 
ATOM     14  C   UNL A   1     -24.829  -0.715  33.905  0.00  0.00    +0.089 C 
ATOM     15  N   UNL A   1     -24.758  -1.481  32.646  0.00  0.00    -0.217 NA
ENDBRANCH   4  11
ENDBRANCH   3   4
BRANCH   3  16
ATOM     16  S   UNL A   1     -26.952  -0.437  28.466  0.00  0.00    +0.113 S 
BRANCH  16  19
ATOM     17  O   UNL A   1     -29.357  -0.668  29.433  0.00  0.00    -0.161 OA
ATOM     18  O   UNL A   1     -29.421   0.139  27.338  0.00  0.00    -0.161 OA
ATOM     19  S   UNL A   1     -28.781   0.262  28.497  0.00  0.00    +0.049 S 
BRANCH  19  20
ATOM     20  C   UNL A   1     -28.865   1.681  29.255  0.00  0.00    +0.176 C 
BRANCH  20  21
ATOM     21  C   UNL A   1     -30.248   1.827  29.854  0.00  0.00    +0.136 C 
BRANCH  21  23
ATOM     22  O   UNL A   1     -31.611   3.805  30.228  0.00  0.00    -0.250 OA
ATOM     23  C   UNL A   1     -30.997   3.052  29.437  0.00  0.00    +0.319 C 
BRANCH  23  25
ATOM     24  C   UNL A   1     -30.865   4.796  27.934  0.00  0.00    +0.256 C 
ATOM     25  O   UNL A   1     -30.688   3.395  28.116  0.00  0.00    -0.444 OA
ENDBRANCH  23  25
ENDBRANCH  21  23
ENDBRANCH  20  21
ENDBRANCH  19  20
ENDBRANCH  16  19
ENDBRANCH   3  16
ENDBRANCH   1   3
BRANCH   2  26
ATOM     26  C   UNL A   1     -24.165   1.847  26.702  0.00  0.00    +0.242 C 
BRANCH  26  27
ATOM     27  C   UNL A   1     -25.688   1.614  26.461  0.00  0.00    +0.123 C 
ATOM     28  C   UNL A   1     -26.250   2.920  26.395  0.00  0.00    +0.059 C 
ATOM     29  C   UNL A   1     -27.438   3.091  25.645  0.00  0.00    +0.102 C 
ATOM     30  N   UNL A   1     -28.075   2.089  25.003  0.00  0.00    -0.212 NA
ATOM     31  C   UNL A   1     -27.543   0.849  25.079  0.00  0.00    +0.234 C 
ATOM     32  C   UNL A   1     -26.354   0.576  25.777  0.00  0.00    +0.244 C 
ATOM     33  F   UNL A   1     -25.860  -0.681  25.795  0.00  0.00    -0.227 F 
BRANCH  28  34
ATOM     34  C   UNL A   1     -25.642   4.093  27.123  0.00  0.00    +0.263 C 
ATOM     35  N   UNL A   1     -25.614   5.252  26.449  0.00  0.00    -0.200 NA
ATOM     36  C   UNL A   1     -25.026   6.479  26.963  0.00  0.00    +0.139 C 
ATOM     37  O   UNL A   1     -25.143   3.966  28.243  0.00  0.00    -0.269 OA
ENDBRANCH  28  34
BRANCH  31  38
ATOM     38  O   UNL A   1     -28.193  -0.208  24.477  0.00  0.00    -0.459 OA
BRANCH  38  39
ATOM     39  C   UNL A   1     -29.460   0.005  23.866  0.00  0.00    +0.242 C 
BRANCH  39  40
ATOM     40  C   UNL A   1     -30.065  -1.377  23.573  0.00  0.00    +0.229 C 
ATOM     41  O   UNL A   1     -30.729  -1.878  24.721  0.00  0.00    -0.216 OA
ENDBRANCH  39  40
ENDBRANCH  38  39
ENDBRANCH  31  38
ENDBRANCH  26  27
BRANCH  26  42
ATOM     42  O   UNL A   1     -22.650   1.782  26.901  0.00  0.00    -0.423 OA
BRANCH  42  46
ATOM     43  O   UNL A   1     -20.754   2.342  27.964  0.00  0.00    -0.225 OA
ATOM     44  N   UNL A   1     -21.872   0.622  28.780  0.00  0.00    -0.167 NA
ATOM     45  C   UNL A   1     -22.449   0.242  29.989  0.00  0.00    +0.142 C 
ATOM     46  C   UNL A   1     -21.889   1.584  27.894  0.00  0.00    +0.422 C 
ENDBRANCH  42  46
ENDBRANCH  26  42
ENDBRANCH   2  26
TORSDOF 18
