MODEL 3049
MODEL 1
REMARK VINA RESULT:    -6.815      0.000      0.000
REMARK INTER + INTRA:          -9.069
REMARK INTER:                  -8.408
REMARK INTRA:                  -0.661
REMARK UNBOUND:                -0.661
REMARK  Name = No_3049-gen_results/8p0m/2024-11-27-11-27-31/
REMARK  4 active torsions:
REMARK  status: ('A' for Active; 'I' for Inactive)
REMARK    1  A    between atoms: C_2  and  C_7
REMARK    2  A    between atoms: C_11  and  C_13
REMARK    3  A    between atoms: N_15  and  C_16
REMARK    4  A    between atoms: C_16  and  C_17
REMARK                            x       y       z     vdW  Elec       q    Type
REMARK                         _______ _______ _______ _____ _____    ______ ____
ROOT
ATOM      1  C   UNL A   1     -24.069  -1.346  28.504  0.00  0.00    +0.018 A 
ATOM      2  C   UNL A   1     -24.393  -0.456  27.756  0.00  0.00    +0.006 A 
ATOM      3  C   UNL A   1     -22.744  -1.224  29.209  0.00  0.00    +0.002 A 
ATOM      4  C   UNL A   1     -21.937  -0.145  28.972  0.00  0.00    +0.000 A 
ATOM      5  C   UNL A   1     -23.631   0.747  27.457  0.00  0.00    +0.055 A 
ATOM      6  C   UNL A   1     -22.355   0.878  28.101  0.00  0.00    +0.005 A 
ENDROOT
BRANCH   1   8
ATOM      7  N   UNL A   1     -25.898  -2.583  29.427  0.00  0.00    -0.244 NA
ATOM      8  C   UNL A   1     -24.783  -2.569  28.900  0.00  0.00    +0.081 A 
ATOM      9  C   UNL A   1     -24.120  -3.761  28.666  0.00  0.00    +0.019 A 
ATOM     10  C   UNL A   1     -24.742  -5.036  29.008  0.00  0.00    +0.003 A 
ATOM     11  C   UNL A   1     -25.945  -4.912  29.602  0.00  0.00    +0.021 A 
ATOM     12  C   UNL A   1     -26.485  -3.746  29.864  0.00  0.00    +0.099 A 
ENDBRANCH   1   8
BRANCH   5  13
ATOM     13  C   UNL A   1     -24.096   1.795  26.554  0.00  0.00    +0.265 C 
ATOM     14  O   UNL A   1     -23.390   2.597  26.074  0.00  0.00    -0.268 OA
ATOM     15  N   UNL A   1     -25.452   2.124  26.653  0.00  0.00    -0.193 NA
BRANCH  15  16
ATOM     16  C   UNL A   1     -26.019   3.142  25.801  0.00  0.00    +0.218 C 
BRANCH  16  17
ATOM     17  C   UNL A   1     -27.262   2.504  25.160  0.00  0.00    +0.417 C 
ATOM     18  F   UNL A   1     -27.755   3.266  24.444  0.00  0.00    -0.168 F 
ATOM     19  F   UNL A   1     -26.849   1.412  24.412  0.00  0.00    -0.168 F 
ATOM     20  F   UNL A   1     -28.044   1.967  26.112  0.00  0.00    -0.168 F 
ENDBRANCH  16  17
ENDBRANCH  15  16
ENDBRANCH   5  13
TORSDOF 4
ENDMDL
ENDMDL
