MODEL 304
MODEL 1
REMARK VINA RESULT:    -6.637      0.000      0.000
REMARK INTER + INTRA:          -7.435
REMARK INTER:                  -7.025
REMARK INTRA:                  -0.410
REMARK UNBOUND:                -0.410
REMARK  Name = No_304-gen_results/8p0m/2024-11-27-11-27-31/
REMARK  1 active torsions:
REMARK  status: ('A' for Active; 'I' for Inactive)
REMARK    1  A    between atoms: C_7  and  N_13
REMARK                            x       y       z     vdW  Elec       q    Type
REMARK                         _______ _______ _______ _____ _____    ______ ____
ROOT
ATOM      1  C   UNL A   1     -26.057  -4.276  29.716  0.00  0.00    +0.012 A 
ATOM      2  C   UNL A   1     -25.176  -4.298  29.138  0.00  0.00    +0.059 A 
ATOM      3  C   UNL A   1     -26.503  -2.918  30.052  0.00  0.00    +0.013 A 
ATOM      4  C   UNL A   1     -27.817  -2.686  30.681  0.00  0.00    +0.058 A 
ATOM      5  C   UNL A   1     -28.093  -1.631  31.409  0.00  0.00    +0.011 A 
ATOM      6  C   UNL A   1     -24.191  -3.297  28.839  0.00  0.00    +0.026 A 
ATOM      7  C   UNL A   1     -24.548  -2.070  29.162  0.00  0.00    +0.049 A 
ATOM      8  C   UNL A   1     -25.764  -1.816  29.753  0.00  0.00    +0.014 A 
ATOM      9  C   UNL A   1     -27.256  -0.421  31.184  0.00  0.00    +0.001 A 
ATOM     10  C   UNL A   1     -26.040  -0.585  30.496  0.00  0.00    +0.001 A 
ATOM     11 CL   UNL A   1     -28.907  -4.013  30.891  0.00  0.00    -0.082 Cl
ATOM     12 CL   UNL A   1     -24.598  -6.002  28.548  0.00  0.00    -0.082 Cl
ENDROOT
BRANCH   7  13
ATOM     13  N   UNL A   1     -23.615  -1.008  28.926  0.00  0.00    -0.307 N 
ATOM     14  C   UNL A   1     -22.388  -1.072  29.095  0.00  0.00    +0.091 C 
ATOM     15  C   UNL A   1     -21.647   0.083  28.827  0.00  0.00    +0.021 C 
ATOM     16  C   UNL A   1     -23.934  -0.131  27.775  0.00  0.00    +0.091 C 
ATOM     17  C   UNL A   1     -23.334   1.064  27.674  0.00  0.00    +0.021 C 
ATOM     18  C   UNL A   1     -21.987   1.034  27.926  0.00  0.00    +0.004 C 
ENDBRANCH   7  13
TORSDOF 1
ENDMDL
ENDMDL
