REMARK  Name = outputs/IAG933/test6/raw/output_3050_IAG933_linker_design_.xyz
REMARK  11 active torsions:
REMARK  status: ('A' for Active; 'I' for Inactive)
REMARK    1  A    between atoms: C_1  and  C_2
REMARK    2  A    between atoms: C_1  and  C_8
REMARK    3  A    between atoms: C_1  and  N_34
REMARK    4  A    between atoms: C_13  and  N_37
REMARK    5  A    between atoms: C_14  and  C_15
REMARK    6  A    between atoms: C_21  and  O_22
REMARK    7  A    between atoms: O_22  and  C_23
REMARK    8  A    between atoms: C_23  and  C_24
REMARK    9  A    between atoms: C_31  and  C_35
REMARK   10  A    between atoms: N_33  and  C_36
REMARK   11  A    between atoms: C_35  and  C_40
REMARK                            x       y       z     vdW  Elec       q    Type
REMARK                         _______ _______ _______ _____ _____    ______ ____
ROOT
ATOM      1  F   UNL A   1     -22.544   0.426  30.080  0.00  0.00    -0.217 F 
ATOM      2  N   UNL A   1     -24.602  -0.029  29.090  0.00  0.00    -0.216 NA
ATOM      3  C   UNL A   1     -25.505   0.165  28.549  0.00  0.00    +0.187 C 
ATOM      4  N   UNL A   1     -24.894   1.188  27.494  0.00  0.00    -0.237 NA
ATOM      5  C   UNL A   1     -23.544   1.384  27.844  0.00  0.00    +0.148 C 
ATOM      6  C   UNL A   1     -23.473   0.630  29.150  0.00  0.00    +0.242 C 
ENDROOT
BRANCH   4   7
ATOM      7  C   UNL A   1     -25.688   1.614  26.461  0.00  0.00    +0.131 C 
ATOM      8  C   UNL A   1     -26.250   2.920  26.395  0.00  0.00    +0.070 C 
ATOM      9  C   UNL A   1     -27.438   3.091  25.645  0.00  0.00    +0.103 C 
ATOM     10  N   UNL A   1     -28.075   2.089  25.003  0.00  0.00    -0.212 NA
ATOM     11  C   UNL A   1     -27.543   0.849  25.079  0.00  0.00    +0.235 C 
ATOM     12  C   UNL A   1     -26.354   0.576  25.777  0.00  0.00    +0.255 C 
ATOM     13  F   UNL A   1     -25.860  -0.681  25.795  0.00  0.00    -0.225 F 
BRANCH   8  14
ATOM     14  C   UNL A   1     -25.642   4.093  27.123  0.00  0.00    +0.264 C 
ATOM     15  N   UNL A   1     -25.614   5.252  26.449  0.00  0.00    -0.200 NA
ATOM     16  C   UNL A   1     -25.026   6.479  26.963  0.00  0.00    +0.139 C 
ATOM     17  O   UNL A   1     -25.143   3.966  28.243  0.00  0.00    -0.269 OA
ENDBRANCH   8  14
BRANCH  11  18
ATOM     18  O   UNL A   1     -28.193  -0.208  24.477  0.00  0.00    -0.459 OA
BRANCH  18  19
ATOM     19  C   UNL A   1     -29.460   0.005  23.866  0.00  0.00    +0.242 C 
BRANCH  19  20
ATOM     20  C   UNL A   1     -30.065  -1.377  23.573  0.00  0.00    +0.229 C 
ATOM     21  O   UNL A   1     -30.729  -1.878  24.721  0.00  0.00    -0.216 OA
ENDBRANCH  19  20
ENDBRANCH  18  19
ENDBRANCH  11  18
ENDBRANCH   4   7
BRANCH   3  25
ATOM     22  C   UNL A   1     -26.468   2.070  29.969  0.00  0.00    +0.074 C 
ATOM     23  C   UNL A   1     -28.824   2.855  29.444  0.00  0.00    +0.003 C 
ATOM     24  C   UNL A   1     -28.020   0.542  28.708  0.00  0.00    +0.074 C 
ATOM     25  N   UNL A   1     -26.677   0.835  29.070  0.00  0.00    -0.248 NA
ATOM     26  C   UNL A   1     -27.796   2.617  30.557  0.00  0.00    +0.018 C 
ATOM     27  C   UNL A   1     -28.867   1.775  28.380  0.00  0.00    +0.018 C 
ENDBRANCH   3  25
BRANCH   5  28
ATOM     28  C   UNL A   1     -22.637   1.923  26.933  0.00  0.00    +0.222 C 
ATOM     29  F   UNL A   1     -22.870   2.677  25.833  0.00  0.00    -0.229 F 
BRANCH  28  30
ATOM     30  C   UNL A   1     -21.314   1.455  27.132  0.00  0.00    +0.132 C 
ATOM     31  N   UNL A   1     -20.623   1.793  28.217  0.00  0.00    -0.148 NA
ENDBRANCH  28  30
ENDBRANCH   5  28
BRANCH   2  32
ATOM     32  C   UNL A   1     -24.855  -1.012  30.143  0.00  0.00    +0.101 C 
BRANCH  32  33
ATOM     33  C   UNL A   1     -24.973  -2.505  29.788  0.00  0.00    -0.006 C 
ATOM     34  C   UNL A   1     -23.906  -3.173  29.146  0.00  0.00    -0.003 C 
ATOM     35  C   UNL A   1     -23.989  -4.549  28.853  0.00  0.00    -0.000 C 
ATOM     36  C   UNL A   1     -25.137  -5.280  29.205  0.00  0.00    -0.000 C 
ATOM     37  C   UNL A   1     -26.232  -4.611  29.784  0.00  0.00    -0.000 C 
ATOM     38  C   UNL A   1     -26.155  -3.232  30.065  0.00  0.00    -0.003 C 
ENDBRANCH  32  33
BRANCH  32  39
ATOM     39  C   UNL A   1     -25.387  -0.679  31.571  0.00  0.00    +0.092 C 
ATOM     40  C   UNL A   1     -25.189   0.773  32.028  0.00  0.00    +0.021 C 
ATOM     41  C   UNL A   1     -25.336   0.684  33.544  0.00  0.00    +0.020 C 
ATOM     42  C   UNL A   1     -24.829  -0.715  33.905  0.00  0.00    +0.089 C 
ATOM     43  N   UNL A   1     -24.758  -1.481  32.646  0.00  0.00    -0.218 NA
ENDBRANCH  32  39
ENDBRANCH   2  32
TORSDOF 11
