MODEL 3051
MODEL 1
REMARK VINA RESULT:    -6.208      0.000      0.000
REMARK INTER + INTRA:          -8.829
REMARK INTER:                  -8.022
REMARK INTRA:                  -0.807
REMARK UNBOUND:                -0.807
REMARK  Name = No_3051-gen_results/8p0m/2024-11-27-11-27-31/
REMARK  5 active torsions:
REMARK  status: ('A' for Active; 'I' for Inactive)
REMARK    1  A    between atoms: C_1  and  C_2
REMARK    2  A    between atoms: C_1  and  C_8
REMARK    3  A    between atoms: C_5  and  C_17
REMARK    4  A    between atoms: C_8  and  C_9
REMARK    5  A    between atoms: C_9  and  C_10
REMARK                            x       y       z     vdW  Elec       q    Type
REMARK                         _______ _______ _______ _____ _____    ______ ____
ROOT
ATOM      1  C   UNL A   1     -30.216 -13.306  12.881  0.00  0.00    +0.091 C 
ENDROOT
BRANCH   1   2
ATOM      2  C   UNL A   1     -30.231 -12.436  12.042  0.00  0.00    -0.015 A 
ATOM      3  C   UNL A   1     -31.349 -11.629  11.864  0.00  0.00    -0.004 A 
ATOM      4  C   UNL A   1     -31.494 -10.534  10.862  0.00  0.00    +0.001 A 
ATOM      5  C   UNL A   1     -30.316 -10.197  10.132  0.00  0.00    +0.021 A 
ATOM      6  C   UNL A   1     -29.176 -10.990  10.371  0.00  0.00    +0.001 A 
ATOM      7  C   UNL A   1     -29.123 -11.999  11.252  0.00  0.00    -0.004 A 
BRANCH   5   8
ATOM      8  C   UNL A   1     -30.399  -9.077   9.208  0.00  0.00    +0.122 C 
ATOM      9  N   UNL A   1     -30.184  -7.793   9.656  0.00  0.00    -0.146 NA
ENDBRANCH   5   8
ENDBRANCH   1   2
BRANCH   1  10
ATOM     10  C   UNL A   1     -29.847 -14.677  12.319  0.00  0.00    +0.159 C 
ATOM     11  O   UNL A   1     -29.065 -15.373  13.173  0.00  0.00    -0.295 OA
BRANCH  10  12
ATOM     12  C   UNL A   1     -30.231 -15.067  11.409  0.00  0.00    +0.091 C 
BRANCH  12  13
ATOM     13  C   UNL A   1     -30.019 -15.576  10.402  0.00  0.00    -0.015 A 
ATOM     14  C   UNL A   1     -29.189 -16.102   9.373  0.00  0.00    -0.004 A 
ATOM     15  C   UNL A   1     -29.778 -16.191   8.084  0.00  0.00    -0.000 A 
ATOM     16  C   UNL A   1     -31.074 -16.027   7.837  0.00  0.00    -0.000 A 
ATOM     17  C   UNL A   1     -31.903 -15.550   8.776  0.00  0.00    -0.000 A 
ATOM     18  C   UNL A   1     -31.443 -15.333   9.719  0.00  0.00    -0.004 A 
ENDBRANCH  12  13
ENDBRANCH  10  12
ENDBRANCH   1  10
TORSDOF 5
ENDMDL
ENDMDL
