MODEL 3052
MODEL 1
REMARK VINA RESULT:    -5.192      0.000      0.000
REMARK INTER + INTRA:          -5.692
REMARK INTER:                  -5.495
REMARK INTRA:                  -0.197
REMARK UNBOUND:                -0.197
REMARK  Name = No_3052-gen_results/8p0m/2024-11-27-11-27-31/
REMARK  1 active torsions:
REMARK  status: ('A' for Active; 'I' for Inactive)
REMARK    1  A    between atoms: C_3  and  C_7
REMARK                            x       y       z     vdW  Elec       q    Type
REMARK                         _______ _______ _______ _____ _____    ______ ____
ROOT
ATOM      1  C   UNL A   1     -23.917  -3.925  28.624  0.00  0.00    +0.004 A 
ATOM      2  C   UNL A   1     -24.436  -4.823  28.810  0.00  0.00    -0.000 A 
ATOM      3  C   UNL A   1     -24.535  -2.715  29.008  0.00  0.00    +0.071 A 
ATOM      4  C   UNL A   1     -25.783  -2.687  29.598  0.00  0.00    +0.004 A 
ATOM      5  C   UNL A   1     -26.392  -3.913  29.813  0.00  0.00    -0.000 A 
ATOM      6  C   UNL A   1     -25.734  -5.070  29.454  0.00  0.00    -0.000 A 
ENDROOT
BRANCH   3   7
ATOM      7  C   UNL A   1     -23.899  -1.369  28.823  0.00  0.00    +0.419 C 
ATOM      8  F   UNL A   1     -24.205  -0.621  29.716  0.00  0.00    -0.166 F 
ATOM      9  F   UNL A   1     -22.537  -1.521  28.852  0.00  0.00    -0.166 F 
ATOM     10  F   UNL A   1     -24.198  -0.712  27.677  0.00  0.00    -0.166 F 
ENDBRANCH   3   7
TORSDOF 1
ENDMDL
ENDMDL
