REMARK  Name = No_3053-gen_results/8p0m/2024-11-27-11-27-31/
REMARK  9 active torsions:
REMARK  status: ('A' for Active; 'I' for Inactive)
REMARK    1  A    between atoms: C_3  and  C_7
REMARK    2  A    between atoms: C_6  and  C_16
REMARK    3  A    between atoms: C_7  and  C_19
REMARK    4  A    between atoms: C_8  and  C_9
REMARK    5  A    between atoms: C_10  and  C_11
REMARK    6  A    between atoms: C_14  and  C_15
REMARK    7  A    between atoms: C_19  and  O_25
REMARK    8  A    between atoms: O_25  and  C_27
REMARK    9  A    between atoms: C_27  and  C_28
REMARK                            x       y       z     vdW  Elec       q    Type
REMARK                         _______ _______ _______ _____ _____    ______ ____
ROOT
ATOM      1  C   UNL A   1     -25.603   1.711  28.537  0.00  0.00    +0.076 C 
ATOM      2  C   UNL A   1     -24.884   1.538  27.561  0.00  0.00    +0.006 C 
ENDROOT
BRANCH   1   5
ATOM      3  C   UNL A   1     -28.016  -0.814  28.878  0.00  0.00    +0.007 A 
ATOM      4  C   UNL A   1     -27.064  -0.119  28.608  0.00  0.00    +0.000 A 
ATOM      5  C   UNL A   1     -26.876   1.133  28.913  0.00  0.00    +0.006 A 
ATOM      6  C   UNL A   1     -27.901   1.807  29.644  0.00  0.00    +0.000 A 
ATOM      7  C   UNL A   1     -28.945   1.039  30.036  0.00  0.00    +0.007 A 
ATOM      8  C   UNL A   1     -29.027  -0.289  29.705  0.00  0.00    +0.080 A 
BRANCH   8   9
ATOM      9  C   UNL A   1     -30.201  -1.155  30.089  0.00  0.00    +0.388 C 
ATOM     10  O   UNL A   1     -29.963  -2.229  30.340  0.00  0.00    -0.241 OA
ATOM     11  O   UNL A   1     -31.347  -0.673  30.220  0.00  0.00    -0.241 OA
ENDBRANCH   8   9
ENDBRANCH   1   5
BRANCH   2  12
ATOM     12  C   UNL A   1     -23.602   2.149  27.292  0.00  0.00    +0.000 C 
ATOM     13  C   UNL A   1     -22.393   1.797  27.399  0.00  0.00    +0.002 C 
BRANCH  13  14
ATOM     14  C   UNL A   1     -22.129   0.717  28.313  0.00  0.00    +0.019 A 
ATOM     15  C   UNL A   1     -20.809   0.363  28.642  0.00  0.00    +0.099 A 
ATOM     16  C   UNL A   1     -23.202  -0.082  28.776  0.00  0.00    +0.008 A 
ATOM     17  C   UNL A   1     -22.718  -1.079  29.786  0.00  0.00    +0.074 A 
ATOM     18  N   UNL A   1     -20.528  -0.737  29.360  0.00  0.00    -0.242 NA
ATOM     19  C   UNL A   1     -21.432  -1.167  30.024  0.00  0.00    +0.103 A 
BRANCH  17  20
ATOM     20  C   UNL A   1     -23.728  -1.154  30.761  0.00  0.00    +0.266 C 
ATOM     21  O   UNL A   1     -24.680  -2.022  30.522  0.00  0.00    -0.268 OA
ATOM     22  N   UNL A   1     -23.753  -0.538  31.992  0.00  0.00    -0.200 NA
ATOM     23  C   UNL A   1     -24.756  -0.631  33.038  0.00  0.00    +0.139 C 
ENDBRANCH  17  20
ENDBRANCH  13  14
ENDBRANCH   2  12
BRANCH   1  24
ATOM     24  C   UNL A   1     -25.122   2.839  29.522  0.00  0.00    +0.342 C 
ATOM     25  O   UNL A   1     -24.922   2.579  30.809  0.00  0.00    -0.245 OA
BRANCH  24  26
ATOM     26  O   UNL A   1     -25.473   4.027  29.195  0.00  0.00    -0.440 OA
BRANCH  26  27
ATOM     27  C   UNL A   1     -25.707   5.018  30.083  0.00  0.00    +0.235 C 
BRANCH  27  28
ATOM     28  C   UNL A   1     -25.775   6.329  29.463  0.00  0.00    +0.021 A 
ATOM     29  C   UNL A   1     -25.850   6.447  28.097  0.00  0.00    -0.001 A 
ATOM     30  C   UNL A   1     -25.729   7.730  27.449  0.00  0.00    -0.000 A 
ATOM     31  C   UNL A   1     -25.594   8.872  28.230  0.00  0.00    -0.000 A 
ATOM     32  C   UNL A   1     -25.529   8.775  29.641  0.00  0.00    -0.000 A 
ATOM     33  C   UNL A   1     -25.583   7.556  30.227  0.00  0.00    -0.001 A 
ENDBRANCH  27  28
ENDBRANCH  26  27
ENDBRANCH  24  26
ENDBRANCH   1  24
TORSDOF 9
