MODEL 3053
MODEL 1
REMARK VINA RESULT:    -8.375      0.000      0.000
REMARK INTER + INTRA:         -14.703
REMARK INTER:                 -12.781
REMARK INTRA:                  -1.922
REMARK UNBOUND:                -1.922
REMARK  Name = No_3053-gen_results/8p0m/2024-11-27-11-27-31/
REMARK  9 active torsions:
REMARK  status: ('A' for Active; 'I' for Inactive)
REMARK    1  A    between atoms: C_3  and  C_7
REMARK    2  A    between atoms: C_6  and  C_16
REMARK    3  A    between atoms: C_7  and  C_19
REMARK    4  A    between atoms: C_8  and  C_9
REMARK    5  A    between atoms: C_10  and  C_11
REMARK    6  A    between atoms: C_14  and  C_15
REMARK    7  A    between atoms: C_19  and  O_25
REMARK    8  A    between atoms: O_25  and  C_27
REMARK    9  A    between atoms: C_27  and  C_28
REMARK                            x       y       z     vdW  Elec       q    Type
REMARK                         _______ _______ _______ _____ _____    ______ ____
ROOT
ATOM      1  C   UNL A   1     -22.740   0.272  29.810  0.00  0.00    +0.076 C 
ATOM      2  C   UNL A   1     -22.629   1.250  29.081  0.00  0.00    +0.006 C 
ENDROOT
BRANCH   1   5
ATOM      3  C   UNL A   1     -25.094   0.883  32.340  0.00  0.00    +0.007 A 
ATOM      4  C   UNL A   1     -24.377   0.894  31.366  0.00  0.00    +0.000 A 
ATOM      5  C   UNL A   1     -23.389   0.092  31.092  0.00  0.00    +0.006 A 
ATOM      6  C   UNL A   1     -23.072  -0.931  32.037  0.00  0.00    +0.000 A 
ATOM      7  C   UNL A   1     -23.905  -1.027  33.100  0.00  0.00    +0.007 A 
ATOM      8  C   UNL A   1     -24.954  -0.161  33.274  0.00  0.00    +0.080 A 
BRANCH   8   9
ATOM      9  C   UNL A   1     -25.868  -0.216  34.473  0.00  0.00    +0.388 C 
ATOM     10  O   UNL A   1     -26.776   0.452  34.434  0.00  0.00    -0.241 OA
ATOM     11  O   UNL A   1     -25.675  -1.035  35.398  0.00  0.00    -0.241 OA
ENDBRANCH   8   9
ENDBRANCH   1   5
BRANCH   2  12
ATOM     12  C   UNL A   1     -21.980   1.318  27.791  0.00  0.00    +0.000 C 
ATOM     13  C   UNL A   1     -22.249   1.836  26.671  0.00  0.00    +0.002 C 
BRANCH  13  14
ATOM     14  C   UNL A   1     -23.638   2.125  26.427  0.00  0.00    +0.019 A 
ATOM     15  C   UNL A   1     -24.524   1.108  26.032  0.00  0.00    +0.099 A 
ATOM     16  C   UNL A   1     -24.084   3.468  26.452  0.00  0.00    +0.008 A 
ATOM     17  C   UNL A   1     -25.571   3.532  26.270  0.00  0.00    +0.074 A 
ATOM     18  N   UNL A   1     -25.781   1.374  25.642  0.00  0.00    -0.242 NA
ATOM     19  C   UNL A   1     -26.227   2.426  26.014  0.00  0.00    +0.103 A 
BRANCH  17  20
ATOM     20  C   UNL A   1     -26.016   4.556  27.124  0.00  0.00    +0.266 C 
ATOM     21  O   UNL A   1     -27.212   5.026  26.868  0.00  0.00    -0.268 OA
ATOM     22  N   UNL A   1     -25.410   5.011  28.274  0.00  0.00    -0.200 NA
ATOM     23  C   UNL A   1     -25.865   6.032  29.201  0.00  0.00    +0.139 C 
ENDBRANCH  17  20
ENDBRANCH  13  14
ENDBRANCH   2  12
BRANCH   1  24
ATOM     24  C   UNL A   1     -21.953  -1.003  29.332  0.00  0.00    +0.342 C 
ATOM     25  O   UNL A   1     -20.703  -0.907  28.894  0.00  0.00    -0.245 OA
BRANCH  24  26
ATOM     26  O   UNL A   1     -22.684  -1.945  28.863  0.00  0.00    -0.440 OA
BRANCH  26  27
ATOM     27  C   UNL A   1     -23.957  -1.776  28.441  0.00  0.00    +0.235 C 
BRANCH  27  28
ATOM     28  C   UNL A   1     -24.887  -2.698  29.066  0.00  0.00    +0.021 A 
ATOM     29  C   UNL A   1     -24.722  -4.054  28.920  0.00  0.00    -0.001 A 
ATOM     30  C   UNL A   1     -25.731  -4.983  29.369  0.00  0.00    -0.000 A 
ATOM     31  C   UNL A   1     -26.862  -4.494  30.013  0.00  0.00    -0.000 A 
ATOM     32  C   UNL A   1     -27.045  -3.101  30.187  0.00  0.00    -0.000 A 
ATOM     33  C   UNL A   1     -26.116  -2.243  29.705  0.00  0.00    -0.001 A 
ENDBRANCH  27  28
ENDBRANCH  26  27
ENDBRANCH  24  26
ENDBRANCH   1  24
TORSDOF 9
ENDMDL
ENDMDL
