MODEL 3054
MODEL 1
REMARK VINA RESULT:    -6.456      0.000      0.000
REMARK INTER + INTRA:          -7.451
REMARK INTER:                  -7.211
REMARK INTRA:                  -0.239
REMARK UNBOUND:                -0.239
REMARK  Name = No_3054-gen_results/8p0m/2024-11-27-11-27-31/
REMARK  2 active torsions:
REMARK  status: ('A' for Active; 'I' for Inactive)
REMARK    1  A    between atoms: C_5  and  C_11
REMARK    2  A    between atoms: C_7  and  C_15
REMARK                            x       y       z     vdW  Elec       q    Type
REMARK                         _______ _______ _______ _____ _____    ______ ____
ROOT
ATOM      1  C   UNL A   1     -26.411  -3.816  29.675  0.00  0.00    +0.000 A 
ATOM      2  C   UNL A   1     -25.589  -2.929  29.631  0.00  0.00    +0.006 A 
ATOM      3  C   UNL A   1     -24.342  -3.063  29.023  0.00  0.00    +0.000 A 
ATOM      4  C   UNL A   1     -23.279  -2.042  28.933  0.00  0.00    +0.004 A 
ATOM      5  C   UNL A   1     -23.650  -0.723  29.336  0.00  0.00    +0.072 A 
ATOM      6  C   UNL A   1     -24.911  -0.534  29.911  0.00  0.00    +0.010 A 
ATOM      7  C   UNL A   1     -25.819  -1.526  30.044  0.00  0.00    +0.080 A 
ATOM      8  C   UNL A   1     -25.925  -5.230  29.628  0.00  0.00    +0.000 A 
ATOM      9  C   UNL A   1     -24.773  -5.476  28.797  0.00  0.00    -0.000 A 
ATOM     10  C   UNL A   1     -23.871  -4.411  28.640  0.00  0.00    -0.000 A 
ENDROOT
BRANCH   5  11
ATOM     11  C   UNL A   1     -22.622   0.341  29.204  0.00  0.00    +0.419 C 
ATOM     12  F   UNL A   1     -21.571   0.004  29.684  0.00  0.00    -0.166 F 
ATOM     13  F   UNL A   1     -22.289   0.548  27.870  0.00  0.00    -0.166 F 
ATOM     14  F   UNL A   1     -23.071   1.494  29.700  0.00  0.00    -0.166 F 
ENDBRANCH   5  11
BRANCH   7  15
ATOM     15  C   UNL A   1     -27.156  -1.213  30.570  0.00  0.00    +0.388 C 
ATOM     16  O   UNL A   1     -27.347  -1.150  31.684  0.00  0.00    -0.241 OA
ATOM     17  O   UNL A   1     -28.045  -0.970  29.656  0.00  0.00    -0.241 OA
ENDBRANCH   7  15
TORSDOF 2
ENDMDL
ENDMDL
