MODEL 3055
MODEL 1
REMARK VINA RESULT:    -7.184      0.000      0.000
REMARK INTER + INTRA:          -8.013
REMARK INTER:                  -7.604
REMARK INTRA:                  -0.409
REMARK UNBOUND:                -0.409
REMARK  Name = No_3055-gen_results/8p0m/2024-11-27-11-27-31/
REMARK  1 active torsions:
REMARK  status: ('A' for Active; 'I' for Inactive)
REMARK    1  A    between atoms: C_4  and  C_7
REMARK                            x       y       z     vdW  Elec       q    Type
REMARK                         _______ _______ _______ _____ _____    ______ ____
ROOT
ATOM      1  C   UNL A   1     -24.146  -1.386  28.623  0.00  0.00    -0.000 A 
ATOM      2  C   UNL A   1     -24.565  -0.635  28.079  0.00  0.00    -0.000 A 
ATOM      3  C   UNL A   1     -23.878   0.639  27.545  0.00  0.00    -0.004 A 
ATOM      4  C   UNL A   1     -22.567   0.736  27.971  0.00  0.00    -0.022 A 
ATOM      5  C   UNL A   1     -22.759  -1.226  29.230  0.00  0.00    -0.000 A 
ATOM      6  C   UNL A   1     -21.639   1.813  27.588  0.00  0.00    +0.031 C 
ATOM      7  C   UNL A   1     -21.999  -0.269  28.803  0.00  0.00    -0.004 A 
ENDROOT
BRANCH   1  11
ATOM      8  C   UNL A   1     -24.618  -5.180  29.035  0.00  0.00    +0.000 A 
ATOM      9  C   UNL A   1     -25.598  -5.160  29.422  0.00  0.00    +0.000 A 
ATOM     10  C   UNL A   1     -24.030  -3.882  28.666  0.00  0.00    -0.000 A 
ATOM     11  C   UNL A   1     -24.714  -2.667  28.960  0.00  0.00    -0.000 A 
ATOM     12  C   UNL A   1     -25.959  -2.797  29.522  0.00  0.00    -0.000 A 
ATOM     13  C   UNL A   1     -26.462  -4.015  29.816  0.00  0.00    +0.000 A 
ENDBRANCH   1  11
TORSDOF 1
ENDMDL
ENDMDL
