REMARK  Name = No_3055-gen_results/8p0m/2024-11-27-11-27-31/
REMARK  1 active torsions:
REMARK  status: ('A' for Active; 'I' for Inactive)
REMARK    1  A    between atoms: C_4  and  C_7
REMARK                            x       y       z     vdW  Elec       q    Type
REMARK                         _______ _______ _______ _____ _____    ______ ____
ROOT
ATOM      1  C   UNL A   1     -24.366  -1.113  30.048  0.00  0.00    -0.000 A 
ATOM      2  C   UNL A   1     -23.745  -1.369  30.812  0.00  0.00    -0.000 A 
ATOM      3  C   UNL A   1     -22.207  -1.250  30.858  0.00  0.00    -0.004 A 
ATOM      4  C   UNL A   1     -21.686  -0.819  29.653  0.00  0.00    -0.022 A 
ATOM      5  C   UNL A   1     -23.808  -0.788  28.669  0.00  0.00    -0.000 A 
ATOM      6  C   UNL A   1     -20.259  -0.562  29.401  0.00  0.00    +0.031 C 
ATOM      7  C   UNL A   1     -22.543  -0.540  28.552  0.00  0.00    -0.004 A 
ENDROOT
BRANCH   1  11
ATOM      8  C   UNL A   1     -28.016  -0.814  28.878  0.00  0.00    +0.000 A 
ATOM      9  C   UNL A   1     -28.469  -0.785  29.829  0.00  0.00    +0.000 A 
ATOM     10  C   UNL A   1     -26.546  -0.876  28.850  0.00  0.00    -0.000 A 
ATOM     11  C   UNL A   1     -25.804  -1.032  30.057  0.00  0.00    -0.000 A 
ATOM     12  C   UNL A   1     -26.537  -1.039  31.217  0.00  0.00    -0.000 A 
ATOM     13  C   UNL A   1     -27.884  -0.953  31.186  0.00  0.00    +0.000 A 
ENDBRANCH   1  11
TORSDOF 1
