REMARK  Name = outputs/IAG933/test6/raw/output_3057_IAG933_linker_design_.xyz
REMARK  13 active torsions:
REMARK  status: ('A' for Active; 'I' for Inactive)
REMARK    1  A    between atoms: C_1  and  C_2
REMARK    2  A    between atoms: C_1  and  C_8
REMARK    3  A    between atoms: C_1  and  C_29
REMARK    4  A    between atoms: C_13  and  C_39
REMARK    5  A    between atoms: C_14  and  C_15
REMARK    6  A    between atoms: C_21  and  O_22
REMARK    7  A    between atoms: O_22  and  C_23
REMARK    8  A    between atoms: C_23  and  C_24
REMARK    9  A    between atoms: C_29  and  N_40
REMARK   10  A    between atoms: C_29  and  C_42
REMARK   11  A    between atoms: C_32  and  C_36
REMARK   12  A    between atoms: C_33  and  C_42
REMARK   13  A    between atoms: C_39  and  N_40
REMARK                            x       y       z     vdW  Elec       q    Type
REMARK                         _______ _______ _______ _____ _____    ______ ____
ROOT
ATOM      1  C   UNL A   1     -25.662  -0.132  29.161  0.00  0.00    +0.081 C 
ENDROOT
BRANCH   1   4
ATOM      2  O   UNL A   1     -23.090   1.236  29.924  0.00  0.00    -0.275 OA
ATOM      3  C   UNL A   1     -23.447   1.081  28.787  0.00  0.00    +0.226 C 
ATOM      4  N   UNL A   1     -24.680   0.437  28.308  0.00  0.00    -0.280 N 
BRANCH   3   5
ATOM      5  C   UNL A   1     -22.501   1.416  27.549  0.00  0.00    +0.085 C 
ATOM      6  C   UNL A   1     -21.028   1.391  27.936  0.00  0.00    +0.010 C 
ENDBRANCH   3   5
BRANCH   4   7
ATOM      7  C   UNL A   1     -25.078   1.065  27.495  0.00  0.00    +0.101 C 
BRANCH   7   8
ATOM      8  C   UNL A   1     -25.688   1.614  26.461  0.00  0.00    +0.090 C 
ATOM      9  C   UNL A   1     -26.250   2.920  26.395  0.00  0.00    +0.057 C 
ATOM     10  C   UNL A   1     -27.438   3.091  25.645  0.00  0.00    +0.102 C 
ATOM     11  N   UNL A   1     -28.075   2.089  25.003  0.00  0.00    -0.212 NA
ATOM     12  C   UNL A   1     -27.543   0.849  25.079  0.00  0.00    +0.234 C 
ATOM     13  C   UNL A   1     -26.354   0.576  25.777  0.00  0.00    +0.242 C 
ATOM     14  F   UNL A   1     -25.860  -0.681  25.795  0.00  0.00    -0.227 F 
BRANCH   9  15
ATOM     15  C   UNL A   1     -25.642   4.093  27.123  0.00  0.00    +0.263 C 
ATOM     16  N   UNL A   1     -25.614   5.252  26.449  0.00  0.00    -0.200 NA
ATOM     17  C   UNL A   1     -25.026   6.479  26.963  0.00  0.00    +0.139 C 
ATOM     18  O   UNL A   1     -25.143   3.966  28.243  0.00  0.00    -0.269 OA
ENDBRANCH   9  15
BRANCH  12  19
ATOM     19  O   UNL A   1     -28.193  -0.208  24.477  0.00  0.00    -0.459 OA
BRANCH  19  20
ATOM     20  C   UNL A   1     -29.460   0.005  23.866  0.00  0.00    +0.242 C 
BRANCH  20  21
ATOM     21  C   UNL A   1     -30.065  -1.377  23.573  0.00  0.00    +0.229 C 
ATOM     22  O   UNL A   1     -30.729  -1.878  24.721  0.00  0.00    -0.216 OA
ENDBRANCH  20  21
ENDBRANCH  19  20
ENDBRANCH  12  19
ENDBRANCH   7   8
ENDBRANCH   4   7
ENDBRANCH   1   4
BRANCH   1  23
ATOM     23  C   UNL A   1     -24.855  -1.012  30.143  0.00  0.00    +0.057 C 
BRANCH  23  24
ATOM     24  C   UNL A   1     -24.973  -2.505  29.788  0.00  0.00    -0.019 C 
ATOM     25  C   UNL A   1     -23.906  -3.173  29.146  0.00  0.00    -0.004 C 
ATOM     26  C   UNL A   1     -23.989  -4.549  28.853  0.00  0.00    -0.000 C 
ATOM     27  C   UNL A   1     -25.137  -5.280  29.205  0.00  0.00    -0.000 C 
ATOM     28  C   UNL A   1     -26.232  -4.611  29.784  0.00  0.00    -0.000 C 
ATOM     29  C   UNL A   1     -26.155  -3.232  30.065  0.00  0.00    -0.004 C 
ENDBRANCH  23  24
BRANCH  23  30
ATOM     30  C   UNL A   1     -25.387  -0.679  31.571  0.00  0.00    +0.078 C 
ATOM     31  C   UNL A   1     -25.189   0.773  32.028  0.00  0.00    +0.019 C 
ATOM     32  C   UNL A   1     -25.336   0.684  33.544  0.00  0.00    +0.020 C 
ATOM     33  C   UNL A   1     -24.829  -0.715  33.905  0.00  0.00    +0.089 C 
ATOM     34  N   UNL A   1     -24.758  -1.481  32.646  0.00  0.00    -0.219 NA
ENDBRANCH  23  30
ENDBRANCH   1  23
BRANCH   1  35
ATOM     35  C   UNL A   1     -27.187  -0.072  28.862  0.00  0.00    +0.021 C 
BRANCH  35  38
ATOM     36  C   UNL A   1     -30.372   3.446  29.195  0.00  0.00    +0.168 C 
ATOM     37  C   UNL A   1     -29.319   1.298  27.992  0.00  0.00    +0.029 C 
ATOM     38  C   UNL A   1     -28.022   1.214  28.853  0.00  0.00    +0.010 C 
ATOM     39  C   UNL A   1     -30.554   1.964  28.679  0.00  0.00    +0.014 C 
ATOM     40  C   UNL A   1     -27.689   2.258  29.801  0.00  0.00    +0.048 C 
ATOM     41  O   UNL A   1     -29.108   4.143  28.988  0.00  0.00    -0.473 OA
ATOM     42  C   UNL A   1     -27.808   3.774  29.562  0.00  0.00    +0.205 C 
ENDBRANCH  35  38
ENDBRANCH   1  35
TORSDOF 13
