MODEL 3057
MODEL 1
REMARK VINA RESULT:    -6.305      0.000      0.000
REMARK INTER + INTRA:          -8.231
REMARK INTER:                  -7.780
REMARK INTRA:                  -0.451
REMARK UNBOUND:                -0.451
REMARK  Name = No_3057-gen_results/8p0m/2024-11-27-11-27-31/
REMARK  4 active torsions:
REMARK  status: ('A' for Active; 'I' for Inactive)
REMARK    1  A    between atoms: C_1  and  C_6
REMARK    2  A    between atoms: C_5  and  C_10
REMARK    3  A    between atoms: N_8  and  C_13
REMARK    4  A    between atoms: C_14  and  C_15
REMARK                            x       y       z     vdW  Elec       q    Type
REMARK                         _______ _______ _______ _____ _____    ______ ____
ROOT
ATOM      1  C   UNL A   1     -23.226   1.167  28.050  0.00  0.00    +0.056 A 
ATOM      2  C   UNL A   1     -22.406   1.883  27.523  0.00  0.00    +0.005 A 
ATOM      3  C   UNL A   1     -22.392   2.226  26.182  0.00  0.00    +0.000 A 
ATOM      4  C   UNL A   1     -23.448   1.715  25.370  0.00  0.00    +0.007 A 
ATOM      5  C   UNL A   1     -24.424   1.047  26.018  0.00  0.00    +0.080 A 
ATOM      6  C   UNL A   1     -24.329   0.809  27.316  0.00  0.00    +0.011 A 
ENDROOT
BRANCH   1   7
ATOM      7  C   UNL A   1     -23.175   0.934  29.467  0.00  0.00    +0.269 C 
ATOM      8  N   UNL A   1     -23.059  -0.267  29.926  0.00  0.00    -0.174 NA
ATOM      9  O   UNL A   1     -23.482   1.819  30.336  0.00  0.00    -0.268 OA
BRANCH   8  10
ATOM     10  C   UNL A   1     -22.717  -1.414  29.103  0.00  0.00    +0.089 C 
ATOM     11  C   UNL A   1     -23.569  -2.382  29.068  0.00  0.00    +0.018 C 
BRANCH  11  12
ATOM     12  C   UNL A   1     -24.912  -2.404  29.570  0.00  0.00    -0.003 C 
ATOM     13  C   UNL A   1     -25.661  -3.590  29.597  0.00  0.00    -0.026 C 
ATOM     14  C   UNL A   1     -25.098  -4.827  29.205  0.00  0.00    +0.031 C 
ENDBRANCH  11  12
ENDBRANCH   8  10
ENDBRANCH   1   7
BRANCH   5  15
ATOM     15  C   UNL A   1     -25.529   0.565  25.165  0.00  0.00    +0.388 C 
ATOM     16  O   UNL A   1     -25.372  -0.266  24.454  0.00  0.00    -0.241 OA
ATOM     17  O   UNL A   1     -26.719   1.135  25.186  0.00  0.00    -0.241 OA
ENDBRANCH   5  15
TORSDOF 4
ENDMDL
ENDMDL
