REMARK  Name = outputs/IAG933/test6/raw/output_3058_IAG933_linker_design_.xyz
REMARK  11 active torsions:
REMARK  status: ('A' for Active; 'I' for Inactive)
REMARK    1  A    between atoms: C_1  and  C_2
REMARK    2  A    between atoms: C_1  and  C_8
REMARK    3  A    between atoms: C_9  and  C_35
REMARK    4  A    between atoms: C_13  and  C_34
REMARK    5  A    between atoms: C_14  and  C_15
REMARK    6  A    between atoms: C_21  and  O_22
REMARK    7  A    between atoms: O_22  and  C_23
REMARK    8  A    between atoms: C_23  and  C_24
REMARK    9  A    between atoms: C_33  and  C_35
REMARK   10  A    between atoms: C_35  and  O_37
REMARK   11  A    between atoms: O_37  and  C_43
REMARK                            x       y       z     vdW  Elec       q    Type
REMARK                         _______ _______ _______ _____ _____    ______ ____
ROOT
ATOM      1  C   UNL A   1     -23.188   1.816  26.702  0.00  0.00    +0.089 C 
ATOM      2  N   UNL A   1     -24.724   1.684  28.692  0.00  0.00    -0.263 NA
ATOM      3  F   UNL A   1     -20.846   1.925  26.682  0.00  0.00    -0.203 F 
ATOM      4 CL   UNL A   1     -23.009   2.431  25.066  0.00  0.00    -0.082 Cl
ATOM      5  C   UNL A   1     -23.895   1.528  29.753  0.00  0.00    +0.094 C 
ATOM      6  C   UNL A   1     -24.493   1.602  27.349  0.00  0.00    +0.163 C 
ATOM      7  C   UNL A   1     -22.483   1.162  29.685  0.00  0.00    +0.020 C 
ATOM      8  C   UNL A   1     -21.984   1.650  27.325  0.00  0.00    +0.149 C 
ATOM      9  C   UNL A   1     -21.739   1.237  28.592  0.00  0.00    +0.032 C 
ENDROOT
BRANCH   6  10
ATOM     10  C   UNL A   1     -25.688   1.614  26.461  0.00  0.00    +0.043 C 
ATOM     11  C   UNL A   1     -26.250   2.920  26.395  0.00  0.00    +0.075 C 
ATOM     12  C   UNL A   1     -27.438   3.091  25.645  0.00  0.00    +0.106 C 
ATOM     13  N   UNL A   1     -28.075   2.089  25.003  0.00  0.00    -0.208 NA
ATOM     14  C   UNL A   1     -27.543   0.849  25.079  0.00  0.00    +0.253 C 
ATOM     15  C   UNL A   1     -26.354   0.576  25.777  0.00  0.00    +0.191 C 
ATOM     16  F   UNL A   1     -25.860  -0.681  25.795  0.00  0.00    -0.200 F 
BRANCH  11  17
ATOM     17  C   UNL A   1     -25.642   4.093  27.123  0.00  0.00    +0.266 C 
ATOM     18  N   UNL A   1     -25.614   5.252  26.449  0.00  0.00    -0.200 NA
ATOM     19  C   UNL A   1     -25.026   6.479  26.963  0.00  0.00    +0.139 C 
ATOM     20  O   UNL A   1     -25.143   3.966  28.243  0.00  0.00    -0.268 OA
ENDBRANCH  11  17
BRANCH  14  21
ATOM     21  O   UNL A   1     -28.193  -0.208  24.477  0.00  0.00    -0.456 OA
BRANCH  21  22
ATOM     22  C   UNL A   1     -29.460   0.005  23.866  0.00  0.00    +0.243 C 
BRANCH  22  23
ATOM     23  C   UNL A   1     -30.065  -1.377  23.573  0.00  0.00    +0.229 C 
ATOM     24  O   UNL A   1     -30.729  -1.878  24.721  0.00  0.00    -0.216 OA
ENDBRANCH  22  23
ENDBRANCH  21  22
ENDBRANCH  14  21
ENDBRANCH   6  10
BRANCH   5  25
ATOM     25  C   UNL A   1     -24.278   1.637  31.176  0.00  0.00    +0.206 C 
BRANCH  25  27
ATOM     26  C   UNL A   1     -25.387  -0.679  31.571  0.00  0.00    +0.081 C 
ATOM     27  C   UNL A   1     -25.189   0.773  32.028  0.00  0.00    +0.064 C 
ATOM     28  C   UNL A   1     -25.336   0.684  33.544  0.00  0.00    +0.024 C 
ATOM     29  C   UNL A   1     -24.829  -0.715  33.905  0.00  0.00    +0.089 C 
ATOM     30  N   UNL A   1     -24.758  -1.481  32.646  0.00  0.00    -0.219 NA
BRANCH  26  31
ATOM     31  C   UNL A   1     -24.855  -1.012  30.143  0.00  0.00    +0.044 C 
BRANCH  31  32
ATOM     32  C   UNL A   1     -24.973  -2.505  29.788  0.00  0.00    -0.021 C 
ATOM     33  C   UNL A   1     -23.906  -3.173  29.146  0.00  0.00    -0.004 C 
ATOM     34  C   UNL A   1     -23.989  -4.549  28.853  0.00  0.00    -0.000 C 
ATOM     35  C   UNL A   1     -25.137  -5.280  29.205  0.00  0.00    -0.000 C 
ATOM     36  C   UNL A   1     -26.232  -4.611  29.784  0.00  0.00    -0.000 C 
ATOM     37  C   UNL A   1     -26.155  -3.232  30.065  0.00  0.00    -0.004 C 
ENDBRANCH  31  32
ENDBRANCH  26  31
ENDBRANCH  25  27
BRANCH  25  38
ATOM     38  O   UNL A   1     -24.936   2.873  30.970  0.00  0.00    -0.473 OA
BRANCH  38  43
ATOM     39  C   UNL A   1     -26.665   5.546  33.446  0.00  0.00    +0.030 C 
ATOM     40  F   UNL A   1     -24.436   6.312  33.920  0.00  0.00    -0.204 F 
ATOM     41  C   UNL A   1     -26.902   3.707  31.928  0.00  0.00    +0.037 C 
ATOM     42  C   UNL A   1     -25.285   5.428  33.410  0.00  0.00    +0.143 C 
ATOM     43  C   UNL A   1     -25.500   3.591  31.925  0.00  0.00    +0.141 C 
ATOM     44  C   UNL A   1     -27.472   4.689  32.705  0.00  0.00    +0.005 C 
ATOM     45  C   UNL A   1     -24.715   4.348  32.760  0.00  0.00    +0.067 C 
ENDBRANCH  38  43
ENDBRANCH  25  38
ENDBRANCH   5  25
TORSDOF 11
