MODEL 3058
MODEL 1
REMARK VINA RESULT:    -7.435      0.000      0.000
REMARK INTER + INTRA:          -8.844
REMARK INTER:                  -8.304
REMARK INTRA:                  -0.540
REMARK UNBOUND:                -0.540
REMARK  Name = No_3058-gen_results/8p0m/2024-11-27-11-27-31/
REMARK  2 active torsions:
REMARK  status: ('A' for Active; 'I' for Inactive)
REMARK    1  A    between atoms: C_3  and  C_4
REMARK    2  A    between atoms: C_6  and  C_12
REMARK                            x       y       z     vdW  Elec       q    Type
REMARK                         _______ _______ _______ _____ _____    ______ ____
ROOT
ATOM      1  C   UNL A   1     -22.290   0.985  27.948  0.00  0.00    +0.034 A 
ATOM      2  C   UNL A   1     -21.879   0.173  28.479  0.00  0.00    +0.140 A 
ATOM      3  C   UNL A   1     -23.699   0.804  27.600  0.00  0.00    +0.074 A 
ATOM      4  C   UNL A   1     -22.385  -1.107  28.957  0.00  0.00    +0.030 A 
ATOM      5  C   UNL A   1     -23.710  -1.321  28.635  0.00  0.00    +0.002 A 
ATOM      6  C   UNL A   1     -24.406  -0.359  28.003  0.00  0.00    +0.004 A 
ATOM      7  F   UNL A   1     -20.491   0.324  28.914  0.00  0.00    -0.204 F 
ENDROOT
BRANCH   5   8
ATOM      8  C   UNL A   1     -24.407  -2.596  29.018  0.00  0.00    +0.000 A 
ATOM      9  C   UNL A   1     -23.967  -3.734  28.723  0.00  0.00    +0.000 A 
ATOM     10  C   UNL A   1     -24.192  -4.763  28.695  0.00  0.00    +0.000 A 
ATOM     11  C   UNL A   1     -25.540  -5.131  29.309  0.00  0.00    +0.000 A 
ATOM     12  C   UNL A   1     -26.267  -4.011  29.741  0.00  0.00    +0.000 A 
ATOM     13  C   UNL A   1     -25.738  -2.701  29.550  0.00  0.00    +0.000 A 
ENDBRANCH   5   8
BRANCH   3  14
ATOM     14  C   UNL A   1     -24.524   1.846  26.948  0.00  0.00    +0.419 C 
ATOM     15  F   UNL A   1     -25.360   2.208  27.423  0.00  0.00    -0.166 F 
ATOM     16  F   UNL A   1     -24.852   1.372  25.641  0.00  0.00    -0.166 F 
ATOM     17  F   UNL A   1     -23.658   2.960  26.594  0.00  0.00    -0.166 F 
ENDBRANCH   3  14
TORSDOF 2
ENDMDL
ENDMDL
