MODEL 3059
MODEL 1
REMARK VINA RESULT:    -7.504      0.000      0.000
REMARK INTER + INTRA:         -11.342
REMARK INTER:                 -10.136
REMARK INTRA:                  -1.206
REMARK UNBOUND:                -1.206
REMARK  Name = No_3059-gen_results/8p0m/2024-11-27-11-27-31/
REMARK  6 active torsions:
REMARK  status: ('A' for Active; 'I' for Inactive)
REMARK    1  A    between atoms: C_3  and  C_4
REMARK    2  A    between atoms: C_6  and  O_16
REMARK    3  A    between atoms: C_10  and  C_13
REMARK    4  A    between atoms: O_16  and  C_17
REMARK    5  A    between atoms: C_17  and  C_18
REMARK    6  A    between atoms: C_19  and  C_20
REMARK                            x       y       z     vdW  Elec       q    Type
REMARK                         _______ _______ _______ _____ _____    ______ ____
ROOT
ATOM      1  C   UNL A   1     -12.769   2.181  35.302  0.00  0.00    +0.003 A 
ATOM      2  C   UNL A   1     -11.486   2.517  35.832  0.00  0.00    +0.037 A 
ATOM      3  C   UNL A   1     -10.343   2.082  35.163  0.00  0.00    +0.139 A 
ATOM      4  C   UNL A   1     -10.487   1.464  33.914  0.00  0.00    +0.037 A 
ATOM      5  C   UNL A   1     -11.720   1.155  33.389  0.00  0.00    +0.003 A 
ATOM      6  C   UNL A   1     -12.875   1.565  34.089  0.00  0.00    +0.000 A 
ENDROOT
BRANCH   1   9
ATOM      7  C   UNL A   1     -15.995   3.707  36.176  0.00  0.00    +0.007 A 
ATOM      8  C   UNL A   1     -15.084   3.281  35.505  0.00  0.00    +0.000 A 
ATOM      9  C   UNL A   1     -13.930   2.713  36.042  0.00  0.00    +0.000 A 
ATOM     10  C   UNL A   1     -15.854   3.841  37.626  0.00  0.00    +0.080 A 
ATOM     11  C   UNL A   1     -14.814   3.221  38.298  0.00  0.00    +0.007 A 
ATOM     12  C   UNL A   1     -13.773   2.672  37.513  0.00  0.00    +0.000 A 
BRANCH  10  13
ATOM     13  C   UNL A   1     -16.934   4.411  38.461  0.00  0.00    +0.388 C 
ATOM     14  O   UNL A   1     -16.605   5.362  39.245  0.00  0.00    -0.241 OA
ATOM     15  O   UNL A   1     -17.953   3.738  38.828  0.00  0.00    -0.241 OA
ENDBRANCH  10  13
ENDBRANCH   1   9
BRANCH   3  16
ATOM     16  O   UNL A   1      -9.131   2.400  35.630  0.00  0.00    -0.471 OA
BRANCH  16  17
ATOM     17  C   UNL A   1      -8.381   1.260  36.134  0.00  0.00    +0.232 C 
BRANCH  17  18
ATOM     18  C   UNL A   1      -9.153   0.241  36.671  0.00  0.00    +0.016 C 
ATOM     19  C   UNL A   1      -9.655   0.305  37.941  0.00  0.00    -0.022 C 
ATOM     20  C   UNL A   1      -8.505   0.519  38.904  0.00  0.00    +0.031 C 
BRANCH  19  21
ATOM     21  C   UNL A   1     -10.493  -0.687  38.426  0.00  0.00    -0.004 A 
ATOM     22  C   UNL A   1     -10.978  -0.849  39.646  0.00  0.00    -0.000 A 
ATOM     23  C   UNL A   1     -11.900  -1.816  40.037  0.00  0.00    -0.000 A 
ATOM     24  C   UNL A   1     -12.312  -2.734  39.072  0.00  0.00    -0.000 A 
ATOM     25  C   UNL A   1     -11.879  -2.673  37.765  0.00  0.00    -0.000 A 
ATOM     26  C   UNL A   1     -10.950  -1.643  37.406  0.00  0.00    -0.000 A 
ENDBRANCH  19  21
ENDBRANCH  17  18
ENDBRANCH  16  17
ENDBRANCH   3  16
TORSDOF 6
ENDMDL
ENDMDL
