REMARK  Name = outputs/IAG933/test6/raw/output_3059_IAG933_linker_design_.xyz
REMARK  13 active torsions:
REMARK  status: ('A' for Active; 'I' for Inactive)
REMARK    1  A    between atoms: C_1  and  C_2
REMARK    2  A    between atoms: C_1  and  C_8
REMARK    3  A    between atoms: C_1  and  O_40
REMARK    4  A    between atoms: C_13  and  C_38
REMARK    5  A    between atoms: C_14  and  C_15
REMARK    6  A    between atoms: C_15  and  O_18
REMARK    7  A    between atoms: O_18  and  C_29
REMARK    8  A    between atoms: C_21  and  O_22
REMARK    9  A    between atoms: O_22  and  C_23
REMARK   10  A    between atoms: C_23  and  C_24
REMARK   11  A    between atoms: C_28  and  C_38
REMARK   12  A    between atoms: C_28  and  O_40
REMARK   13  A    between atoms: C_29  and  C_44
REMARK                            x       y       z     vdW  Elec       q    Type
REMARK                         _______ _______ _______ _____ _____    ______ ____
ROOT
ATOM      1  C   UNL A   1     -25.688   1.614  26.461  0.00  0.00    +0.033 C 
ATOM      2  C   UNL A   1     -26.250   2.920  26.395  0.00  0.00    +0.071 C 
ATOM      3  C   UNL A   1     -27.438   3.091  25.645  0.00  0.00    +0.106 C 
ATOM      4  N   UNL A   1     -28.075   2.089  25.003  0.00  0.00    -0.208 NA
ATOM      5  C   UNL A   1     -27.543   0.849  25.079  0.00  0.00    +0.253 C 
ATOM      6  C   UNL A   1     -26.354   0.576  25.777  0.00  0.00    +0.190 C 
ATOM      7  F   UNL A   1     -25.860  -0.681  25.795  0.00  0.00    -0.200 F 
ENDROOT
BRANCH   1  12
ATOM      8  C   UNL A   1     -22.821   0.929  28.338  0.00  0.00    +0.118 C 
ATOM      9  C   UNL A   1     -21.497   1.486  27.818  0.00  0.00    +0.252 C 
ATOM     10  O   UNL A   1     -23.510   2.467  25.229  0.00  0.00    -0.249 OA
ATOM     11  N   UNL A   1     -23.136   0.156  28.884  0.00  0.00    -0.153 NA
ATOM     12  C   UNL A   1     -24.410   1.362  27.360  0.00  0.00    +0.174 C 
ATOM     13  C   UNL A   1     -23.225   2.031  26.364  0.00  0.00    +0.328 C 
ATOM     14  O   UNL A   1     -21.751   2.037  26.677  0.00  0.00    -0.442 OA
BRANCH  12  15
ATOM     15  C   UNL A   1     -25.240   0.908  28.628  0.00  0.00    +0.163 C 
BRANCH  15  16
ATOM     16  O   UNL A   1     -25.663  -0.169  29.287  0.00  0.00    -0.349 OA
BRANCH  16  17
ATOM     17  C   UNL A   1     -24.855  -1.012  30.143  0.00  0.00    +0.153 C 
BRANCH  17  18
ATOM     18  C   UNL A   1     -24.973  -2.505  29.788  0.00  0.00    +0.006 C 
ATOM     19  C   UNL A   1     -23.906  -3.173  29.146  0.00  0.00    -0.002 C 
ATOM     20  C   UNL A   1     -23.989  -4.549  28.853  0.00  0.00    -0.000 C 
ATOM     21  C   UNL A   1     -25.137  -5.280  29.205  0.00  0.00    -0.000 C 
ATOM     22  C   UNL A   1     -26.232  -4.611  29.784  0.00  0.00    -0.000 C 
ATOM     23  C   UNL A   1     -26.155  -3.232  30.065  0.00  0.00    -0.002 C 
ENDBRANCH  17  18
BRANCH  17  24
ATOM     24  C   UNL A   1     -25.387  -0.679  31.571  0.00  0.00    +0.104 C 
ATOM     25  C   UNL A   1     -25.189   0.773  32.028  0.00  0.00    +0.022 C 
ATOM     26  C   UNL A   1     -25.336   0.684  33.544  0.00  0.00    +0.020 C 
ATOM     27  C   UNL A   1     -24.829  -0.715  33.905  0.00  0.00    +0.089 C 
ATOM     28  N   UNL A   1     -24.758  -1.481  32.646  0.00  0.00    -0.217 NA
ENDBRANCH  17  24
ENDBRANCH  16  17
ENDBRANCH  15  16
ENDBRANCH  12  15
ENDBRANCH   1  12
BRANCH   2  29
ATOM     29  C   UNL A   1     -25.642   4.093  27.123  0.00  0.00    +0.222 C 
ATOM     30  N   UNL A   1     -25.614   5.252  26.449  0.00  0.00    -0.236 NA
ATOM     31  C   UNL A   1     -25.026   6.479  26.963  0.00  0.00    +0.155 C 
BRANCH  29  32
ATOM     32  O   UNL A   1     -25.143   3.966  28.243  0.00  0.00    -0.458 OA
BRANCH  32  33
ATOM     33  C   UNL A   1     -25.473   3.900  29.489  0.00  0.00    +0.236 C 
BRANCH  33  40
ATOM     34  O   UNL A   1     -29.561   4.157  29.679  0.00  0.00    -0.289 OA
ATOM     35  C   UNL A   1     -28.077   4.496  31.631  0.00  0.00    +0.210 C 
ATOM     36  O   UNL A   1     -26.683   4.204  31.705  0.00  0.00    -0.344 OA
ATOM     37  C   UNL A   1     -26.766   6.783  30.454  0.00  0.00    +0.032 C 
ATOM     38  C   UNL A   1     -28.552   4.921  30.233  0.00  0.00    +0.199 C 
ATOM     39  C   UNL A   1     -27.816   6.112  29.596  0.00  0.00    +0.014 C 
ATOM     40  C   UNL A   1     -25.833   4.629  30.644  0.00  0.00    +0.160 C 
ATOM     41  C   UNL A   1     -25.426   6.082  30.706  0.00  0.00    +0.038 C 
ENDBRANCH  33  40
ENDBRANCH  32  33
ENDBRANCH  29  32
ENDBRANCH   2  29
BRANCH   5  42
ATOM     42  O   UNL A   1     -28.193  -0.208  24.477  0.00  0.00    -0.456 OA
BRANCH  42  43
ATOM     43  C   UNL A   1     -29.460   0.005  23.866  0.00  0.00    +0.243 C 
BRANCH  43  44
ATOM     44  C   UNL A   1     -30.065  -1.377  23.573  0.00  0.00    +0.229 C 
ATOM     45  O   UNL A   1     -30.729  -1.878  24.721  0.00  0.00    -0.216 OA
ENDBRANCH  43  44
ENDBRANCH  42  43
ENDBRANCH   5  42
TORSDOF 13
