MODEL 305
MODEL 1
REMARK VINA RESULT:    -9.366      0.000      0.000
REMARK INTER + INTRA:         -13.438
REMARK INTER:                 -12.652
REMARK INTRA:                  -0.786
REMARK UNBOUND:                -0.786
REMARK  Name = No_305-gen_results/8p0m/2024-11-27-11-27-31/
REMARK  6 active torsions:
REMARK  status: ('A' for Active; 'I' for Inactive)
REMARK    1  A    between atoms: C_5  and  C_20
REMARK    2  A    between atoms: C_7  and  C_16
REMARK    3  A    between atoms: C_20  and  O_22
REMARK    4  A    between atoms: O_22  and  C_23
REMARK    5  A    between atoms: C_23  and  C_24
REMARK    6  A    between atoms: C_28  and  C_29
REMARK                            x       y       z     vdW  Elec       q    Type
REMARK                         _______ _______ _______ _____ _____    ______ ____
ROOT
ATOM      1  C   UNL A   1     -27.824   0.627  24.193  0.00  0.00    +0.058 C 
ATOM      2  C   UNL A   1     -27.625   1.260  25.012  0.00  0.00    +0.004 A 
ATOM      3  C   UNL A   1     -29.288   0.399  23.889  0.00  0.00    +0.025 A 
ATOM      4  C   UNL A   1     -29.808  -0.863  23.555  0.00  0.00    +0.138 A 
ATOM      5  C   UNL A   1     -26.162   1.484  25.408  0.00  0.00    +0.073 A 
ATOM      6  C   UNL A   1     -31.213  -1.001  23.260  0.00  0.00    +0.033 A 
ATOM      7  C   UNL A   1     -32.035   0.156  23.294  0.00  0.00    +0.075 A 
ATOM      8  C   UNL A   1     -31.514   1.375  23.555  0.00  0.00    +0.020 A 
ATOM      9  C   UNL A   1     -30.170   1.511  23.843  0.00  0.00    +0.069 A 
ATOM     10  C   UNL A   1     -25.680   2.631  25.941  0.00  0.00    +0.006 A 
ATOM     11  C   UNL A   1     -26.272   3.488  25.957  0.00  0.00    +0.002 A 
ATOM     12  C   UNL A   1     -27.682   3.724  25.692  0.00  0.00    +0.016 A 
ATOM     13  C   UNL A   1     -28.230   2.622  25.024  0.00  0.00    +0.067 A 
ATOM     14  N   UNL A   1     -29.559   2.664  24.605  0.00  0.00    -0.213 NA
ATOM     15  F   UNL A   1     -29.139  -1.906  23.411  0.00  0.00    -0.204 F 
ENDROOT
BRANCH   7  16
ATOM     16  C   UNL A   1     -33.479  -0.033  23.005  0.00  0.00    +0.419 C 
ATOM     17  F   UNL A   1     -33.741  -0.063  21.880  0.00  0.00    -0.166 F 
ATOM     18  F   UNL A   1     -34.028  -1.066  23.732  0.00  0.00    -0.166 F 
ATOM     19  F   UNL A   1     -34.094   1.141  23.486  0.00  0.00    -0.166 F 
ENDBRANCH   7  16
BRANCH   5  20
ATOM     20  C   UNL A   1     -25.345   0.215  25.265  0.00  0.00    +0.341 C 
ATOM     21  O   UNL A   1     -24.578   0.086  24.354  0.00  0.00    -0.245 OA
BRANCH  20  22
ATOM     22  O   UNL A   1     -25.459  -0.671  26.174  0.00  0.00    -0.440 OA
BRANCH  22  23
ATOM     23  C   UNL A   1     -25.479  -0.403  27.487  0.00  0.00    +0.235 C 
BRANCH  23  24
ATOM     24  C   UNL A   1     -24.266  -0.283  28.132  0.00  0.00    +0.021 A 
ATOM     25  C   UNL A   1     -23.544   0.718  27.927  0.00  0.00    -0.001 A 
ATOM     26  C   UNL A   1     -22.119   0.750  28.456  0.00  0.00    -0.000 A 
ATOM     27  C   UNL A   1     -21.618  -0.339  29.170  0.00  0.00    -0.000 A 
ATOM     28  C   UNL A   1     -23.677  -1.450  28.797  0.00  0.00    -0.001 A 
ATOM     29  C   UNL A   1     -22.375  -1.442  29.325  0.00  0.00    -0.000 A 
BRANCH  28  30
ATOM     30  C   UNL A   1     -24.513  -2.671  28.973  0.00  0.00    -0.000 A 
ATOM     31  C   UNL A   1     -25.588  -2.492  29.752  0.00  0.00    -0.000 A 
ATOM     32  C   UNL A   1     -26.431  -3.685  29.946  0.00  0.00    -0.000 A 
ATOM     33  C   UNL A   1     -25.958  -4.906  29.598  0.00  0.00    -0.000 A 
ATOM     34  C   UNL A   1     -24.803  -5.034  28.854  0.00  0.00    -0.000 A 
ATOM     35  C   UNL A   1     -24.054  -3.887  28.573  0.00  0.00    -0.000 A 
ENDBRANCH  28  30
ENDBRANCH  23  24
ENDBRANCH  22  23
ENDBRANCH  20  22
ENDBRANCH   5  20
TORSDOF 6
ENDMDL
ENDMDL
