REMARK  Name = outputs/IAG933/test6/raw/output_306_IAG933_linker_design_.xyz
REMARK  10 active torsions:
REMARK  status: ('A' for Active; 'I' for Inactive)
REMARK    1  A    between atoms: C_1  and  C_2
REMARK    2  A    between atoms: C_1  and  C_8
REMARK    3  A    between atoms: C_1  and  C_43
REMARK    4  A    between atoms: C_13  and  C_38
REMARK    5  A    between atoms: C_14  and  C_15
REMARK    6  A    between atoms: C_21  and  O_22
REMARK    7  A    between atoms: O_22  and  C_23
REMARK    8  A    between atoms: C_23  and  C_24
REMARK    9  A    between atoms: C_29  and  N_31
REMARK   10  A    between atoms: N_31  and  C_37
REMARK                            x       y       z     vdW  Elec       q    Type
REMARK                         _______ _______ _______ _____ _____    ______ ____
ROOT
ATOM      1  O   UNL A   1     -21.127   1.794  26.894  0.00  0.00    -0.259 OA
ATOM      2  C   UNL A   1     -22.360   1.946  26.476  0.00  0.00    +0.184 C 
ATOM      3  C   UNL A   1     -22.541   0.837  28.414  0.00  0.00    +0.415 C 
ATOM      4  N   UNL A   1     -23.021   0.025  29.395  0.00  0.00    -0.059 NA
ATOM      5  C   UNL A   1     -25.132   1.076  28.916  0.00  0.00    +0.146 C 
ATOM      6  C   UNL A   1     -24.733   1.396  27.595  0.00  0.00    +0.065 C 
ATOM      7  C   UNL A   1     -22.806   2.484  25.079  0.00  0.00    +0.078 C 
ATOM      8  C   UNL A   1     -23.326   1.444  27.398  0.00  0.00    +0.107 C 
ATOM      9  C   UNL A   1     -24.377  -0.022  29.467  0.00  0.00    +0.240 C 
ATOM     10  N   UNL A   1     -21.239   1.122  28.170  0.00  0.00    +0.165 NA
ENDROOT
BRANCH   6  11
ATOM     11  C   UNL A   1     -25.688   1.614  26.461  0.00  0.00    +0.076 C 
ATOM     12  C   UNL A   1     -26.250   2.920  26.395  0.00  0.00    +0.055 C 
ATOM     13  C   UNL A   1     -27.438   3.091  25.645  0.00  0.00    +0.102 C 
ATOM     14  N   UNL A   1     -28.075   2.089  25.003  0.00  0.00    -0.212 NA
ATOM     15  C   UNL A   1     -27.543   0.849  25.079  0.00  0.00    +0.234 C 
ATOM     16  C   UNL A   1     -26.354   0.576  25.777  0.00  0.00    +0.240 C 
ATOM     17  F   UNL A   1     -25.860  -0.681  25.795  0.00  0.00    -0.227 F 
BRANCH  12  18
ATOM     18  C   UNL A   1     -25.642   4.093  27.123  0.00  0.00    +0.263 C 
ATOM     19  N   UNL A   1     -25.614   5.252  26.449  0.00  0.00    -0.200 NA
ATOM     20  C   UNL A   1     -25.026   6.479  26.963  0.00  0.00    +0.139 C 
ATOM     21  O   UNL A   1     -25.143   3.966  28.243  0.00  0.00    -0.269 OA
ENDBRANCH  12  18
BRANCH  15  22
ATOM     22  O   UNL A   1     -28.193  -0.208  24.477  0.00  0.00    -0.459 OA
BRANCH  22  23
ATOM     23  C   UNL A   1     -29.460   0.005  23.866  0.00  0.00    +0.242 C 
BRANCH  23  24
ATOM     24  C   UNL A   1     -30.065  -1.377  23.573  0.00  0.00    +0.229 C 
ATOM     25  O   UNL A   1     -30.729  -1.878  24.721  0.00  0.00    -0.216 OA
ENDBRANCH  23  24
ENDBRANCH  22  23
ENDBRANCH  15  22
ENDBRANCH   6  11
BRANCH   9  26
ATOM     26  C   UNL A   1     -24.855  -1.012  30.143  0.00  0.00    +0.089 C 
BRANCH  26  27
ATOM     27  C   UNL A   1     -24.973  -2.505  29.788  0.00  0.00    -0.017 C 
ATOM     28  C   UNL A   1     -23.906  -3.173  29.146  0.00  0.00    -0.004 C 
ATOM     29  C   UNL A   1     -23.989  -4.549  28.853  0.00  0.00    -0.000 C 
ATOM     30  C   UNL A   1     -25.137  -5.280  29.205  0.00  0.00    -0.000 C 
ATOM     31  C   UNL A   1     -26.232  -4.611  29.784  0.00  0.00    -0.000 C 
ATOM     32  C   UNL A   1     -26.155  -3.232  30.065  0.00  0.00    -0.004 C 
ENDBRANCH  26  27
BRANCH  26  33
ATOM     33  C   UNL A   1     -25.387  -0.679  31.571  0.00  0.00    +0.081 C 
ATOM     34  C   UNL A   1     -25.189   0.773  32.028  0.00  0.00    +0.019 C 
ATOM     35  C   UNL A   1     -25.336   0.684  33.544  0.00  0.00    +0.020 C 
ATOM     36  C   UNL A   1     -24.829  -0.715  33.905  0.00  0.00    +0.089 C 
ATOM     37  N   UNL A   1     -24.758  -1.481  32.646  0.00  0.00    -0.219 NA
ENDBRANCH  26  33
ENDBRANCH   9  26
BRANCH   5  38
ATOM     38  N   UNL A   1     -25.941   1.890  29.822  0.00  0.00    -0.235 NA
BRANCH  38  39
ATOM     39  C   UNL A   1     -27.064   2.957  29.870  0.00  0.00    +0.087 C 
ATOM     40  C   UNL A   1     -29.270   3.527  29.189  0.00  0.00    +0.041 C 
ATOM     41  C   UNL A   1     -28.303   2.537  29.419  0.00  0.00    +0.019 C 
ATOM     42  C   UNL A   1     -26.887   4.256  30.357  0.00  0.00    +0.248 C 
ATOM     43  O   UNL A   1     -27.852   5.184  30.173  0.00  0.00    -0.466 OA
ATOM     44  C   UNL A   1     -29.038   4.853  29.558  0.00  0.00    +0.173 C 
ENDBRANCH  38  39
ENDBRANCH   5  38
TORSDOF 10
