MODEL 3060
MODEL 1
REMARK VINA RESULT:    -4.767      0.000      0.000
REMARK INTER + INTRA:          -5.879
REMARK INTER:                  -5.603
REMARK INTRA:                  -0.277
REMARK UNBOUND:                -0.277
REMARK  Name = No_3060-gen_results/8p0m/2024-11-27-11-27-31/
REMARK  3 active torsions:
REMARK  status: ('A' for Active; 'I' for Inactive)
REMARK    1  A    between atoms: C_2  and  C_4
REMARK    2  A    between atoms: C_4  and  C_7
REMARK    3  A    between atoms: C_8  and  C_9
REMARK                            x       y       z     vdW  Elec       q    Type
REMARK                         _______ _______ _______ _____ _____    ______ ____
ROOT
ATOM      1  C   UNL A   1     -27.716 -12.212  32.314  0.00  0.00    +0.100 C 
ATOM      2  C   UNL A   1     -26.730 -12.717  32.111  0.00  0.00    +0.014 C 
ENDROOT
BRANCH   1   4
ATOM      3  O   UNL A   1     -27.587 -12.404  34.630  0.00  0.00    -0.273 OA
ATOM      4  C   UNL A   1     -28.351 -12.285  33.782  0.00  0.00    +0.245 C 
ATOM      5  N   UNL A   1     -29.536 -12.239  33.891  0.00  0.00    -0.203 NA
ATOM      6  C   UNL A   1     -30.179 -12.331  35.036  0.00  0.00    +0.139 C 
ENDBRANCH   1   4
BRANCH   1   7
ATOM      7  C   UNL A   1     -28.594 -11.566  31.316  0.00  0.00    -0.017 C 
ATOM      8  C   UNL A   1     -28.672 -11.610  30.168  0.00  0.00    -0.004 C 
BRANCH   8   9
ATOM      9  C   UNL A   1     -29.687 -10.956  29.379  0.00  0.00    -0.005 C 
ATOM     10  C   UNL A   1     -29.806 -11.334  28.029  0.00  0.00    -0.026 C 
ATOM     11  C   UNL A   1     -28.988 -12.278  27.547  0.00  0.00    +0.031 C 
ENDBRANCH   8   9
ENDBRANCH   1   7
TORSDOF 3
ENDMDL
ENDMDL
