MODEL 3062
MODEL 1
REMARK VINA RESULT:    -6.499      0.000      0.000
REMARK INTER + INTRA:          -8.431
REMARK INTER:                  -8.399
REMARK INTRA:                  -0.031
REMARK UNBOUND:                -0.031
REMARK  Name = No_3062-gen_results/8p0m/2024-11-27-11-27-31/
REMARK  5 active torsions:
REMARK  status: ('A' for Active; 'I' for Inactive)
REMARK    1  A    between atoms: C_2  and  N_7
REMARK    2  A    between atoms: C_8  and  C_10
REMARK    3  A    between atoms: N_12  and  C_13
REMARK    4  A    between atoms: C_13  and  C_14
REMARK    5  A    between atoms: C_14  and  C_15
REMARK                            x       y       z     vdW  Elec       q    Type
REMARK                         _______ _______ _______ _____ _____    ______ ____
ROOT
ATOM      1  C   UNL A   1     -22.616  -0.069  29.321  0.00  0.00    +0.321 C 
ATOM      2  O   UNL A   1     -21.882   0.487  29.891  0.00  0.00    -0.263 OA
ATOM      3  N   UNL A   1     -22.992   0.369  28.009  0.00  0.00    -0.197 NA
ENDROOT
BRANCH   1   5
ATOM      4  N   UNL A   1     -23.958  -1.878  28.784  0.00  0.00    -0.172 NA
ATOM      5  C   UNL A   1     -23.431  -1.277  29.771  0.00  0.00    +0.324 C 
ATOM      6  O   UNL A   1     -23.553  -1.625  30.825  0.00  0.00    -0.263 OA
BRANCH   4   8
ATOM      7  C   UNL A   1     -24.165  -4.057  28.765  0.00  0.00    +0.017 A 
ATOM      8  C   UNL A   1     -24.658  -3.181  29.081  0.00  0.00    +0.074 A 
ATOM      9  C   UNL A   1     -24.886  -5.352  29.064  0.00  0.00    +0.001 A 
ATOM     10  C   UNL A   1     -26.193  -5.310  29.595  0.00  0.00    +0.000 A 
ATOM     11  C   UNL A   1     -26.003  -2.864  29.612  0.00  0.00    +0.017 A 
ATOM     12  C   UNL A   1     -26.699  -4.031  29.893  0.00  0.00    +0.001 A 
ENDBRANCH   4   8
ENDBRANCH   1   5
BRANCH   3  13
ATOM     13  C   UNL A   1     -22.371   1.475  27.438  0.00  0.00    +0.120 C 
BRANCH  13  14
ATOM     14  C   UNL A   1     -22.748   2.052  26.433  0.00  0.00    +0.050 C 
BRANCH  14  15
ATOM     15  C   UNL A   1     -24.014   1.876  25.973  0.00  0.00    -0.020 A 
ATOM     16  C   UNL A   1     -24.919   2.966  26.106  0.00  0.00    -0.004 A 
ATOM     17  C   UNL A   1     -26.285   2.763  25.775  0.00  0.00    -0.000 A 
ATOM     18  C   UNL A   1     -24.557   0.747  25.237  0.00  0.00    -0.004 A 
ATOM     19  C   UNL A   1     -25.878   0.610  24.849  0.00  0.00    -0.000 A 
ATOM     20  C   UNL A   1     -26.778   1.688  25.100  0.00  0.00    -0.000 A 
ENDBRANCH  14  15
ENDBRANCH  13  14
ENDBRANCH   3  13
TORSDOF 5
ENDMDL
ENDMDL
