MODEL 3063
MODEL 1
REMARK VINA RESULT:    -6.504      0.000      0.000
REMARK INTER + INTRA:          -6.504
REMARK INTER:                  -6.504
REMARK INTRA:                   0.000
REMARK UNBOUND:                 0.000
REMARK  Name = No_3063-gen_results/8p0m/2024-11-27-11-27-31/
REMARK  0 active torsions:
REMARK  status: ('A' for Active; 'I' for Inactive)
REMARK                            x       y       z     vdW  Elec       q    Type
REMARK                         _______ _______ _______ _____ _____    ______ ____
ROOT
ATOM      1  C   UNL A   1     -22.176   1.472  27.852  0.00  0.00    +0.002 A 
ATOM      2  C   UNL A   1     -23.182   0.808  27.953  0.00  0.00    +0.000 A 
ATOM      3  C   UNL A   1     -23.448  -0.029  29.035  0.00  0.00    +0.000 A 
ATOM      4  C   UNL A   1     -24.638  -0.880  29.234  0.00  0.00    +0.000 A 
ATOM      5  C   UNL A   1     -24.862  -1.766  30.347  0.00  0.00    +0.000 A 
ATOM      6  C   UNL A   1     -23.947  -1.630  31.396  0.00  0.00    +0.000 A 
ATOM      7  C   UNL A   1     -21.743   2.019  26.629  0.00  0.00    +0.030 A 
ATOM      8  C   UNL A   1     -22.687   2.079  25.601  0.00  0.00    +0.140 A 
ATOM      9  C   UNL A   1     -23.899   1.457  25.758  0.00  0.00    +0.030 A 
ATOM     10  C   UNL A   1     -24.202   0.677  26.920  0.00  0.00    +0.002 A 
ATOM     11  C   UNL A   1     -22.653  -0.095  30.305  0.00  0.00    +0.000 A 
ATOM     12  C   UNL A   1     -22.909  -0.846  31.377  0.00  0.00    +0.000 A 
ATOM     13  F   UNL A   1     -22.369   2.705  24.500  0.00  0.00    -0.204 F 
ATOM     14  C   UNL A   1     -25.636  -0.983  28.150  0.00  0.00    +0.000 A 
ATOM     15  C   UNL A   1     -25.362  -0.139  26.985  0.00  0.00    +0.000 A 
ENDROOT
TORSDOF 0
ENDMDL
ENDMDL
