MODEL 3064
MODEL 1
REMARK VINA RESULT:    -6.430      0.000      0.000
REMARK INTER + INTRA:          -7.601
REMARK INTER:                  -7.182
REMARK INTRA:                  -0.419
REMARK UNBOUND:                -0.419
REMARK  Name = No_3064-gen_results/8p0m/2024-11-27-11-27-31/
REMARK  2 active torsions:
REMARK  status: ('A' for Active; 'I' for Inactive)
REMARK    1  A    between atoms: C_3  and  O_7
REMARK    2  A    between atoms: O_7  and  C_8
REMARK                            x       y       z     vdW  Elec       q    Type
REMARK                         _______ _______ _______ _____ _____    ______ ____
ROOT
ATOM      1  O   UNL A   1     -24.551  -1.262  29.521  0.00  0.00    -0.454 OA
ENDROOT
BRANCH   1   2
ATOM      2  C   UNL A   1     -24.409  -0.420  28.457  0.00  0.00    +0.146 A 
ATOM      3  C   UNL A   1     -23.434   0.553  28.536  0.00  0.00    +0.037 A 
ATOM      4  C   UNL A   1     -25.241  -0.454  27.284  0.00  0.00    +0.049 A 
ATOM      5  C   UNL A   1     -23.276   1.481  27.435  0.00  0.00    +0.004 A 
ATOM      6  C   UNL A   1     -24.916   0.291  26.150  0.00  0.00    +0.061 A 
ATOM      7  C   UNL A   1     -23.860   1.229  26.211  0.00  0.00    +0.012 A 
ATOM      8 CL   UNL A   1     -25.662   0.055  24.665  0.00  0.00    -0.082 Cl
ENDBRANCH   1   2
BRANCH   1  11
ATOM      9  C   UNL A   1     -25.982  -3.192  29.864  0.00  0.00    +0.037 A 
ATOM     10  C   UNL A   1     -26.167  -4.210  29.663  0.00  0.00    +0.003 A 
ATOM     11  C   UNL A   1     -24.756  -2.657  29.344  0.00  0.00    +0.145 A 
ATOM     12  C   UNL A   1     -23.810  -3.415  28.780  0.00  0.00    +0.037 A 
ATOM     13  C   UNL A   1     -25.285  -5.217  29.091  0.00  0.00    +0.000 A 
ATOM     14  C   UNL A   1     -24.138  -4.743  28.626  0.00  0.00    +0.003 A 
ENDBRANCH   1  11
TORSDOF 2
ENDMDL
ENDMDL
