REMARK  Name = No_3064-gen_results/8p0m/2024-11-27-11-27-31/
REMARK  2 active torsions:
REMARK  status: ('A' for Active; 'I' for Inactive)
REMARK    1  A    between atoms: C_3  and  O_7
REMARK    2  A    between atoms: O_7  and  C_8
REMARK                            x       y       z     vdW  Elec       q    Type
REMARK                         _______ _______ _______ _____ _____    ______ ____
ROOT
ATOM      1  O   UNL A   1     -27.500   0.358  26.816  0.00  0.00    -0.454 OA
ENDROOT
BRANCH   1   2
ATOM      2  C   UNL A   1     -26.137   0.358  26.762  0.00  0.00    +0.146 A 
ATOM      3  C   UNL A   1     -25.534   1.163  25.817  0.00  0.00    +0.037 A 
ATOM      4  C   UNL A   1     -25.296  -0.460  27.594  0.00  0.00    +0.049 A 
ATOM      5  C   UNL A   1     -24.089   1.165  25.715  0.00  0.00    +0.004 A 
ATOM      6  C   UNL A   1     -23.915  -0.263  27.635  0.00  0.00    +0.061 A 
ATOM      7  C   UNL A   1     -23.310   0.627  26.718  0.00  0.00    +0.012 A 
ATOM      8 CL   UNL A   1     -22.933  -0.964  28.802  0.00  0.00    -0.082 Cl
ENDBRANCH   1   2
BRANCH   1  11
ATOM      9  C   UNL A   1     -28.016  -0.814  28.878  0.00  0.00    +0.037 A 
ATOM     10  C   UNL A   1     -28.469  -0.785  29.829  0.00  0.00    +0.003 A 
ATOM     11  C   UNL A   1     -28.196   0.348  28.055  0.00  0.00    +0.145 A 
ATOM     12  C   UNL A   1     -29.019   1.350  28.378  0.00  0.00    +0.037 A 
ATOM     13  C   UNL A   1     -29.411   0.180  30.378  0.00  0.00    +0.000 A 
ATOM     14  C   UNL A   1     -29.606   1.250  29.619  0.00  0.00    +0.003 A 
ENDBRANCH   1  11
TORSDOF 2
