MODEL 3065
MODEL 1
REMARK VINA RESULT:    -5.522      0.000      0.000
REMARK INTER + INTRA:          -6.343
REMARK INTER:                  -6.168
REMARK INTRA:                  -0.175
REMARK UNBOUND:                -0.175
REMARK  Name = No_3065-gen_results/8p0m/2024-11-27-11-27-31/
REMARK  2 active torsions:
REMARK  status: ('A' for Active; 'I' for Inactive)
REMARK    1  A    between atoms: C_2  and  C_10
REMARK    2  A    between atoms: C_5  and  C_6
REMARK                            x       y       z     vdW  Elec       q    Type
REMARK                         _______ _______ _______ _____ _____    ______ ____
ROOT
ATOM      1  C   UNL A   1     -25.650  -2.653  29.872  0.00  0.00    +0.006 A 
ATOM      2  C   UNL A   1     -24.546  -2.560  29.388  0.00  0.00    -0.000 A 
ATOM      3  C   UNL A   1     -23.863  -3.603  28.851  0.00  0.00    -0.000 A 
ATOM      4  C   UNL A   1     -24.471  -4.873  28.854  0.00  0.00    +0.000 A 
ATOM      5  C   UNL A   1     -26.370  -3.901  29.824  0.00  0.00    +0.068 A 
ATOM      6  C   UNL A   1     -25.737  -4.981  29.298  0.00  0.00    +0.006 A 
ENDROOT
BRANCH   5   7
ATOM      7  C   UNL A   1     -27.711  -4.020  30.339  0.00  0.00    +0.333 C 
ATOM      8  O   UNL A   1     -28.456  -3.306  30.185  0.00  0.00    -0.254 OA
ATOM      9  F   UNL A   1     -28.000  -5.249  30.834  0.00  0.00    -0.159 F 
ENDBRANCH   5   7
BRANCH   2  10
ATOM     10  C   UNL A   1     -23.753  -1.236  29.312  0.00  0.00    -0.005 C 
ATOM     11  C   UNL A   1     -23.863  -0.357  28.231  0.00  0.00    -0.026 C 
ATOM     12  C   UNL A   1     -25.011  -0.489  27.403  0.00  0.00    +0.031 C 
ENDBRANCH   2  10
TORSDOF 2
ENDMDL
ENDMDL
