MODEL 3067
MODEL 1
REMARK VINA RESULT:    -6.510      0.000      0.000
REMARK INTER + INTRA:          -9.468
REMARK INTER:                  -8.413
REMARK INTRA:                  -1.055
REMARK UNBOUND:                -1.055
REMARK  Name = No_3067-gen_results/8p0m/2024-11-27-11-27-31/
REMARK  5 active torsions:
REMARK  status: ('A' for Active; 'I' for Inactive)
REMARK    1  A    between atoms: C_4  and  C_15
REMARK    2  A    between atoms: C_13  and  C_18
REMARK    3  A    between atoms: C_18  and  C_19
REMARK    4  A    between atoms: C_20  and  C_21
REMARK    5  A    between atoms: C_22  and  C_23
REMARK                            x       y       z     vdW  Elec       q    Type
REMARK                         _______ _______ _______ _____ _____    ______ ____
ROOT
ATOM      1 CL   UNL A   1     -25.401  -1.110  24.750  0.00  0.00    -0.082 Cl
ATOM      2  C   UNL A   1     -26.205   0.085  24.799  0.00  0.00    +0.057 A 
ATOM      3  C   UNL A   1     -27.296   0.285  24.424  0.00  0.00    +0.012 A 
ATOM      4  C   UNL A   1     -28.100   1.519  24.507  0.00  0.00    +0.042 A 
ATOM      5  C   UNL A   1     -27.487   2.593  25.190  0.00  0.00    -0.000 A 
ATOM      6  C   UNL A   1     -28.097   3.849  25.332  0.00  0.00    +0.151 C 
ATOM      7  C   UNL A   1     -26.194   2.415  25.692  0.00  0.00    -0.018 A 
ATOM      8  C   UNL A   1     -25.576   1.225  25.550  0.00  0.00    +0.006 A 
ATOM      9  N   UNL A   1     -27.936   4.529  26.481  0.00  0.00    -0.268 NA
ATOM     10  C   UNL A   1     -26.625   4.581  26.976  0.00  0.00    +0.071 C 
ATOM     11  C   UNL A   1     -25.883   3.332  26.792  0.00  0.00    +0.067 C 
ATOM     12  C   UNL A   1     -24.275   1.006  26.235  0.00  0.00    -0.008 C 
ATOM     13  C   UNL A   1     -23.567   1.898  26.403  0.00  0.00    -0.039 C 
ATOM     14  C   UNL A   1     -24.322   3.232  27.013  0.00  0.00    +0.033 C 
ENDROOT
BRANCH   4  15
ATOM     15  C   UNL A   1     -29.408   1.733  23.791  0.00  0.00    +0.341 C 
ATOM     16  F   UNL A   1     -30.352   1.542  24.514  0.00  0.00    -0.193 F 
ATOM     17  F   UNL A   1     -29.478   2.194  22.883  0.00  0.00    -0.193 F 
ENDBRANCH   4  15
BRANCH  13  18
ATOM     18  C   UNL A   1     -22.245   1.912  27.052  0.00  0.00    +0.048 C 
BRANCH  18  19
ATOM     19  C   UNL A   1     -22.122   0.869  28.004  0.00  0.00    -0.022 C 
ATOM     20  C   UNL A   1     -22.602   0.879  29.159  0.00  0.00    -0.004 C 
BRANCH  20  21
ATOM     21  C   UNL A   1     -22.496  -0.304  30.097  0.00  0.00    -0.000 C 
ATOM     22  C   UNL A   1     -23.425  -1.361  30.094  0.00  0.00    -0.000 C 
BRANCH  22  23
ATOM     23  C   UNL A   1     -24.474  -1.306  29.157  0.00  0.00    -0.000 C 
ATOM     24  C   UNL A   1     -24.956  -2.449  28.542  0.00  0.00    -0.000 C 
ENDBRANCH  22  23
ENDBRANCH  20  21
ENDBRANCH  18  19
ENDBRANCH  13  18
TORSDOF 5
ENDMDL
ENDMDL
