REMARK  Name = No_3067-gen_results/8p0m/2024-11-27-11-27-31/
REMARK  5 active torsions:
REMARK  status: ('A' for Active; 'I' for Inactive)
REMARK    1  A    between atoms: C_4  and  C_15
REMARK    2  A    between atoms: C_13  and  C_18
REMARK    3  A    between atoms: C_18  and  C_19
REMARK    4  A    between atoms: C_20  and  C_21
REMARK    5  A    between atoms: C_22  and  C_23
REMARK                            x       y       z     vdW  Elec       q    Type
REMARK                         _______ _______ _______ _____ _____    ______ ____
ROOT
ATOM      1 CL   UNL A   1     -28.149  -0.820  28.908  0.00  0.00    -0.082 Cl
ATOM      2  C   UNL A   1     -26.912  -0.080  28.945  0.00  0.00    +0.057 A 
ATOM      3  C   UNL A   1     -25.966  -0.212  29.623  0.00  0.00    +0.012 A 
ATOM      4  C   UNL A   1     -24.704   0.553  29.622  0.00  0.00    +0.042 A 
ATOM      5  C   UNL A   1     -24.601   1.544  28.621  0.00  0.00    -0.000 A 
ATOM      6  C   UNL A   1     -23.483   2.385  28.498  0.00  0.00    +0.151 C 
ATOM      7  C   UNL A   1     -25.682   1.736  27.755  0.00  0.00    -0.018 A 
ATOM      8  C   UNL A   1     -26.777   0.956  27.865  0.00  0.00    +0.006 A 
ATOM      9  N   UNL A   1     -23.054   2.728  27.271  0.00  0.00    -0.268 NA
ATOM     10  C   UNL A   1     -24.051   3.132  26.372  0.00  0.00    +0.071 C 
ATOM     11  C   UNL A   1     -25.289   2.359  26.489  0.00  0.00    +0.067 C 
ATOM     12  C   UNL A   1     -27.841   1.064  26.833  0.00  0.00    -0.008 C 
ATOM     13  C   UNL A   1     -28.020   2.073  26.309  0.00  0.00    -0.039 C 
ATOM     14  C   UNL A   1     -26.634   2.799  25.785  0.00  0.00    +0.033 C 
ENDROOT
BRANCH   4  15
ATOM     15  C   UNL A   1     -23.644   0.446  30.686  0.00  0.00    +0.341 C 
ATOM     16  F   UNL A   1     -22.908  -0.488  30.495  0.00  0.00    -0.193 F 
ATOM     17  F   UNL A   1     -23.443   1.195  31.350  0.00  0.00    -0.193 F 
ENDBRANCH   4  15
BRANCH  13  18
ATOM     18  C   UNL A   1     -29.007   2.405  25.267  0.00  0.00    +0.048 C 
BRANCH  18  19
ATOM     19  C   UNL A   1     -29.851   3.470  25.670  0.00  0.00    -0.022 C 
ATOM     20  C   UNL A   1     -29.523   4.411  26.427  0.00  0.00    -0.004 C 
BRANCH  20  21
ATOM     21  C   UNL A   1     -30.454   5.558  26.754  0.00  0.00    -0.000 C 
ATOM     22  C   UNL A   1     -30.056   6.662  27.529  0.00  0.00    -0.000 C 
BRANCH  22  23
ATOM     23  C   UNL A   1     -28.726   6.691  27.990  0.00  0.00    -0.000 C 
ATOM     24  C   UNL A   1     -27.834   5.675  27.692  0.00  0.00    -0.000 C 
ENDBRANCH  22  23
ENDBRANCH  20  21
ENDBRANCH  18  19
ENDBRANCH  13  18
TORSDOF 5
