MODEL 3068
MODEL 1
REMARK VINA RESULT:    -6.462      0.000      0.000
REMARK INTER + INTRA:          -7.163
REMARK INTER:                  -6.840
REMARK INTRA:                  -0.323
REMARK UNBOUND:                -0.323
REMARK  Name = No_3068-gen_results/8p0m/2024-11-27-11-27-31/
REMARK  1 active torsions:
REMARK  status: ('A' for Active; 'I' for Inactive)
REMARK    1  A    between atoms: C_3  and  C_7
REMARK                            x       y       z     vdW  Elec       q    Type
REMARK                         _______ _______ _______ _____ _____    ______ ____
ROOT
ATOM      1  C   UNL A   1     -26.585  -3.621  29.873  0.00  0.00    +0.000 A 
ATOM      2  C   UNL A   1     -25.960  -2.623  29.599  0.00  0.00    +0.000 A 
ATOM      3  C   UNL A   1     -24.719  -2.640  28.963  0.00  0.00    +0.000 A 
ATOM      4  C   UNL A   1     -24.099  -3.915  28.659  0.00  0.00    +0.000 A 
ATOM      5  C   UNL A   1     -24.845  -5.040  29.011  0.00  0.00    +0.000 A 
ATOM      6  C   UNL A   1     -26.009  -4.932  29.621  0.00  0.00    +0.000 A 
ENDROOT
BRANCH   3   7
ATOM      7  C   UNL A   1     -23.895  -1.455  28.587  0.00  0.00    +0.000 A 
ATOM      8  C   UNL A   1     -24.348  -0.421  27.918  0.00  0.00    +0.000 A 
ATOM      9  C   UNL A   1     -23.525   0.687  27.611  0.00  0.00    +0.000 A 
ATOM     10  C   UNL A   1     -22.321   0.847  28.354  0.00  0.00    +0.000 A 
ATOM     11  C   UNL A   1     -22.609  -1.236  29.199  0.00  0.00    +0.000 A 
ATOM     12  C   UNL A   1     -21.872  -0.145  29.057  0.00  0.00    +0.000 A 
ENDBRANCH   3   7
TORSDOF 1
ENDMDL
ENDMDL
