MODEL 3069
MODEL 1
REMARK VINA RESULT:    -6.537      0.000      0.000
REMARK INTER + INTRA:          -6.829
REMARK INTER:                  -6.919
REMARK INTRA:                   0.090
REMARK UNBOUND:                 0.090
REMARK  Name = No_3069-gen_results/8p0m/2024-11-27-11-27-31/
REMARK  1 active torsions:
REMARK  status: ('A' for Active; 'I' for Inactive)
REMARK    1  A    between atoms: C_5  and  C_17
REMARK                            x       y       z     vdW  Elec       q    Type
REMARK                         _______ _______ _______ _____ _____    ______ ____
ROOT
ATOM      1  C   UNL A   1     -17.832 -20.171   6.307  0.00  0.00    +0.003 A 
ATOM      2  C   UNL A   1     -18.948 -20.311   6.751  0.00  0.00    +0.035 A 
ATOM      3  C   UNL A   1     -19.462 -21.493   7.257  0.00  0.00    -0.015 A 
ATOM      4  C   UNL A   1     -18.590 -22.621   7.281  0.00  0.00    +0.001 A 
ATOM      5  C   UNL A   1     -17.312 -22.399   6.933  0.00  0.00    +0.053 A 
ATOM      6  C   UNL A   1     -16.906 -21.238   6.509  0.00  0.00    +0.005 A 
ATOM      7  C   UNL A   1     -20.903 -21.653   7.668  0.00  0.00    +0.055 C 
ATOM      8  C   UNL A   1     -21.716 -20.732   7.124  0.00  0.00    +0.016 A 
ATOM      9  C   UNL A   1     -21.259 -19.495   6.583  0.00  0.00    +0.057 A 
ATOM     10  C   UNL A   1     -20.001 -19.288   6.355  0.00  0.00    +0.197 C 
ATOM     11  C   UNL A   1     -23.205 -20.776   7.565  0.00  0.00    +0.156 A 
ATOM     12  F   UNL A   1     -23.568 -21.818   8.125  0.00  0.00    -0.203 F 
ATOM     13  C   UNL A   1     -24.119 -19.746   7.236  0.00  0.00    +0.128 A 
ATOM     14  N   UNL A   1     -23.734 -18.683   6.574  0.00  0.00    -0.240 NA
ATOM     15  C   UNL A   1     -22.297 -18.442   6.240  0.00  0.00    +0.102 A 
ATOM     16  O   UNL A   1     -19.663 -18.393   5.500  0.00  0.00    -0.286 OA
ENDROOT
BRANCH   5  17
ATOM     17  C   UNL A   1     -16.342 -23.526   7.094  0.00  0.00    +0.249 C 
ATOM     18  N   UNL A   1     -15.816 -23.704   8.273  0.00  0.00    -0.273 N 
ATOM     19  O   UNL A   1     -16.116 -24.348   6.216  0.00  0.00    -0.270 OA
ATOM     20  C   UNL A   1     -16.053 -22.871   9.422  0.00  0.00    +0.115 C 
ATOM     21  C   UNL A   1     -14.880 -24.829   8.580  0.00  0.00    +0.115 C 
ENDBRANCH   5  17
TORSDOF 1
ENDMDL
ENDMDL
