MODEL 306
MODEL 1
REMARK VINA RESULT:    -5.253      0.000      0.000
REMARK INTER + INTRA:          -5.662
REMARK INTER:                  -5.560
REMARK INTRA:                  -0.101
REMARK UNBOUND:                -0.101
REMARK  Name = No_306-gen_results/8p0m/2024-11-27-11-27-31/
REMARK  1 active torsions:
REMARK  status: ('A' for Active; 'I' for Inactive)
REMARK    1  A    between atoms: C_2  and  N_7
REMARK                            x       y       z     vdW  Elec       q    Type
REMARK                         _______ _______ _______ _____ _____    ______ ____
ROOT
ATOM      1  C   UNL A   1     -25.224  -2.576  29.613  0.00  0.00    +0.019 A 
ATOM      2  C   UNL A   1     -24.178  -2.957  29.141  0.00  0.00    +0.081 A 
ATOM      3  C   UNL A   1     -23.995  -4.288  28.781  0.00  0.00    +0.019 A 
ATOM      4  C   UNL A   1     -25.030  -5.264  29.002  0.00  0.00    +0.002 A 
ATOM      5  C   UNL A   1     -26.197  -4.742  29.574  0.00  0.00    +0.000 A 
ATOM      6  C   UNL A   1     -26.314  -3.479  29.912  0.00  0.00    +0.002 A 
ENDROOT
BRANCH   2   7
ATOM      7  N   UNL A   1     -23.063  -2.150  28.896  0.00  0.00    -0.248 NA
ATOM      8  C   UNL A   1     -22.753  -1.031  29.238  0.00  0.00    +0.073 C 
ATOM      9  C   UNL A   1     -21.556  -0.339  28.952  0.00  0.00    +0.053 C 
ENDBRANCH   2   7
TORSDOF 1
ENDMDL
ENDMDL
