REMARK  Name = No_307-gen_results/8p0m/2024-11-27-11-27-31/
REMARK  6 active torsions:
REMARK  status: ('A' for Active; 'I' for Inactive)
REMARK    1  A    between atoms: C_4  and  C_7
REMARK    2  A    between atoms: C_7  and  C_8
REMARK    3  A    between atoms: C_8  and  C_9
REMARK    4  A    between atoms: C_9  and  N_10
REMARK    5  A    between atoms: N_10  and  C_11
REMARK    6  A    between atoms: C_12  and  C_13
REMARK                            x       y       z     vdW  Elec       q    Type
REMARK                         _______ _______ _______ _____ _____    ______ ____
ROOT
ATOM      1  C   UNL A   1     -23.817   0.476  29.912  0.00  0.00    +0.028 C 
ENDROOT
BRANCH   1   2
ATOM      2  C   UNL A   1     -24.389  -0.805  30.164  0.00  0.00    +0.028 C 
BRANCH   2   6
ATOM      3  C   UNL A   1     -28.016  -0.814  28.878  0.00  0.00    -0.000 A 
ATOM      4  C   UNL A   1     -28.469  -0.785  29.829  0.00  0.00    -0.000 A 
ATOM      5  C   UNL A   1     -26.504  -0.778  28.877  0.00  0.00    -0.004 A 
ATOM      6  C   UNL A   1     -25.810  -0.853  30.103  0.00  0.00    -0.022 A 
ATOM      7  C   UNL A   1     -27.991  -0.892  31.226  0.00  0.00    -0.000 A 
ATOM      8  C   UNL A   1     -26.604  -0.868  31.265  0.00  0.00    -0.004 A 
ENDBRANCH   2   6
ENDBRANCH   1   2
BRANCH   1   9
ATOM      9  C   UNL A   1     -24.195   1.598  30.192  0.00  0.00    +0.113 C 
BRANCH   9  10
ATOM     10  N   UNL A   1     -25.218   1.759  31.054  0.00  0.00    -0.236 NA
BRANCH  10  11
ATOM     11  C   UNL A   1     -25.168   2.079  32.180  0.00  0.00    +0.081 C 
ATOM     12  C   UNL A   1     -26.162   2.827  32.839  0.00  0.00    +0.062 C 
BRANCH  12  13
ATOM     13  C   UNL A   1     -26.212   4.064  32.619  0.00  0.00    +0.342 C 
ATOM     14  F   UNL A   1     -26.374   4.801  33.556  0.00  0.00    -0.193 F 
ATOM     15  F   UNL A   1     -25.108   4.521  31.993  0.00  0.00    -0.193 F 
ENDBRANCH  12  13
ENDBRANCH  10  11
ENDBRANCH   9  10
ENDBRANCH   1   9
TORSDOF 6
