MODEL 3070
MODEL 1
REMARK VINA RESULT:    -7.230      0.000      0.000
REMARK INTER + INTRA:          -9.378
REMARK INTER:                  -8.498
REMARK INTRA:                  -0.880
REMARK UNBOUND:                -0.880
REMARK  Name = No_3070-gen_results/8p0m/2024-11-27-11-27-31/
REMARK  3 active torsions:
REMARK  status: ('A' for Active; 'I' for Inactive)
REMARK    1  A    between atoms: C_4  and  C_6
REMARK    2  A    between atoms: C_6  and  C_8
REMARK    3  A    between atoms: C_9  and  C_10
REMARK                            x       y       z     vdW  Elec       q    Type
REMARK                         _______ _______ _______ _____ _____    ______ ____
ROOT
ATOM      1  C   UNL A   1     -26.196  -0.198  28.591  0.00  0.00    -0.021 C 
ATOM      2  C   UNL A   1     -26.193  -1.102  29.512  0.00  0.00    -0.004 C 
ENDROOT
BRANCH   2   3
ATOM      3  C   UNL A   1     -25.765  -2.426  29.179  0.00  0.00    -0.004 A 
ATOM      4  C   UNL A   1     -26.574  -3.512  29.785  0.00  0.00    -0.000 A 
ATOM      5  C   UNL A   1     -26.192  -4.873  29.699  0.00  0.00    -0.000 A 
ATOM      6  C   UNL A   1     -24.926  -5.067  29.079  0.00  0.00    -0.000 A 
ATOM      7  C   UNL A   1     -24.137  -4.086  28.775  0.00  0.00    -0.004 A 
ATOM      8  C   UNL A   1     -24.496  -2.791  28.928  0.00  0.00    -0.022 A 
ATOM      9  C   UNL A   1     -23.400  -2.172  29.925  0.00  0.00    +0.031 C 
ENDBRANCH   2   3
BRANCH   1  10
ATOM     10  C   UNL A   1     -25.726  -0.268  27.259  0.00  0.00    +0.052 C 
BRANCH  10  14
ATOM     11  C   UNL A   1     -22.328   1.474  27.489  0.00  0.00    -0.000 A 
ATOM     12  C   UNL A   1     -22.436   2.077  26.631  0.00  0.00    -0.000 A 
ATOM     13  C   UNL A   1     -23.474   0.622  27.843  0.00  0.00    -0.004 A 
ATOM     14  C   UNL A   1     -24.602   0.527  26.976  0.00  0.00    -0.022 A 
ATOM     15  C   UNL A   1     -23.456   2.124  25.549  0.00  0.00    -0.005 A 
ATOM     16  C   UNL A   1     -24.547   1.316  25.828  0.00  0.00    -0.025 A 
ATOM     17  C   UNL A   1     -24.780   0.357  24.641  0.00  0.00    +0.031 C 
ENDBRANCH  10  14
ENDBRANCH   1  10
TORSDOF 3
ENDMDL
ENDMDL
