REMARK  Name = outputs/IAG933/test6/raw/output_3071_IAG933_linker_design_.xyz
REMARK  9 active torsions:
REMARK  status: ('A' for Active; 'I' for Inactive)
REMARK    1  A    between atoms: C_1  and  C_2
REMARK    2  A    between atoms: C_1  and  C_8
REMARK    3  A    between atoms: C_1  and  C_30
REMARK    4  A    between atoms: C_13  and  C_37
REMARK    5  A    between atoms: C_14  and  C_15
REMARK    6  A    between atoms: C_21  and  O_22
REMARK    7  A    between atoms: O_22  and  C_23
REMARK    8  A    between atoms: C_23  and  C_24
REMARK    9  A    between atoms: C_31  and  N_32
REMARK                            x       y       z     vdW  Elec       q    Type
REMARK                         _______ _______ _______ _____ _____    ______ ____
ROOT
ATOM      1  C   UNL A   1     -24.274   0.016  29.327  0.00  0.00    +0.000 C 
ATOM      2  C   UNL A   1     -25.253   0.771  28.674  0.00  0.00    +0.070 C 
ATOM      3  C   UNL A   1     -22.871   0.279  29.113  0.00  0.00    +0.029 C 
ATOM      4  C   UNL A   1     -22.428   1.109  27.945  0.00  0.00    +0.167 C 
ATOM      5  C   UNL A   1     -24.764   1.288  27.393  0.00  0.00    +0.030 C 
ATOM      6  F   UNL A   1     -22.965   2.005  25.900  0.00  0.00    -0.202 F 
ATOM      7  C   UNL A   1     -23.391   1.509  27.071  0.00  0.00    +0.165 C 
ATOM      8  F   UNL A   1     -21.166   1.537  27.676  0.00  0.00    -0.202 F 
ENDROOT
BRANCH   2  11
ATOM      9  C   UNL A   1     -28.945   1.224  29.373  0.00  0.00    +0.097 C 
ATOM     10  C   UNL A   1     -27.577   2.621  30.822  0.00  0.00    +0.260 C 
ATOM     11  N   UNL A   1     -26.492   1.099  29.308  0.00  0.00    -0.166 N 
ATOM     12  N   UNL A   1     -26.527   2.282  30.029  0.00  0.00    -0.103 NA
ATOM     13  O   UNL A   1     -27.424   3.318  31.896  0.00  0.00    -0.272 OA
ATOM     14  C   UNL A   1     -27.779   0.300  29.109  0.00  0.00    +0.247 C 
ATOM     15  O   UNL A   1     -27.971  -1.050  28.694  0.00  0.00    -0.273 OA
ATOM     16  C   UNL A   1     -28.880   2.270  30.354  0.00  0.00    +0.098 C 
ENDBRANCH   2  11
BRANCH   5  17
ATOM     17  C   UNL A   1     -25.688   1.614  26.461  0.00  0.00    +0.096 C 
ATOM     18  C   UNL A   1     -26.250   2.920  26.395  0.00  0.00    +0.059 C 
ATOM     19  C   UNL A   1     -27.438   3.091  25.645  0.00  0.00    +0.102 C 
ATOM     20  N   UNL A   1     -28.075   2.089  25.003  0.00  0.00    -0.212 NA
ATOM     21  C   UNL A   1     -27.543   0.849  25.079  0.00  0.00    +0.234 C 
ATOM     22  C   UNL A   1     -26.354   0.576  25.777  0.00  0.00    +0.244 C 
ATOM     23  F   UNL A   1     -25.860  -0.681  25.795  0.00  0.00    -0.227 F 
BRANCH  18  24
ATOM     24  C   UNL A   1     -25.642   4.093  27.123  0.00  0.00    +0.263 C 
ATOM     25  N   UNL A   1     -25.614   5.252  26.449  0.00  0.00    -0.200 NA
ATOM     26  C   UNL A   1     -25.026   6.479  26.963  0.00  0.00    +0.139 C 
ATOM     27  O   UNL A   1     -25.143   3.966  28.243  0.00  0.00    -0.269 OA
ENDBRANCH  18  24
BRANCH  21  28
ATOM     28  O   UNL A   1     -28.193  -0.208  24.477  0.00  0.00    -0.459 OA
BRANCH  28  29
ATOM     29  C   UNL A   1     -29.460   0.005  23.866  0.00  0.00    +0.242 C 
BRANCH  29  30
ATOM     30  C   UNL A   1     -30.065  -1.377  23.573  0.00  0.00    +0.229 C 
ATOM     31  O   UNL A   1     -30.729  -1.878  24.721  0.00  0.00    -0.216 OA
ENDBRANCH  29  30
ENDBRANCH  28  29
ENDBRANCH  21  28
ENDBRANCH   5  17
BRANCH   1  32
ATOM     32  C   UNL A   1     -24.855  -1.012  30.143  0.00  0.00    +0.062 C 
BRANCH  32  33
ATOM     33  C   UNL A   1     -24.973  -2.505  29.788  0.00  0.00    -0.017 C 
ATOM     34  C   UNL A   1     -23.906  -3.173  29.146  0.00  0.00    -0.004 C 
ATOM     35  C   UNL A   1     -23.989  -4.549  28.853  0.00  0.00    -0.000 C 
ATOM     36  C   UNL A   1     -25.137  -5.280  29.205  0.00  0.00    -0.000 C 
ATOM     37  C   UNL A   1     -26.232  -4.611  29.784  0.00  0.00    -0.000 C 
ATOM     38  C   UNL A   1     -26.155  -3.232  30.065  0.00  0.00    -0.004 C 
ENDBRANCH  32  33
BRANCH  32  39
ATOM     39  C   UNL A   1     -25.387  -0.679  31.571  0.00  0.00    +0.081 C 
ATOM     40  C   UNL A   1     -25.189   0.773  32.028  0.00  0.00    +0.019 C 
ATOM     41  C   UNL A   1     -25.336   0.684  33.544  0.00  0.00    +0.020 C 
ATOM     42  C   UNL A   1     -24.829  -0.715  33.905  0.00  0.00    +0.089 C 
ATOM     43  N   UNL A   1     -24.758  -1.481  32.646  0.00  0.00    -0.219 NA
ENDBRANCH  32  39
ENDBRANCH   1  32
TORSDOF 9
