MODEL 3071
MODEL 1
REMARK VINA RESULT:    -6.586      0.000      0.000
REMARK INTER + INTRA:          -9.157
REMARK INTER:                  -8.511
REMARK INTRA:                  -0.646
REMARK UNBOUND:                -0.646
REMARK  Name = No_3071-gen_results/8p0m/2024-11-27-11-27-31/
REMARK  5 active torsions:
REMARK  status: ('A' for Active; 'I' for Inactive)
REMARK    1  A    between atoms: C_2  and  C_3
REMARK    2  A    between atoms: N_4  and  C_5
REMARK    3  A    between atoms: C_5  and  C_14
REMARK    4  A    between atoms: N_7  and  C_8
REMARK    5  A    between atoms: C_14  and  C_15
REMARK                            x       y       z     vdW  Elec       q    Type
REMARK                         _______ _______ _______ _____ _____    ______ ____
ROOT
ATOM      1  O   UNL A   1     -22.522 -18.267   4.179  0.00  0.00    -0.263 OA
ATOM      2  C   UNL A   1     -21.935 -17.682   4.973  0.00  0.00    +0.321 C 
ATOM      3  N   UNL A   1     -22.074 -16.272   4.903  0.00  0.00    -0.197 NA
ENDROOT
BRANCH   2   4
ATOM      4  C   UNL A   1     -21.032 -18.172   5.732  0.00  0.00    +0.324 C 
ATOM      5  O   UNL A   1     -21.193 -17.975   6.838  0.00  0.00    -0.263 OA
ATOM      6  N   UNL A   1     -20.217 -19.267   5.303  0.00  0.00    -0.172 NA
BRANCH   6   7
ATOM      7  C   UNL A   1     -19.355 -19.947   6.194  0.00  0.00    +0.074 A 
ATOM      8  C   UNL A   1     -18.229 -19.850   6.053  0.00  0.00    +0.017 A 
ATOM      9  C   UNL A   1     -17.241 -20.651   6.789  0.00  0.00    +0.001 A 
ATOM     10  C   UNL A   1     -17.809 -21.509   7.774  0.00  0.00    +0.000 A 
ATOM     11  C   UNL A   1     -19.172 -21.599   7.896  0.00  0.00    +0.001 A 
ATOM     12  C   UNL A   1     -19.997 -20.882   7.098  0.00  0.00    +0.017 A 
ENDBRANCH   6   7
ENDBRANCH   2   4
BRANCH   3  13
ATOM     13  C   UNL A   1     -23.048 -15.584   4.233  0.00  0.00    +0.119 C 
BRANCH  13  14
ATOM     14  C   UNL A   1     -23.164 -14.240   4.517  0.00  0.00    +0.039 C 
ATOM     15  C   UNL A   1     -24.633 -13.836   4.252  0.00  0.00    +0.006 C 
ATOM     16  C   UNL A   1     -23.035 -14.142   6.034  0.00  0.00    +0.006 C 
BRANCH  14  17
ATOM     17  C   UNL A   1     -22.392 -13.378   4.001  0.00  0.00    -0.021 A 
ATOM     18  C   UNL A   1     -22.245 -13.152   2.624  0.00  0.00    -0.009 A 
ATOM     19  C   UNL A   1     -21.186 -12.593   1.971  0.00  0.00    -0.022 A 
ATOM     20  C   UNL A   1     -21.137 -12.597   0.542  0.00  0.00    +0.031 C 
ATOM     21  C   UNL A   1     -20.193 -11.986   2.738  0.00  0.00    -0.004 A 
ATOM     22  C   UNL A   1     -20.418 -11.880   4.111  0.00  0.00    -0.001 A 
ATOM     23  C   UNL A   1     -21.322 -12.710   4.712  0.00  0.00    -0.004 A 
ENDBRANCH  14  17
ENDBRANCH  13  14
ENDBRANCH   3  13
TORSDOF 5
ENDMDL
ENDMDL
