MODEL 3073
MODEL 1
REMARK VINA RESULT:    -6.328      0.000      0.000
REMARK INTER + INTRA:          -8.075
REMARK INTER:                  -7.438
REMARK INTRA:                  -0.636
REMARK UNBOUND:                -0.636
REMARK  Name = No_3073-gen_results/8p0m/2024-11-27-11-27-31/
REMARK  3 active torsions:
REMARK  status: ('A' for Active; 'I' for Inactive)
REMARK    1  A    between atoms: C_5  and  C_7
REMARK    2  A    between atoms: C_13  and  C_17
REMARK    3  A    between atoms: C_17  and  C_18
REMARK                            x       y       z     vdW  Elec       q    Type
REMARK                         _______ _______ _______ _____ _____    ______ ____
ROOT
ATOM      1  C   UNL A   1     -23.907  -0.367  30.955  0.00  0.00    +0.096 C 
ATOM      2  N   UNL A   1     -24.305  -1.127  30.134  0.00  0.00    -0.302 N 
ATOM      3  C   UNL A   1     -25.064  -2.091  30.372  0.00  0.00    +0.057 C 
ATOM      4  C   UNL A   1     -25.600  -2.875  29.191  0.00  0.00    -0.008 C 
ATOM      5  C   UNL A   1     -24.500  -0.697  28.731  0.00  0.00    +0.096 C 
ATOM      6  C   UNL A   1     -23.746   0.525  28.354  0.00  0.00    -0.030 C 
ATOM      7  C   UNL A   1     -23.884   1.012  27.192  0.00  0.00    -0.028 C 
ATOM      8  C   UNL A   1     -24.955  -1.780  28.153  0.00  0.00    +0.051 C 
ATOM      9  C   UNL A   1     -23.080   1.342  29.345  0.00  0.00    +0.025 C 
ATOM     10  C   UNL A   1     -23.619   1.165  30.740  0.00  0.00    +0.029 C 
ENDROOT
BRANCH   1  15
ATOM     11  C   UNL A   1     -25.560   0.283  32.716  0.00  0.00    -0.003 A 
ATOM     12  C   UNL A   1     -25.891   0.276  33.879  0.00  0.00    -0.000 A 
ATOM     13  C   UNL A   1     -25.349  -0.385  34.861  0.00  0.00    -0.000 A 
ATOM     14  C   UNL A   1     -24.233  -1.226  34.568  0.00  0.00    -0.000 A 
ATOM     15  C   UNL A   1     -24.363  -0.457  32.363  0.00  0.00    -0.004 A 
ATOM     16  C   UNL A   1     -23.757  -1.178  33.306  0.00  0.00    -0.003 A 
ENDBRANCH   1  15
BRANCH   7  17
ATOM     17  C   UNL A   1     -24.703   0.821  26.359  0.00  0.00    +0.051 C 
BRANCH  17  18
ATOM     18  C   UNL A   1     -24.549   0.305  24.997  0.00  0.00    -0.026 C 
ATOM     19  C   UNL A   1     -25.706  -0.071  24.443  0.00  0.00    -0.030 C 
ATOM     20  C   UNL A   1     -26.926   0.055  25.037  0.00  0.00    +0.030 C 
ENDBRANCH  17  18
ENDBRANCH   7  17
TORSDOF 3
ENDMDL
ENDMDL
