REMARK  Name = outputs/IAG933/test6/raw/output_3073_IAG933_linker_design_.xyz
REMARK  11 active torsions:
REMARK  status: ('A' for Active; 'I' for Inactive)
REMARK    1  A    between atoms: C_1  and  C_2
REMARK    2  A    between atoms: C_1  and  C_8
REMARK    3  A    between atoms: C_1  and  C_39
REMARK    4  A    between atoms: C_13  and  C_29
REMARK    5  A    between atoms: C_14  and  C_15
REMARK    6  A    between atoms: C_21  and  O_22
REMARK    7  A    between atoms: O_22  and  C_23
REMARK    8  A    between atoms: C_23  and  C_24
REMARK    9  A    between atoms: C_28  and  C_39
REMARK   10  A    between atoms: O_33  and  C_39
REMARK   11  A    between atoms: O_34  and  C_42
REMARK                            x       y       z     vdW  Elec       q    Type
REMARK                         _______ _______ _______ _____ _____    ______ ____
ROOT
ATOM      1  C   UNL A   1     -24.346   0.647  28.355  0.00  0.00    +0.080 C 
ATOM      2  C   UNL A   1     -24.420   1.349  27.165  0.00  0.00    +0.021 C 
ATOM      3  O   UNL A   1     -22.592  -0.786  29.326  0.00  0.00    -0.356 OA
ATOM      4  C   UNL A   1     -21.254  -0.923  28.777  0.00  0.00    +0.142 C 
ATOM      5  C   UNL A   1     -21.939   1.190  28.476  0.00  0.00    +0.070 C 
ATOM      6  F   UNL A   1     -20.581   1.275  26.946  0.00  0.00    -0.229 F 
ATOM      7  C   UNL A   1     -20.912   0.428  28.439  0.00  0.00    +0.038 C 
ATOM      8  C   UNL A   1     -22.014   1.540  27.265  0.00  0.00    +0.223 C 
ATOM      9  C   UNL A   1     -23.063   0.394  28.819  0.00  0.00    +0.125 C 
ATOM     10  C   UNL A   1     -23.232   1.762  26.639  0.00  0.00    +0.192 C 
ENDROOT
BRANCH   2  11
ATOM     11  C   UNL A   1     -25.688   1.614  26.461  0.00  0.00    +0.037 C 
ATOM     12  C   UNL A   1     -26.250   2.920  26.395  0.00  0.00    +0.076 C 
ATOM     13  C   UNL A   1     -27.438   3.091  25.645  0.00  0.00    +0.107 C 
ATOM     14  N   UNL A   1     -28.075   2.089  25.003  0.00  0.00    -0.208 NA
ATOM     15  C   UNL A   1     -27.543   0.849  25.079  0.00  0.00    +0.253 C 
ATOM     16  C   UNL A   1     -26.354   0.576  25.777  0.00  0.00    +0.193 C 
ATOM     17  F   UNL A   1     -25.860  -0.681  25.795  0.00  0.00    -0.199 F 
BRANCH  12  18
ATOM     18  C   UNL A   1     -25.642   4.093  27.123  0.00  0.00    +0.266 C 
ATOM     19  N   UNL A   1     -25.614   5.252  26.449  0.00  0.00    -0.200 NA
ATOM     20  C   UNL A   1     -25.026   6.479  26.963  0.00  0.00    +0.139 C 
ATOM     21  O   UNL A   1     -25.143   3.966  28.243  0.00  0.00    -0.268 OA
ENDBRANCH  12  18
BRANCH  15  22
ATOM     22  O   UNL A   1     -28.193  -0.208  24.477  0.00  0.00    -0.456 OA
BRANCH  22  23
ATOM     23  C   UNL A   1     -29.460   0.005  23.866  0.00  0.00    +0.243 C 
BRANCH  23  24
ATOM     24  C   UNL A   1     -30.065  -1.377  23.573  0.00  0.00    +0.229 C 
ATOM     25  O   UNL A   1     -30.729  -1.878  24.721  0.00  0.00    -0.216 OA
ENDBRANCH  23  24
ENDBRANCH  22  23
ENDBRANCH  15  22
ENDBRANCH   2  11
BRANCH  10  26
ATOM     26  O   UNL A   1     -23.224   2.302  25.330  0.00  0.00    -0.305 OA
ATOM     27  O   UNL A   1     -21.910   2.383  24.710  0.00  0.00    +0.028 OA
ENDBRANCH  10  26
BRANCH   1  28
ATOM     28  C   UNL A   1     -25.307  -0.216  28.951  0.00  0.00    +0.127 C 
BRANCH  28  29
ATOM     29  O   UNL A   1     -26.618  -0.220  28.546  0.00  0.00    -0.353 OA
ATOM     30  C   UNL A   1     -27.589   0.696  29.005  0.00  0.00    +0.174 C 
ENDBRANCH  28  29
BRANCH  28  31
ATOM     31  C   UNL A   1     -24.855  -1.012  30.143  0.00  0.00    +0.066 C 
BRANCH  31  32
ATOM     32  C   UNL A   1     -24.973  -2.505  29.788  0.00  0.00    -0.019 C 
ATOM     33  C   UNL A   1     -23.906  -3.173  29.146  0.00  0.00    -0.004 C 
ATOM     34  C   UNL A   1     -23.989  -4.549  28.853  0.00  0.00    -0.000 C 
ATOM     35  C   UNL A   1     -25.137  -5.280  29.205  0.00  0.00    -0.000 C 
ATOM     36  C   UNL A   1     -26.232  -4.611  29.784  0.00  0.00    -0.000 C 
ATOM     37  C   UNL A   1     -26.155  -3.232  30.065  0.00  0.00    -0.004 C 
ENDBRANCH  31  32
BRANCH  31  38
ATOM     38  C   UNL A   1     -25.387  -0.679  31.571  0.00  0.00    +0.079 C 
ATOM     39  C   UNL A   1     -25.189   0.773  32.028  0.00  0.00    +0.019 C 
ATOM     40  C   UNL A   1     -25.336   0.684  33.544  0.00  0.00    +0.020 C 
ATOM     41  C   UNL A   1     -24.829  -0.715  33.905  0.00  0.00    +0.089 C 
ATOM     42  N   UNL A   1     -24.758  -1.481  32.646  0.00  0.00    -0.219 NA
ENDBRANCH  31  38
ENDBRANCH  28  31
ENDBRANCH   1  28
TORSDOF 11
