REMARK  Name = outputs/IAG933/test6/raw/output_3074_IAG933_linker_design_.xyz
REMARK  13 active torsions:
REMARK  status: ('A' for Active; 'I' for Inactive)
REMARK    1  A    between atoms: C_1  and  C_2
REMARK    2  A    between atoms: C_1  and  C_8
REMARK    3  A    between atoms: C_1  and  C_29
REMARK    4  A    between atoms: C_13  and  C_30
REMARK    5  A    between atoms: C_14  and  C_15
REMARK    6  A    between atoms: C_21  and  O_22
REMARK    7  A    between atoms: O_22  and  C_23
REMARK    8  A    between atoms: C_23  and  C_24
REMARK    9  A    between atoms: C_29  and  N_42
REMARK   10  A    between atoms: C_29  and  C_43
REMARK   11  A    between atoms: C_32  and  C_43
REMARK   12  A    between atoms: C_33  and  C_35
REMARK   13  A    between atoms: C_35  and  C_39
REMARK                            x       y       z     vdW  Elec       q    Type
REMARK                         _______ _______ _______ _____ _____    ______ ____
ROOT
ATOM      1  C   UNL A   1     -23.497   1.880  25.518  0.00  0.00    +0.050 C 
ATOM      2  C   UNL A   1     -24.151   1.490  26.701  0.00  0.00    -0.011 C 
ATOM      3  F   UNL A   1     -21.647   2.628  24.546  0.00  0.00    -0.183 F 
ATOM      4  C   UNL A   1     -23.258   1.102  27.828  0.00  0.00    +0.043 C 
ATOM      5  C   UNL A   1     -22.209   2.100  25.619  0.00  0.00    +0.351 C 
ATOM      6  O   UNL A   1     -21.359   1.862  26.603  0.00  0.00    -0.443 OA
ATOM      7  C   UNL A   1     -21.859   1.491  27.746  0.00  0.00    +0.173 C 
ENDROOT
BRANCH   2   8
ATOM      8  C   UNL A   1     -25.688   1.614  26.461  0.00  0.00    +0.092 C 
ATOM      9  C   UNL A   1     -26.250   2.920  26.395  0.00  0.00    +0.059 C 
ATOM     10  C   UNL A   1     -27.438   3.091  25.645  0.00  0.00    +0.102 C 
ATOM     11  N   UNL A   1     -28.075   2.089  25.003  0.00  0.00    -0.212 NA
ATOM     12  C   UNL A   1     -27.543   0.849  25.079  0.00  0.00    +0.234 C 
ATOM     13  C   UNL A   1     -26.354   0.576  25.777  0.00  0.00    +0.244 C 
ATOM     14  F   UNL A   1     -25.860  -0.681  25.795  0.00  0.00    -0.227 F 
BRANCH   9  15
ATOM     15  C   UNL A   1     -25.642   4.093  27.123  0.00  0.00    +0.263 C 
ATOM     16  N   UNL A   1     -25.614   5.252  26.449  0.00  0.00    -0.200 NA
ATOM     17  C   UNL A   1     -25.026   6.479  26.963  0.00  0.00    +0.139 C 
ATOM     18  O   UNL A   1     -25.143   3.966  28.243  0.00  0.00    -0.269 OA
ENDBRANCH   9  15
BRANCH  12  19
ATOM     19  O   UNL A   1     -28.193  -0.208  24.477  0.00  0.00    -0.459 OA
BRANCH  19  20
ATOM     20  C   UNL A   1     -29.460   0.005  23.866  0.00  0.00    +0.242 C 
BRANCH  20  21
ATOM     21  C   UNL A   1     -30.065  -1.377  23.573  0.00  0.00    +0.229 C 
ATOM     22  O   UNL A   1     -30.729  -1.878  24.721  0.00  0.00    -0.216 OA
ENDBRANCH  20  21
ENDBRANCH  19  20
ENDBRANCH  12  19
ENDBRANCH   2   8
BRANCH   4  23
ATOM     23  C   UNL A   1     -23.549   0.450  28.842  0.00  0.00    +0.197 C 
ATOM     24  O   UNL A   1     -22.709   0.006  29.748  0.00  0.00    -0.216 OA
BRANCH  23  25
ATOM     25  C   UNL A   1     -25.071   0.078  29.105  0.00  0.00    +0.135 C 
BRANCH  25  28
ATOM     26  C   UNL A   1     -27.104   1.373  29.452  0.00  0.00    +0.244 C 
ATOM     27  O   UNL A   1     -27.773   0.380  29.257  0.00  0.00    -0.273 OA
ATOM     28  N   UNL A   1     -25.721   1.459  29.195  0.00  0.00    -0.204 NA
BRANCH  26  29
ATOM     29  C   UNL A   1     -27.674   2.807  29.894  0.00  0.00    +0.119 C 
BRANCH  29  32
ATOM     30  O   UNL A   1     -25.412   4.439  30.501  0.00  0.00    -0.351 OA
ATOM     31  C   UNL A   1     -26.183   3.706  31.713  0.00  0.00    +0.172 C 
ATOM     32  C   UNL A   1     -26.762   4.226  30.361  0.00  0.00    +0.154 C 
ENDBRANCH  29  32
ENDBRANCH  26  29
ENDBRANCH  25  28
BRANCH  25  33
ATOM     33  C   UNL A   1     -24.855  -1.012  30.143  0.00  0.00    +0.061 C 
BRANCH  33  34
ATOM     34  C   UNL A   1     -24.973  -2.505  29.788  0.00  0.00    -0.019 C 
ATOM     35  C   UNL A   1     -23.906  -3.173  29.146  0.00  0.00    -0.004 C 
ATOM     36  C   UNL A   1     -23.989  -4.549  28.853  0.00  0.00    -0.000 C 
ATOM     37  C   UNL A   1     -25.137  -5.280  29.205  0.00  0.00    -0.000 C 
ATOM     38  C   UNL A   1     -26.232  -4.611  29.784  0.00  0.00    -0.000 C 
ATOM     39  C   UNL A   1     -26.155  -3.232  30.065  0.00  0.00    -0.004 C 
ENDBRANCH  33  34
BRANCH  33  40
ATOM     40  C   UNL A   1     -25.387  -0.679  31.571  0.00  0.00    +0.079 C 
ATOM     41  C   UNL A   1     -25.189   0.773  32.028  0.00  0.00    +0.019 C 
ATOM     42  C   UNL A   1     -25.336   0.684  33.544  0.00  0.00    +0.020 C 
ATOM     43  C   UNL A   1     -24.829  -0.715  33.905  0.00  0.00    +0.089 C 
ATOM     44  N   UNL A   1     -24.758  -1.481  32.646  0.00  0.00    -0.219 NA
ENDBRANCH  33  40
ENDBRANCH  25  33
ENDBRANCH  23  25
ENDBRANCH   4  23
TORSDOF 13
