MODEL 3074
MODEL 1
REMARK VINA RESULT:    -6.937      0.000      0.000
REMARK INTER + INTRA:          -9.386
REMARK INTER:                  -8.559
REMARK INTRA:                  -0.827
REMARK UNBOUND:                -0.827
REMARK  Name = No_3074-gen_results/8p0m/2024-11-27-11-27-31/
REMARK  4 active torsions:
REMARK  status: ('A' for Active; 'I' for Inactive)
REMARK    1  A    between atoms: C_3  and  C_7
REMARK    2  A    between atoms: C_6  and  C_12
REMARK    3  A    between atoms: C_13  and  C_14
REMARK    4  A    between atoms: C_19  and  O_20
REMARK                            x       y       z     vdW  Elec       q    Type
REMARK                         _______ _______ _______ _____ _____    ______ ____
ROOT
ATOM      1  C   UNL A   1     -13.730   2.518  35.628  0.00  0.00    +0.015 A 
ATOM      2  C   UNL A   1     -13.380   2.753  36.594  0.00  0.00    +0.058 A 
ATOM      3  C   UNL A   1     -12.765   1.770  34.822  0.00  0.00    +0.072 A 
ATOM      4  C   UNL A   1     -11.535   1.403  35.309  0.00  0.00    +0.004 A 
ATOM      5  C   UNL A   1     -12.162   2.499  37.363  0.00  0.00    +0.011 A 
ATOM      6  C   UNL A   1     -11.221   1.775  36.591  0.00  0.00    +0.001 A 
ATOM      7 CL   UNL A   1     -14.686   3.566  37.606  0.00  0.00    -0.082 Cl
ENDROOT
BRANCH   3   8
ATOM      8  C   UNL A   1     -13.099   1.305  33.441  0.00  0.00    +0.419 C 
ATOM      9  F   UNL A   1     -13.679   0.359  33.408  0.00  0.00    -0.166 F 
ATOM     10  F   UNL A   1     -11.933   1.078  32.694  0.00  0.00    -0.166 F 
ATOM     11  F   UNL A   1     -13.716   2.340  32.736  0.00  0.00    -0.166 F 
ENDBRANCH   3   8
BRANCH   6  12
ATOM     12  C   UNL A   1      -9.880   1.454  37.187  0.00  0.00    +0.000 C 
ATOM     13  C   UNL A   1      -9.705   0.432  37.919  0.00  0.00    +0.003 C 
BRANCH  13  14
ATOM     14  C   UNL A   1     -10.694  -0.522  38.196  0.00  0.00    +0.034 A 
ATOM     15  C   UNL A   1     -10.950  -1.593  37.280  0.00  0.00    +0.003 A 
ATOM     16  C   UNL A   1     -11.842  -2.630  37.662  0.00  0.00    +0.000 A 
ATOM     17  C   UNL A   1     -12.345  -2.665  38.980  0.00  0.00    +0.003 A 
ATOM     18  C   UNL A   1     -12.053  -1.627  39.819  0.00  0.00    +0.037 A 
ATOM     19  C   UNL A   1     -11.178  -0.630  39.441  0.00  0.00    +0.139 A 
BRANCH  19  20
ATOM     20  O   UNL A   1     -11.983   0.402  39.734  0.00  0.00    -0.471 OA
ATOM     21  C   UNL A   1     -12.477   0.538  41.068  0.00  0.00    +0.253 C 
ENDBRANCH  19  20
ENDBRANCH  13  14
ENDBRANCH   6  12
TORSDOF 4
ENDMDL
ENDMDL
