MODEL 3075
MODEL 1
REMARK VINA RESULT:    -6.615      0.000      0.000
REMARK INTER + INTRA:          -7.827
REMARK INTER:                  -7.389
REMARK INTRA:                  -0.438
REMARK UNBOUND:                -0.438
REMARK  Name = No_3075-gen_results/8p0m/2024-11-27-11-27-31/
REMARK  2 active torsions:
REMARK  status: ('A' for Active; 'I' for Inactive)
REMARK    1  A    between atoms: C_2  and  C_3
REMARK    2  A    between atoms: C_3  and  C_4
REMARK                            x       y       z     vdW  Elec       q    Type
REMARK                         _______ _______ _______ _____ _____    ______ ____
ROOT
ATOM      1  C   UNL A   1     -24.642  -1.170  29.276  0.00  0.00    +0.053 C 
ENDROOT
BRANCH   1   3
ATOM      2  C   UNL A   1     -23.779  -3.245  28.766  0.00  0.00    -0.004 A 
ATOM      3  C   UNL A   1     -24.707  -2.541  29.092  0.00  0.00    -0.018 A 
ATOM      4  C   UNL A   1     -24.042  -4.686  28.526  0.00  0.00    -0.000 A 
ATOM      5  C   UNL A   1     -25.193  -5.268  29.040  0.00  0.00    -0.000 A 
ATOM      6  C   UNL A   1     -26.165  -4.513  29.652  0.00  0.00    -0.000 A 
ATOM      7  C   UNL A   1     -25.992  -3.148  29.720  0.00  0.00    -0.004 A 
ENDBRANCH   1   3
BRANCH   1   8
ATOM      8  C   UNL A   1     -24.147  -0.204  28.325  0.00  0.00    -0.018 A 
ATOM      9  C   UNL A   1     -24.714   0.079  27.107  0.00  0.00    -0.004 A 
ATOM     10  C   UNL A   1     -24.191   1.156  26.374  0.00  0.00    -0.000 A 
ATOM     11  C   UNL A   1     -22.970   1.774  26.738  0.00  0.00    -0.000 A 
ATOM     12  C   UNL A   1     -22.374   1.417  27.897  0.00  0.00    -0.000 A 
ATOM     13  C   UNL A   1     -22.878   0.422  28.711  0.00  0.00    -0.004 A 
ENDBRANCH   1   8
TORSDOF 2
ENDMDL
ENDMDL
