MODEL 3076
MODEL 1
REMARK VINA RESULT:    -6.603      0.000      0.000
REMARK INTER + INTRA:          -7.346
REMARK INTER:                  -6.989
REMARK INTRA:                  -0.357
REMARK UNBOUND:                -0.357
REMARK  Name = No_3076-gen_results/8p0m/2024-11-27-11-27-31/
REMARK  1 active torsions:
REMARK  status: ('A' for Active; 'I' for Inactive)
REMARK    1  A    between atoms: C_5  and  C_10
REMARK                            x       y       z     vdW  Elec       q    Type
REMARK                         _______ _______ _______ _____ _____    ______ ____
ROOT
ATOM      1  C   UNL A   1     -23.056   0.600  28.216  0.00  0.00    +0.023 A 
ATOM      2  C   UNL A   1     -23.338  -0.309  28.668  0.00  0.00    +0.058 A 
ATOM      3  C   UNL A   1     -23.804   0.956  26.951  0.00  0.00    +0.065 A 
ATOM      4  C   UNL A   1     -24.895   0.158  26.545  0.00  0.00    +0.045 A 
ATOM      5  C   UNL A   1     -24.434  -1.285  28.474  0.00  0.00    +0.033 A 
ATOM      6  C   UNL A   1     -25.149  -0.986  27.323  0.00  0.00    +0.008 A 
ATOM      7 BR   UNL A   1     -25.829   0.525  25.019  0.00  0.00    -0.048 Br
ATOM      8 CL   UNL A   1     -22.425  -0.744  30.230  0.00  0.00    -0.082 Cl
ATOM      9 CL   UNL A   1     -23.453   2.343  25.994  0.00  0.00    -0.082 Cl
ENDROOT
BRANCH   5  10
ATOM     10  C   UNL A   1     -24.765  -2.489  29.254  0.00  0.00    +0.211 C 
ATOM     11  O   UNL A   1     -25.885  -2.574  29.725  0.00  0.00    -0.467 OA
ATOM     12  C   UNL A   1     -26.442  -3.787  29.980  0.00  0.00    +0.173 C 
ATOM     13  C   UNL A   1     -25.961  -4.717  29.469  0.00  0.00    +0.040 C 
ATOM     14  C   UNL A   1     -24.593  -4.733  28.902  0.00  0.00    +0.003 C 
ATOM     15  C   UNL A   1     -23.946  -3.596  28.887  0.00  0.00    +0.021 C 
ENDBRANCH   5  10
TORSDOF 1
ENDMDL
ENDMDL
