REMARK  Name = outputs/IAG933/test6/raw/output_3076_IAG933_linker_design_.xyz
REMARK  10 active torsions:
REMARK  status: ('A' for Active; 'I' for Inactive)
REMARK    1  A    between atoms: C_1  and  C_2
REMARK    2  A    between atoms: C_1  and  C_8
REMARK    3  A    between atoms: C_1  and  C_39
REMARK    4  A    between atoms: C_9  and  C_32
REMARK    5  A    between atoms: C_13  and  C_41
REMARK    6  A    between atoms: C_14  and  C_15
REMARK    7  A    between atoms: C_21  and  O_22
REMARK    8  A    between atoms: O_22  and  C_23
REMARK    9  A    between atoms: C_23  and  C_24
REMARK   10  A    between atoms: C_32  and  O_38
REMARK                            x       y       z     vdW  Elec       q    Type
REMARK                         _______ _______ _______ _____ _____    ______ ____
ROOT
ATOM      1  F   UNL A   1     -20.676   0.359  28.184  0.00  0.00    -0.186 F 
ATOM      2  N   UNL A   1     -23.617   1.650  27.225  0.00  0.00    -0.239 N 
ATOM      3  C   UNL A   1     -22.745   1.688  28.315  0.00  0.00    +0.186 C 
ATOM      4  C   UNL A   1     -23.097   0.394  29.042  0.00  0.00    +0.188 C 
ATOM      5  O   UNL A   1     -21.544   1.560  26.210  0.00  0.00    -0.404 OA
ATOM      6  F   UNL A   1     -22.725   0.315  30.180  0.00  0.00    -0.235 F 
ATOM      7  C   UNL A   1     -22.972   1.557  25.954  0.00  0.00    +0.407 C 
ATOM      8  C   UNL A   1     -21.423   1.413  27.723  0.00  0.00    +0.351 C 
ATOM      9  C   UNL A   1     -24.628   0.014  28.881  0.00  0.00    +0.059 C 
ATOM     10  C   UNL A   1     -24.921   1.117  27.702  0.00  0.00    +0.089 C 
ATOM     11  O   UNL A   1     -23.508   1.433  24.879  0.00  0.00    -0.226 OA
ENDROOT
BRANCH  10  12
ATOM     12  C   UNL A   1     -25.688   1.614  26.461  0.00  0.00    +0.088 C 
ATOM     13  C   UNL A   1     -26.250   2.920  26.395  0.00  0.00    +0.056 C 
ATOM     14  C   UNL A   1     -27.438   3.091  25.645  0.00  0.00    +0.102 C 
ATOM     15  N   UNL A   1     -28.075   2.089  25.003  0.00  0.00    -0.212 NA
ATOM     16  C   UNL A   1     -27.543   0.849  25.079  0.00  0.00    +0.234 C 
ATOM     17  C   UNL A   1     -26.354   0.576  25.777  0.00  0.00    +0.242 C 
ATOM     18  F   UNL A   1     -25.860  -0.681  25.795  0.00  0.00    -0.227 F 
BRANCH  13  19
ATOM     19  C   UNL A   1     -25.642   4.093  27.123  0.00  0.00    +0.263 C 
ATOM     20  N   UNL A   1     -25.614   5.252  26.449  0.00  0.00    -0.200 NA
ATOM     21  C   UNL A   1     -25.026   6.479  26.963  0.00  0.00    +0.139 C 
ATOM     22  O   UNL A   1     -25.143   3.966  28.243  0.00  0.00    -0.269 OA
ENDBRANCH  13  19
BRANCH  16  23
ATOM     23  O   UNL A   1     -28.193  -0.208  24.477  0.00  0.00    -0.459 OA
BRANCH  23  24
ATOM     24  C   UNL A   1     -29.460   0.005  23.866  0.00  0.00    +0.242 C 
BRANCH  24  25
ATOM     25  C   UNL A   1     -30.065  -1.377  23.573  0.00  0.00    +0.229 C 
ATOM     26  O   UNL A   1     -30.729  -1.878  24.721  0.00  0.00    -0.216 OA
ENDBRANCH  24  25
ENDBRANCH  23  24
ENDBRANCH  16  23
ENDBRANCH  10  12
BRANCH   9  27
ATOM     27  C   UNL A   1     -24.855  -1.012  30.143  0.00  0.00    +0.043 C 
BRANCH  27  28
ATOM     28  C   UNL A   1     -24.973  -2.505  29.788  0.00  0.00    -0.021 C 
ATOM     29  C   UNL A   1     -23.906  -3.173  29.146  0.00  0.00    -0.004 C 
ATOM     30  C   UNL A   1     -23.989  -4.549  28.853  0.00  0.00    -0.000 C 
ATOM     31  C   UNL A   1     -25.137  -5.280  29.205  0.00  0.00    -0.000 C 
ATOM     32  C   UNL A   1     -26.232  -4.611  29.784  0.00  0.00    -0.000 C 
ATOM     33  C   UNL A   1     -26.155  -3.232  30.065  0.00  0.00    -0.004 C 
ENDBRANCH  27  28
BRANCH  27  34
ATOM     34  C   UNL A   1     -25.387  -0.679  31.571  0.00  0.00    +0.087 C 
ATOM     35  C   UNL A   1     -25.189   0.773  32.028  0.00  0.00    +0.117 C 
ATOM     36  C   UNL A   1     -25.336   0.684  33.544  0.00  0.00    +0.031 C 
ATOM     37  C   UNL A   1     -24.829  -0.715  33.905  0.00  0.00    +0.089 C 
ATOM     38  N   UNL A   1     -24.758  -1.481  32.646  0.00  0.00    -0.219 NA
BRANCH  35  39
ATOM     39  C   UNL A   1     -26.178   1.726  31.352  0.00  0.00    +0.318 C 
ATOM     40  O   UNL A   1     -26.749   2.568  32.005  0.00  0.00    -0.250 OA
BRANCH  39  42
ATOM     41  C   UNL A   1     -27.804   1.149  29.676  0.00  0.00    +0.256 C 
ATOM     42  O   UNL A   1     -26.442   1.558  30.030  0.00  0.00    -0.444 OA
ENDBRANCH  39  42
ENDBRANCH  35  39
ENDBRANCH  27  34
ENDBRANCH   9  27
TORSDOF 10
