MODEL 3077
MODEL 1
REMARK VINA RESULT:    -6.542      0.000      0.000
REMARK INTER + INTRA:          -6.542
REMARK INTER:                  -6.542
REMARK INTRA:                   0.000
REMARK UNBOUND:                 0.000
REMARK  Name = No_3077-gen_results/8p0m/2024-11-27-11-27-31/
REMARK  0 active torsions:
REMARK  status: ('A' for Active; 'I' for Inactive)
REMARK                            x       y       z     vdW  Elec       q    Type
REMARK                         _______ _______ _______ _____ _____    ______ ____
ROOT
ATOM      1  C   UNL A   1     -30.879  -9.703  28.980  0.00  0.00    +0.033 A 
ATOM      2  C   UNL A   1     -30.353  -9.920  30.047  0.00  0.00    +0.037 A 
ATOM      3  C   UNL A   1     -29.411 -10.933  30.190  0.00  0.00    +0.003 A 
ATOM      4  C   UNL A   1     -29.067 -11.786  29.082  0.00  0.00    +0.002 A 
ATOM      5  C   UNL A   1     -29.740 -11.481  27.892  0.00  0.00    +0.030 A 
ATOM      6  C   UNL A   1     -30.635 -10.523  27.813  0.00  0.00    +0.140 A 
ATOM      7  F   UNL A   1     -31.229 -10.295  26.657  0.00  0.00    -0.204 F 
ATOM      8  C   UNL A   1     -28.690 -11.291  31.467  0.00  0.00    -0.004 A 
ATOM      9  C   UNL A   1     -27.769 -12.190  31.555  0.00  0.00    -0.000 A 
ATOM     10  C   UNL A   1     -27.058 -12.416  32.805  0.00  0.00    -0.000 A 
ATOM     11  C   UNL A   1     -27.193 -11.464  33.834  0.00  0.00    -0.000 A 
ATOM     12  C   UNL A   1     -29.070 -10.495  32.647  0.00  0.00    -0.015 A 
ATOM     13  C   UNL A   1     -30.011  -9.496  32.585  0.00  0.00    +0.084 C 
ATOM     14  C   UNL A   1     -28.263 -10.629  33.842  0.00  0.00    -0.004 A 
ATOM     15  C   UNL A   1     -30.647  -9.162  31.293  0.00  0.00    +0.177 C 
ATOM     16  O   UNL A   1     -31.512  -8.218  31.209  0.00  0.00    -0.291 OA
ATOM     17  C   UNL A   1     -30.390  -8.719  33.741  0.00  0.00    +0.013 C 
ENDROOT
TORSDOF 0
ENDMDL
ENDMDL
