MODEL 3078
MODEL 1
REMARK VINA RESULT:    -7.130      0.000      0.000
REMARK INTER + INTRA:          -7.685
REMARK INTER:                  -7.547
REMARK INTRA:                  -0.138
REMARK UNBOUND:                -0.138
REMARK  Name = No_3078-gen_results/8p0m/2024-11-27-11-27-31/
REMARK  1 active torsions:
REMARK  status: ('A' for Active; 'I' for Inactive)
REMARK    1  A    between atoms: C_5  and  C_10
REMARK                            x       y       z     vdW  Elec       q    Type
REMARK                         _______ _______ _______ _____ _____    ______ ____
ROOT
ATOM      1  C   UNL A   1     -22.266  -0.456  30.010  0.00  0.00    +0.099 C 
ATOM      2  C   UNL A   1     -22.547   0.178  29.019  0.00  0.00    -0.007 A 
ATOM      3  C   UNL A   1     -23.730   0.415  28.531  0.00  0.00    +0.008 A 
ATOM      4  C   UNL A   1     -24.035   1.205  27.312  0.00  0.00    -0.001 A 
ATOM      5  C   UNL A   1     -22.923   1.793  26.646  0.00  0.00    +0.043 A 
ATOM      6  C   UNL A   1     -21.662   1.594  27.219  0.00  0.00    +0.001 A 
ATOM      7  C   UNL A   1     -21.455   0.864  28.344  0.00  0.00    -0.003 A 
ATOM      8  N   UNL A   1     -23.117  -0.492  31.097  0.00  0.00    -0.268 NA
ATOM      9  C   UNL A   1     -22.903  -1.215  32.298  0.00  0.00    +0.072 C 
ATOM     10  C   UNL A   1     -23.817  -1.091  33.317  0.00  0.00    +0.017 C 
ATOM     11  C   UNL A   1     -24.945  -0.324  33.079  0.00  0.00    +0.003 C 
ATOM     12  C   UNL A   1     -25.167   0.408  31.958  0.00  0.00    +0.019 C 
ATOM     13  C   UNL A   1     -24.222   0.343  30.958  0.00  0.00    +0.095 C 
ATOM     14  C   UNL A   1     -24.560   0.820  29.655  0.00  0.00    +0.197 C 
ATOM     15  F   UNL A   1     -25.738   1.374  29.467  0.00  0.00    -0.231 F 
ENDROOT
BRANCH   5  16
ATOM     16  C   UNL A   1     -23.091   2.569  25.456  0.00  0.00    +0.341 C 
ATOM     17  F   UNL A   1     -23.782   3.419  25.442  0.00  0.00    -0.193 F 
ATOM     18  F   UNL A   1     -22.195   2.332  24.550  0.00  0.00    -0.193 F 
ENDBRANCH   5  16
TORSDOF 1
ENDMDL
ENDMDL
