MODEL 3079
MODEL 1
REMARK VINA RESULT:    -4.246      0.000      0.000
REMARK INTER + INTRA:          -4.246
REMARK INTER:                  -4.246
REMARK INTRA:                   0.000
REMARK UNBOUND:                 0.000
REMARK  Name = No_3079-gen_results/8p0m/2024-11-27-11-27-31/
REMARK  0 active torsions:
REMARK  status: ('A' for Active; 'I' for Inactive)
REMARK                            x       y       z     vdW  Elec       q    Type
REMARK                         _______ _______ _______ _____ _____    ______ ____
ROOT
ATOM      1  C   UNL A   1     -24.944  -5.337  28.929  0.00  0.00    +0.000 A 
ATOM      2  C   UNL A   1     -24.140  -4.684  28.733  0.00  0.00    +0.000 A 
ATOM      3  C   UNL A   1     -26.114  -4.755  29.606  0.00  0.00    +0.000 A 
ATOM      4  C   UNL A   1     -26.191  -3.352  29.844  0.00  0.00    +0.000 A 
ATOM      5  C   UNL A   1     -23.991  -3.206  28.823  0.00  0.00    +0.000 A 
ATOM      6  C   UNL A   1     -25.053  -2.632  29.456  0.00  0.00    +0.000 A 
ENDROOT
TORSDOF 0
ENDMDL
ENDMDL
