MODEL 307
MODEL 1
REMARK VINA RESULT:    -5.688      0.000      0.000
REMARK INTER + INTRA:          -8.172
REMARK INTER:                  -7.683
REMARK INTRA:                  -0.489
REMARK UNBOUND:                -0.489
REMARK  Name = No_307-gen_results/8p0m/2024-11-27-11-27-31/
REMARK  6 active torsions:
REMARK  status: ('A' for Active; 'I' for Inactive)
REMARK    1  A    between atoms: C_4  and  C_7
REMARK    2  A    between atoms: C_7  and  C_8
REMARK    3  A    between atoms: C_8  and  C_9
REMARK    4  A    between atoms: C_9  and  N_10
REMARK    5  A    between atoms: N_10  and  C_11
REMARK    6  A    between atoms: C_12  and  C_13
REMARK                            x       y       z     vdW  Elec       q    Type
REMARK                         _______ _______ _______ _____ _____    ______ ____
ROOT
ATOM      1  C   UNL A   1     -24.228  -0.740  28.171  0.00  0.00    +0.028 C 
ENDROOT
BRANCH   1   2
ATOM      2  C   UNL A   1     -23.652  -1.700  29.052  0.00  0.00    +0.028 C 
BRANCH   2   6
ATOM      3  C   UNL A   1     -24.781  -5.377  28.962  0.00  0.00    -0.000 A 
ATOM      4  C   UNL A   1     -25.754  -5.201  29.326  0.00  0.00    -0.000 A 
ATOM      5  C   UNL A   1     -23.925  -4.145  28.775  0.00  0.00    -0.004 A 
ATOM      6  C   UNL A   1     -24.406  -2.895  29.219  0.00  0.00    -0.022 A 
ATOM      7  C   UNL A   1     -26.475  -4.034  29.883  0.00  0.00    -0.000 A 
ATOM      8  C   UNL A   1     -25.715  -2.882  29.735  0.00  0.00    -0.004 A 
ENDBRANCH   2   6
ENDBRANCH   1   2
BRANCH   1   9
ATOM      9  C   UNL A   1     -24.120   0.471  28.113  0.00  0.00    +0.113 C 
BRANCH   9  10
ATOM     10  N   UNL A   1     -23.606   1.040  27.005  0.00  0.00    -0.236 NA
BRANCH  10  11
ATOM     11  C   UNL A   1     -24.174   1.638  26.173  0.00  0.00    +0.081 C 
ATOM     12  C   UNL A   1     -25.401   1.244  25.607  0.00  0.00    +0.062 C 
BRANCH  12  13
ATOM     13  C   UNL A   1     -25.388   0.317  24.757  0.00  0.00    +0.342 C 
ATOM     14  F   UNL A   1     -24.377   0.136  24.131  0.00  0.00    -0.193 F 
ATOM     15  F   UNL A   1     -25.693  -0.881  25.297  0.00  0.00    -0.193 F 
ENDBRANCH  12  13
ENDBRANCH  10  11
ENDBRANCH   9  10
ENDBRANCH   1   9
TORSDOF 6
ENDMDL
ENDMDL
