MODEL 3081
MODEL 1
REMARK VINA RESULT:    -6.967      0.000      0.000
REMARK INTER + INTRA:          -7.430
REMARK INTER:                  -7.374
REMARK INTRA:                  -0.056
REMARK UNBOUND:                -0.056
REMARK  Name = No_3081-gen_results/8p0m/2024-11-27-11-27-31/
REMARK  1 active torsions:
REMARK  status: ('A' for Active; 'I' for Inactive)
REMARK    1  A    between atoms: C_15  and  C_16
REMARK                            x       y       z     vdW  Elec       q    Type
REMARK                         _______ _______ _______ _____ _____    ______ ____
ROOT
ATOM      1  C   UNL A   1     -25.518  -2.573  29.574  0.00  0.00    +0.055 A 
ATOM      2  C   UNL A   1     -24.415  -2.889  29.193  0.00  0.00    -0.004 A 
ATOM      3  C   UNL A   1     -24.096  -4.219  28.943  0.00  0.00    -0.003 A 
ATOM      4  C   UNL A   1     -25.056  -5.268  29.175  0.00  0.00    -0.000 A 
ATOM      5  C   UNL A   1     -26.298  -4.815  29.638  0.00  0.00    +0.001 A 
ATOM      6  C   UNL A   1     -26.545  -3.547  29.874  0.00  0.00    +0.015 A 
ATOM      7  C   UNL A   1     -23.296  -1.946  28.928  0.00  0.00    +0.055 C 
ATOM      8  C   UNL A   1     -23.245  -0.925  28.939  0.00  0.00    -0.004 A 
ATOM      9  C   UNL A   1     -24.504  -0.161  29.355  0.00  0.00    +0.055 A 
ATOM     10  C   UNL A   1     -24.637   1.141  28.976  0.00  0.00    +0.015 A 
ATOM     11  C   UNL A   1     -23.464   1.841  28.548  0.00  0.00    +0.001 A 
ATOM     12  C   UNL A   1     -22.252   1.249  28.239  0.00  0.00    -0.000 A 
ATOM     13  C   UNL A   1     -22.165  -0.052  28.345  0.00  0.00    -0.003 A 
ATOM     14  N   UNL A   1     -25.985  -1.197  29.840  0.00  0.00    -0.231 N 
ATOM     15  C   UNL A   1     -26.826  -0.502  30.461  0.00  0.00    +0.302 C 
ATOM     16  O   UNL A   1     -27.542   0.255  29.832  0.00  0.00    -0.265 OA
ENDROOT
BRANCH  15  17
ATOM     17  C   UNL A   1     -26.652  -0.546  31.813  0.00  0.00    +0.283 C 
ATOM     18 BR   UNL A   1     -25.572  -0.033  32.399  0.00  0.00    +0.002 Br
ATOM     19  O   UNL A   1     -27.643  -1.061  32.597  0.00  0.00    -0.274 OA
ENDBRANCH  15  17
TORSDOF 1
ENDMDL
ENDMDL
