REMARK  Name = outputs/IAG933/test6/raw/output_3083_IAG933_linker_design_.xyz
REMARK  14 active torsions:
REMARK  status: ('A' for Active; 'I' for Inactive)
REMARK    1  A    between atoms: C_1  and  C_2
REMARK    2  A    between atoms: C_1  and  C_8
REMARK    3  A    between atoms: C_9  and  O_28
REMARK    4  A    between atoms: C_13  and  C_30
REMARK    5  A    between atoms: C_14  and  C_15
REMARK    6  A    between atoms: C_21  and  O_22
REMARK    7  A    between atoms: O_22  and  C_23
REMARK    8  A    between atoms: C_23  and  C_24
REMARK    9  A    between atoms: O_28  and  C_35
REMARK   10  A    between atoms: C_29  and  C_32
REMARK   11  A    between atoms: O_31  and  C_32
REMARK   12  A    between atoms: O_31  and  C_35
REMARK   13  A    between atoms: N_34  and  C_35
REMARK   14  A    between atoms: C_36  and  N_38
REMARK                            x       y       z     vdW  Elec       q    Type
REMARK                         _______ _______ _______ _____ _____    ______ ____
ROOT
ATOM      1  C   UNL A   1     -24.363   1.562  26.947  0.00  0.00    -0.009 C 
ATOM      2  C   UNL A   1     -21.945   1.946  26.253  0.00  0.00    -0.001 C 
ATOM      3  C   UNL A   1     -24.094   1.458  28.372  0.00  0.00    +0.166 C 
ATOM      4  C   UNL A   1     -23.284   1.889  25.963  0.00  0.00    -0.006 C 
ATOM      5  C   UNL A   1     -21.511   1.102  28.530  0.00  0.00    -0.002 C 
ATOM      6  C   UNL A   1     -22.865   1.022  28.963  0.00  0.00    +0.004 C 
ATOM      7  C   UNL A   1     -21.121   1.603  27.259  0.00  0.00    -0.000 C 
ENDROOT
BRANCH   1   8
ATOM      8  C   UNL A   1     -25.688   1.614  26.461  0.00  0.00    +0.090 C 
ATOM      9  C   UNL A   1     -26.250   2.920  26.395  0.00  0.00    +0.059 C 
ATOM     10  C   UNL A   1     -27.438   3.091  25.645  0.00  0.00    +0.102 C 
ATOM     11  N   UNL A   1     -28.075   2.089  25.003  0.00  0.00    -0.212 NA
ATOM     12  C   UNL A   1     -27.543   0.849  25.079  0.00  0.00    +0.234 C 
ATOM     13  C   UNL A   1     -26.354   0.576  25.777  0.00  0.00    +0.244 C 
ATOM     14  F   UNL A   1     -25.860  -0.681  25.795  0.00  0.00    -0.227 F 
BRANCH   9  15
ATOM     15  C   UNL A   1     -25.642   4.093  27.123  0.00  0.00    +0.263 C 
ATOM     16  N   UNL A   1     -25.614   5.252  26.449  0.00  0.00    -0.200 NA
ATOM     17  C   UNL A   1     -25.026   6.479  26.963  0.00  0.00    +0.139 C 
ATOM     18  O   UNL A   1     -25.143   3.966  28.243  0.00  0.00    -0.269 OA
ENDBRANCH   9  15
BRANCH  12  19
ATOM     19  O   UNL A   1     -28.193  -0.208  24.477  0.00  0.00    -0.459 OA
BRANCH  19  20
ATOM     20  C   UNL A   1     -29.460   0.005  23.866  0.00  0.00    +0.242 C 
BRANCH  20  21
ATOM     21  C   UNL A   1     -30.065  -1.377  23.573  0.00  0.00    +0.229 C 
ATOM     22  O   UNL A   1     -30.729  -1.878  24.721  0.00  0.00    -0.216 OA
ENDBRANCH  20  21
ENDBRANCH  19  20
ENDBRANCH  12  19
ENDBRANCH   1   8
BRANCH   3  24
ATOM     23  N   UNL A   1     -24.692   2.820  30.350  0.00  0.00    -0.119 NA
ATOM     24  N   UNL A   1     -24.978   1.963  29.267  0.00  0.00    -0.168 NA
BRANCH  23  25
ATOM     25  C   UNL A   1     -25.652   2.916  31.390  0.00  0.00    +0.372 C 
BRANCH  25  26
ATOM     26  O   UNL A   1     -26.136   1.644  31.469  0.00  0.00    -0.311 OA
BRANCH  26  28
ATOM     27  C   UNL A   1     -25.387  -0.679  31.571  0.00  0.00    +0.104 C 
ATOM     28  C   UNL A   1     -25.189   0.773  32.028  0.00  0.00    +0.137 C 
ATOM     29  C   UNL A   1     -25.336   0.684  33.544  0.00  0.00    +0.050 C 
ATOM     30  C   UNL A   1     -24.829  -0.715  33.905  0.00  0.00    +0.091 C 
ATOM     31  N   UNL A   1     -24.758  -1.481  32.646  0.00  0.00    -0.217 NA
BRANCH  27  32
ATOM     32  C   UNL A   1     -24.855  -1.012  30.143  0.00  0.00    +0.046 C 
BRANCH  32  33
ATOM     33  C   UNL A   1     -24.973  -2.505  29.788  0.00  0.00    -0.021 C 
ATOM     34  C   UNL A   1     -23.906  -3.173  29.146  0.00  0.00    -0.004 C 
ATOM     35  C   UNL A   1     -23.989  -4.549  28.853  0.00  0.00    -0.000 C 
ATOM     36  C   UNL A   1     -25.137  -5.280  29.205  0.00  0.00    -0.000 C 
ATOM     37  C   UNL A   1     -26.232  -4.611  29.784  0.00  0.00    -0.000 C 
ATOM     38  C   UNL A   1     -26.155  -3.232  30.065  0.00  0.00    -0.004 C 
ENDBRANCH  32  33
ENDBRANCH  27  32
ENDBRANCH  26  28
ENDBRANCH  25  26
BRANCH  25  39
ATOM     39  O   UNL A   1     -25.516   3.686  32.450  0.00  0.00    -0.309 OA
BRANCH  39  40
ATOM     40  C   UNL A   1     -26.689   4.225  33.101  0.00  0.00    +0.167 C 
BRANCH  40  41
ATOM     41  C   UNL A   1     -26.060   5.121  34.186  0.00  0.00    +0.141 C 
ATOM     42  N   UNL A   1     -24.963   5.910  33.572  0.00  0.00    -0.129 NA
ENDBRANCH  40  41
ENDBRANCH  39  40
ENDBRANCH  25  39
ENDBRANCH  23  25
ENDBRANCH   3  24
TORSDOF 14
