MODEL 3084
MODEL 1
REMARK VINA RESULT:    -5.220      0.000      0.000
REMARK INTER + INTRA:          -6.439
REMARK INTER:                  -6.135
REMARK INTRA:                  -0.304
REMARK UNBOUND:                -0.304
REMARK  Name = No_3084-gen_results/8p0m/2024-11-27-11-27-31/
REMARK  3 active torsions:
REMARK  status: ('A' for Active; 'I' for Inactive)
REMARK    1  A    between atoms: C_2  and  C_3
REMARK    2  A    between atoms: C_2  and  O_4
REMARK    3  A    between atoms: O_4  and  C_10
REMARK                            x       y       z     vdW  Elec       q    Type
REMARK                         _______ _______ _______ _____ _____    ______ ____
ROOT
ATOM      1  C   UNL A   1     -24.187  -2.782  29.322  0.00  0.00    +0.076 A 
ATOM      2  C   UNL A   1     -24.093  -4.086  28.983  0.00  0.00    +0.006 A 
ATOM      3  C   UNL A   1     -25.012  -5.187  29.039  0.00  0.00    +0.000 A 
ATOM      4  C   UNL A   1     -26.342  -4.820  29.552  0.00  0.00    +0.000 A 
ATOM      5  C   UNL A   1     -26.558  -3.490  29.988  0.00  0.00    +0.000 A 
ATOM      6  C   UNL A   1     -25.554  -2.604  29.925  0.00  0.00    +0.006 A 
ENDROOT
BRANCH   1   8
ATOM      7  O   UNL A   1     -22.454  -1.717  28.764  0.00  0.00    -0.245 OA
ATOM      8  C   UNL A   1     -23.443  -1.994  29.286  0.00  0.00    +0.341 C 
BRANCH   8   9
ATOM      9  O   UNL A   1     -23.699  -0.958  30.328  0.00  0.00    -0.445 OA
BRANCH   9  10
ATOM     10  C   UNL A   1     -22.830  -0.359  31.036  0.00  0.00    +0.209 C 
ATOM     11  C   UNL A   1     -22.988  -1.168  32.399  0.00  0.00    +0.051 C 
ENDBRANCH   9  10
ENDBRANCH   8   9
ENDBRANCH   1   8
TORSDOF 3
ENDMDL
ENDMDL
