MODEL 3085
MODEL 1
REMARK VINA RESULT:    -7.112      0.000      0.000
REMARK INTER + INTRA:          -8.369
REMARK INTER:                  -7.944
REMARK INTRA:                  -0.425
REMARK UNBOUND:                -0.425
REMARK  Name = No_3085-gen_results/8p0m/2024-11-27-11-27-31/
REMARK  2 active torsions:
REMARK  status: ('A' for Active; 'I' for Inactive)
REMARK    1  A    between atoms: C_1  and  C_6
REMARK    2  A    between atoms: C_3  and  C_11
REMARK                            x       y       z     vdW  Elec       q    Type
REMARK                         _______ _______ _______ _____ _____    ______ ____
ROOT
ATOM      1  C   UNL A   1     -28.339 -11.486  32.386  0.00  0.00    +0.060 A 
ATOM      2  C   UNL A   1     -28.500 -11.559  31.190  0.00  0.00    +0.005 A 
ATOM      3  C   UNL A   1     -29.366 -10.770  30.452  0.00  0.00    +0.003 A 
ATOM      4  C   UNL A   1     -30.102  -9.776  31.162  0.00  0.00    +0.042 A 
ATOM      5  C   UNL A   1     -29.788  -9.623  32.465  0.00  0.00    +0.196 A 
ATOM      6  C   UNL A   1     -28.916 -10.431  33.046  0.00  0.00    +0.047 A 
ATOM      7  O   UNL A   1     -30.454  -8.640  33.123  0.00  0.00    -0.287 OA
ENDROOT
BRANCH   3   8
ATOM      8  C   UNL A   1     -29.665 -11.018  28.989  0.00  0.00    +0.000 A 
ATOM      9  C   UNL A   1     -30.437 -10.395  28.241  0.00  0.00    +0.000 A 
ATOM     10  C   UNL A   1     -30.590 -10.624  26.819  0.00  0.00    +0.000 A 
ATOM     11  C   UNL A   1     -29.849 -11.663  26.252  0.00  0.00    +0.000 A 
ATOM     12  C   UNL A   1     -28.894 -12.076  28.314  0.00  0.00    +0.000 A 
ATOM     13  C   UNL A   1     -28.968 -12.342  27.041  0.00  0.00    +0.000 A 
ENDBRANCH   3   8
BRANCH   1  14
ATOM     14  C   UNL A   1     -27.361 -12.316  33.034  0.00  0.00    +0.284 C 
ATOM     15  N   UNL A   1     -27.235 -12.292  34.319  0.00  0.00    -0.084 NA
ATOM     16  O   UNL A   1     -26.421 -12.914  32.408  0.00  0.00    -0.267 OA
ENDBRANCH   1  14
TORSDOF 2
ENDMDL
ENDMDL
