MODEL 3086
MODEL 1
REMARK VINA RESULT:    -7.228      0.000      0.000
REMARK INTER + INTRA:         -10.471
REMARK INTER:                  -9.341
REMARK INTRA:                  -1.130
REMARK UNBOUND:                -1.130
REMARK  Name = No_3086-gen_results/8p0m/2024-11-27-11-27-31/
REMARK  5 active torsions:
REMARK  status: ('A' for Active; 'I' for Inactive)
REMARK    1  A    between atoms: C_3  and  O_9
REMARK    2  A    between atoms: C_6  and  C_18
REMARK    3  A    between atoms: O_9  and  C_10
REMARK    4  A    between atoms: C_18  and  C_19
REMARK    5  A    between atoms: C_20  and  C_21
REMARK                            x       y       z     vdW  Elec       q    Type
REMARK                         _______ _______ _______ _____ _____    ______ ____
ROOT
ATOM      1  F   UNL A   1     -26.114  -1.073  24.520  0.00  0.00    -0.201 F 
ATOM      2  C   UNL A   1     -26.239  -0.122  25.145  0.00  0.00    +0.174 A 
ATOM      3  C   UNL A   1     -27.059   0.808  24.663  0.00  0.00    +0.169 A 
ATOM      4  C   UNL A   1     -27.006   2.189  25.032  0.00  0.00    +0.025 A 
ATOM      5  C   UNL A   1     -26.086   2.545  26.109  0.00  0.00    +0.053 A 
ATOM      6  C   UNL A   1     -25.219   1.553  26.555  0.00  0.00    -0.005 A 
ATOM      7  C   UNL A   1     -25.207   0.366  26.053  0.00  0.00    +0.030 A 
ATOM      8 CL   UNL A   1     -26.110   4.129  26.693  0.00  0.00    -0.083 Cl
ATOM      9  C   UNL A   1     -27.963   3.208  24.599  0.00  0.00    +0.035 C 
ENDROOT
BRANCH   3  10
ATOM     10  O   UNL A   1     -27.969   0.593  23.691  0.00  0.00    -0.449 OA
BRANCH  10  11
ATOM     11  C   UNL A   1     -29.086   0.052  24.124  0.00  0.00    +0.173 A 
ATOM     12  C   UNL A   1     -29.346  -1.202  23.637  0.00  0.00    +0.174 A 
ATOM     13  C   UNL A   1     -30.533  -1.908  24.115  0.00  0.00    +0.033 A 
ATOM     14  C   UNL A   1     -31.479  -1.161  24.891  0.00  0.00    +0.003 A 
ATOM     15  C   UNL A   1     -30.088   0.643  24.935  0.00  0.00    +0.040 A 
ATOM     16  C   UNL A   1     -31.207   0.098  25.310  0.00  0.00    +0.003 A 
ATOM     17  F   UNL A   1     -28.549  -1.906  22.935  0.00  0.00    -0.201 F 
ENDBRANCH  10  11
ENDBRANCH   3  10
BRANCH   6  18
ATOM     18  C   UNL A   1     -24.185   2.020  27.600  0.00  0.00    +0.053 C 
BRANCH  18  19
ATOM     19  C   UNL A   1     -22.925   1.665  27.403  0.00  0.00    -0.021 C 
ATOM     20  C   UNL A   1     -22.202   0.561  28.086  0.00  0.00    -0.004 C 
BRANCH  20  21
ATOM     21  C   UNL A   1     -22.908  -0.075  29.085  0.00  0.00    -0.000 A 
ATOM     22  C   UNL A   1     -23.386  -1.362  28.833  0.00  0.00    -0.000 A 
ATOM     23  C   UNL A   1     -23.962  -2.073  29.833  0.00  0.00    -0.000 A 
ATOM     24  C   UNL A   1     -23.990  -1.525  31.153  0.00  0.00    -0.000 A 
ATOM     25  C   UNL A   1     -23.434  -0.276  31.395  0.00  0.00    -0.000 A 
ATOM     26  C   UNL A   1     -22.964   0.478  30.352  0.00  0.00    -0.000 A 
ENDBRANCH  20  21
ENDBRANCH  18  19
ENDBRANCH   6  18
TORSDOF 5
ENDMDL
ENDMDL
