MODEL 3087
MODEL 1
REMARK VINA RESULT:    -7.386      0.000      0.000
REMARK INTER + INTRA:         -10.776
REMARK INTER:                  -9.545
REMARK INTRA:                  -1.232
REMARK UNBOUND:                -1.232
REMARK  Name = No_3087-gen_results/8p0m/2024-11-27-11-27-31/
REMARK  5 active torsions:
REMARK  status: ('A' for Active; 'I' for Inactive)
REMARK    1  A    between atoms: C_3  and  C_7
REMARK    2  A    between atoms: C_7  and  C_9
REMARK    3  A    between atoms: C_9  and  C_10
REMARK    4  A    between atoms: C_12  and  C_17
REMARK    5  A    between atoms: C_17  and  N_18
REMARK                            x       y       z     vdW  Elec       q    Type
REMARK                         _______ _______ _______ _____ _____    ______ ____
ROOT
ATOM      1  C   UNL A   1     -23.509  -0.517  29.036  0.00  0.00    +0.042 C 
ATOM      2  C   UNL A   1     -22.398  -0.206  29.875  0.00  0.00    +0.006 C 
ENDROOT
BRANCH   1   3
ATOM      3  C   UNL A   1     -23.632   0.097  27.925  0.00  0.00    -0.021 A 
ATOM      4  C   UNL A   1     -24.607  -0.163  27.032  0.00  0.00    -0.007 A 
ATOM      5  C   UNL A   1     -24.663   0.725  25.799  0.00  0.00    +0.002 A 
ATOM      6  C   UNL A   1     -23.790   1.758  25.757  0.00  0.00    -0.002 A 
ATOM      7  C   UNL A   1     -22.847   2.098  26.713  0.00  0.00    -0.001 A 
ATOM      8  C   UNL A   1     -22.801   1.324  27.819  0.00  0.00    -0.004 A 
BRANCH   5   9
ATOM      9  C   UNL A   1     -25.630   0.461  24.715  0.00  0.00    +0.151 C 
BRANCH   9  10
ATOM     10  N   UNL A   1     -26.855   0.547  24.843  0.00  0.00    -0.269 NA
ATOM     11  C   UNL A   1     -27.752  -0.036  24.459  0.00  0.00    +0.068 C 
ATOM     12  C   UNL A   1     -29.196   0.215  24.777  0.00  0.00    +0.053 C 
ENDBRANCH   9  10
ENDBRANCH   5   9
ENDBRANCH   1   3
BRANCH   1  13
ATOM     13  C   UNL A   1     -24.547  -1.196  29.711  0.00  0.00    +0.106 C 
ATOM     14 CL   UNL A   1     -25.380  -0.637  30.723  0.00  0.00    -0.110 Cl
BRANCH  13  17
ATOM     15  C   UNL A   1     -23.862  -3.504  28.831  0.00  0.00    -0.003 A 
ATOM     16  C   UNL A   1     -24.119  -4.519  28.713  0.00  0.00    -0.000 A 
ATOM     17  C   UNL A   1     -24.803  -2.653  29.450  0.00  0.00    -0.007 A 
ATOM     18  C   UNL A   1     -26.031  -3.114  29.882  0.00  0.00    -0.003 A 
ATOM     19  C   UNL A   1     -25.342  -5.257  29.083  0.00  0.00    -0.000 A 
ATOM     20  C   UNL A   1     -26.272  -4.479  29.678  0.00  0.00    -0.000 A 
ENDBRANCH  13  17
ENDBRANCH   1  13
TORSDOF 5
ENDMDL
ENDMDL
