MODEL 3088
MODEL 1
REMARK VINA RESULT:    -7.706      0.000      0.000
REMARK INTER + INTRA:          -8.348
REMARK INTER:                  -9.508
REMARK INTRA:                   1.159
REMARK UNBOUND:                 1.159
REMARK  Name = No_3088-gen_results/8p0m/2024-11-27-11-27-31/
REMARK  5 active torsions:
REMARK  status: ('A' for Active; 'I' for Inactive)
REMARK    1  A    between atoms: C_1  and  C_2
REMARK    2  A    between atoms: C_1  and  N_8
REMARK    3  A    between atoms: C_3  and  C_17
REMARK    4  A    between atoms: C_5  and  C_9
REMARK    5  A    between atoms: C_24  and  C_25
REMARK                            x       y       z     vdW  Elec       q    Type
REMARK                         _______ _______ _______ _____ _____    ______ ____
ROOT
ATOM      1  C   UNL A   1     -23.774  -0.589  29.782  0.00  0.00    -0.002 A 
ATOM      2  C   UNL A   1     -23.716   0.701  29.284  0.00  0.00    +0.051 A 
ATOM      3  C   UNL A   1     -24.007   1.912  30.013  0.00  0.00    +0.009 A 
ATOM      4  C   UNL A   1     -24.400   1.808  31.369  0.00  0.00    +0.057 A 
ATOM      5  C   UNL A   1     -24.484   0.511  31.940  0.00  0.00    +0.004 A 
ATOM      6  C   UNL A   1     -24.160  -0.569  31.178  0.00  0.00    -0.003 A 
ENDROOT
BRANCH   2   7
ATOM      7  C   UNL A   1     -23.289   0.923  27.911  0.00  0.00    +0.249 C 
ATOM      8  O   UNL A   1     -22.289   1.330  27.535  0.00  0.00    -0.270 OA
ATOM      9  N   UNL A   1     -24.267   0.817  26.967  0.00  0.00    -0.274 N 
ATOM     10  C   UNL A   1     -24.058   0.934  25.533  0.00  0.00    +0.094 C 
ATOM     11  C   UNL A   1     -24.998   0.307  24.836  0.00  0.00    +0.022 C 
ATOM     12  C   UNL A   1     -26.172  -0.048  25.441  0.00  0.00    +0.004 C 
ATOM     13  C   UNL A   1     -26.439  -0.002  26.811  0.00  0.00    +0.024 C 
ATOM     14  C   UNL A   1     -25.512   0.363  27.545  0.00  0.00    +0.098 C 
BRANCH  14  15
ATOM     15  C   UNL A   1     -26.353   1.786  27.933  0.00  0.00    -0.004 A 
ATOM     16  C   UNL A   1     -26.076   2.878  27.413  0.00  0.00    -0.003 A 
ATOM     17  C   UNL A   1     -26.582   3.964  27.942  0.00  0.00    -0.000 A 
ATOM     18  C   UNL A   1     -27.553   3.953  28.987  0.00  0.00    -0.000 A 
ATOM     19  C   UNL A   1     -27.819   2.741  29.628  0.00  0.00    -0.000 A 
ATOM     20  C   UNL A   1     -27.223   1.643  29.116  0.00  0.00    -0.003 A 
ENDBRANCH  14  15
ENDBRANCH   2   7
BRANCH   4  21
ATOM     21  C   UNL A   1     -24.721   2.965  32.168  0.00  0.00    +0.284 C 
ATOM     22  N   UNL A   1     -25.607   2.817  33.132  0.00  0.00    -0.084 NA
ATOM     23  O   UNL A   1     -23.901   3.970  32.212  0.00  0.00    -0.267 OA
ENDBRANCH   4  21
BRANCH   1  24
ATOM     24  C   UNL A   1     -23.459  -1.585  29.173  0.00  0.00    +0.099 C 
BRANCH  24  25
ATOM     25  N   UNL A   1     -24.264  -2.681  29.222  0.00  0.00    -0.269 NA
ATOM     26  C   UNL A   1     -23.885  -3.991  28.841  0.00  0.00    +0.072 C 
ATOM     27  C   UNL A   1     -24.775  -5.035  29.029  0.00  0.00    +0.017 C 
ATOM     28  C   UNL A   1     -25.636  -2.659  29.639  0.00  0.00    +0.072 C 
ATOM     29  C   UNL A   1     -26.469  -3.657  29.804  0.00  0.00    +0.017 C 
ATOM     30  C   UNL A   1     -26.062  -4.907  29.463  0.00  0.00    +0.003 C 
ENDBRANCH  24  25
ENDBRANCH   1  24
TORSDOF 5
ENDMDL
ENDMDL
