REMARK  Name = No_3089-gen_results/8p0m/2024-11-27-11-27-31/
REMARK  0 active torsions:
REMARK  status: ('A' for Active; 'I' for Inactive)
REMARK                            x       y       z     vdW  Elec       q    Type
REMARK                         _______ _______ _______ _____ _____    ______ ____
ROOT
ATOM      1  C   UNL A   1     -28.016  -0.814  28.878  0.00  0.00    +0.019 A 
ATOM      2  C   UNL A   1     -27.064  -0.119  28.608  0.00  0.00    +0.081 A 
ATOM      3  C   UNL A   1     -26.876   1.133  28.913  0.00  0.00    +0.018 A 
ATOM      4  C   UNL A   1     -27.901   1.807  29.644  0.00  0.00    +0.002 A 
ATOM      5  C   UNL A   1     -28.945   1.039  30.036  0.00  0.00    +0.000 A 
ATOM      6  C   UNL A   1     -29.027  -0.289  29.705  0.00  0.00    +0.002 A 
ATOM      7  C   UNL A   1     -25.696   1.950  28.476  0.00  0.00    +0.003 A 
ATOM      8  C   UNL A   1     -25.089   1.863  27.590  0.00  0.00    +0.018 A 
ATOM      9  C   UNL A   1     -23.880   2.389  27.221  0.00  0.00    +0.002 A 
ATOM     10  C   UNL A   1     -22.622   1.973  27.159  0.00  0.00    +0.011 A 
ATOM     11  C   UNL A   1     -22.325   0.925  28.086  0.00  0.00    +0.059 A 
ATOM     12  C   UNL A   1     -23.184   0.026  28.657  0.00  0.00    +0.030 A 
ATOM     13  C   UNL A   1     -24.494   0.369  28.076  0.00  0.00    +0.082 A 
ATOM     14  N   UNL A   1     -25.742  -0.653  28.073  0.00  0.00    -0.245 NA
ATOM     15 CL   UNL A   1     -20.594   0.547  28.301  0.00  0.00    -0.082 Cl
ENDROOT
TORSDOF 0
