MODEL 308
MODEL 1
REMARK VINA RESULT:    -5.876      0.000      0.000
REMARK INTER + INTRA:          -7.417
REMARK INTER:                  -6.906
REMARK INTRA:                  -0.510
REMARK UNBOUND:                -0.510
REMARK  Name = No_308-gen_results/8p0m/2024-11-27-11-27-31/
REMARK  3 active torsions:
REMARK  status: ('A' for Active; 'I' for Inactive)
REMARK    1  A    between atoms: C_1  and  C_8
REMARK    2  A    between atoms: C_3  and  C_15
REMARK    3  A    between atoms: C_5  and  C_12
REMARK                            x       y       z     vdW  Elec       q    Type
REMARK                         _______ _______ _______ _____ _____    ______ ____
ROOT
ATOM      1  C   UNL A   1     -10.522   2.568  11.185  0.00  0.00    +0.067 C 
ATOM      2  C   UNL A   1      -9.585   1.875  10.864  0.00  0.00    -0.030 C 
ATOM      3  C   UNL A   1      -8.853   2.014   9.697  0.00  0.00    +0.122 C 
ATOM      4  C   UNL A   1      -7.784   1.154   9.251  0.00  0.00    +0.025 C 
ATOM      5  C   UNL A   1      -7.416   0.055  10.064  0.00  0.00    +0.081 C 
ATOM      6  C   UNL A   1      -8.125  -0.143  11.277  0.00  0.00    +0.013 C 
ATOM      7  C   UNL A   1      -9.139   0.707  11.597  0.00  0.00    +0.023 C 
ENDROOT
BRANCH   1   8
ATOM      8  C   UNL A   1     -10.306   3.380  12.443  0.00  0.00    +0.418 C 
ATOM      9  F   UNL A   1      -9.395   3.654  12.884  0.00  0.00    -0.166 F 
ATOM     10  F   UNL A   1     -11.087   2.707  13.446  0.00  0.00    -0.166 F 
ATOM     11  F   UNL A   1     -11.085   4.555  12.192  0.00  0.00    -0.166 F 
ENDBRANCH   1   8
BRANCH   5  12
ATOM     12  C   UNL A   1      -6.298  -0.808   9.696  0.00  0.00    +0.260 C 
ATOM     13  N   UNL A   1      -5.415  -1.114  10.677  0.00  0.00    -0.088 NA
ATOM     14  O   UNL A   1      -6.179  -1.329   8.592  0.00  0.00    -0.272 OA
ENDBRANCH   5  12
BRANCH   3  15
ATOM     15  C   UNL A   1      -9.186   3.128   8.802  0.00  0.00    +0.368 C 
ATOM     16  O   UNL A   1      -9.901   3.102   7.897  0.00  0.00    -0.245 OA
ATOM     17  O   UNL A   1      -8.458   4.277   9.019  0.00  0.00    -0.245 OA
ENDBRANCH   3  15
TORSDOF 3
ENDMDL
ENDMDL
