REMARK  Name = outputs/IAG933/test6/raw/output_309_IAG933_linker_design_.xyz
REMARK  9 active torsions:
REMARK  status: ('A' for Active; 'I' for Inactive)
REMARK    1  A    between atoms: C_1  and  C_2
REMARK    2  A    between atoms: C_1  and  C_8
REMARK    3  A    between atoms: C_1  and  C_28
REMARK    4  A    between atoms: C_13  and  C_33
REMARK    5  A    between atoms: C_14  and  C_15
REMARK    6  A    between atoms: C_21  and  O_22
REMARK    7  A    between atoms: O_22  and  C_23
REMARK    8  A    between atoms: C_23  and  C_24
REMARK    9  A    between atoms: C_28  and  C_38
REMARK                            x       y       z     vdW  Elec       q    Type
REMARK                         _______ _______ _______ _____ _____    ______ ____
ROOT
ATOM      1  C   UNL A   1     -23.075   1.859  25.394  0.00  0.00    +0.401 C 
ATOM      2  O   UNL A   1     -23.165   3.045  25.272  0.00  0.00    -0.235 OA
ATOM      3  F   UNL A   1     -22.620   1.118  24.519  0.00  0.00    -0.143 F 
ATOM      4  C   UNL A   1     -24.523   1.231  27.170  0.00  0.00    +0.068 C 
ATOM      5  C   UNL A   1     -23.316   0.655  29.225  0.00  0.00    +0.186 C 
ATOM      6  N   UNL A   1     -23.253   1.428  26.569  0.00  0.00    -0.205 N 
ATOM      7  F   UNL A   1     -23.024   1.831  29.827  0.00  0.00    -0.201 F 
ATOM      8  O   UNL A   1     -21.459  -1.221  29.547  0.00  0.00    -0.281 OA
ATOM      9  C   UNL A   1     -24.562   0.673  28.409  0.00  0.00    +0.080 C 
ATOM     10  C   UNL A   1     -21.949   1.673  27.315  0.00  0.00    +0.120 C 
ATOM     11  C   UNL A   1     -21.221   0.456  27.937  0.00  0.00    +0.252 C 
ATOM     12  O   UNL A   1     -19.918   0.211  28.531  0.00  0.00    -0.282 OA
ATOM     13  C   UNL A   1     -22.172  -0.260  28.922  0.00  0.00    +0.263 C 
ENDROOT
BRANCH   4  14
ATOM     14  C   UNL A   1     -25.688   1.614  26.461  0.00  0.00    +0.052 C 
ATOM     15  C   UNL A   1     -26.250   2.920  26.395  0.00  0.00    +0.078 C 
ATOM     16  C   UNL A   1     -27.438   3.091  25.645  0.00  0.00    +0.107 C 
ATOM     17  N   UNL A   1     -28.075   2.089  25.003  0.00  0.00    -0.208 NA
ATOM     18  C   UNL A   1     -27.543   0.849  25.079  0.00  0.00    +0.253 C 
ATOM     19  C   UNL A   1     -26.354   0.576  25.777  0.00  0.00    +0.194 C 
ATOM     20  F   UNL A   1     -25.860  -0.681  25.795  0.00  0.00    -0.199 F 
BRANCH  15  21
ATOM     21  C   UNL A   1     -25.642   4.093  27.123  0.00  0.00    +0.267 C 
ATOM     22  N   UNL A   1     -25.614   5.252  26.449  0.00  0.00    -0.200 NA
ATOM     23  C   UNL A   1     -25.026   6.479  26.963  0.00  0.00    +0.139 C 
ATOM     24  O   UNL A   1     -25.143   3.966  28.243  0.00  0.00    -0.268 OA
ENDBRANCH  15  21
BRANCH  18  25
ATOM     25  O   UNL A   1     -28.193  -0.208  24.477  0.00  0.00    -0.456 OA
BRANCH  25  26
ATOM     26  C   UNL A   1     -29.460   0.005  23.866  0.00  0.00    +0.243 C 
BRANCH  26  27
ATOM     27  C   UNL A   1     -30.065  -1.377  23.573  0.00  0.00    +0.229 C 
ATOM     28  O   UNL A   1     -30.729  -1.878  24.721  0.00  0.00    -0.216 OA
ENDBRANCH  26  27
ENDBRANCH  25  26
ENDBRANCH  18  25
ENDBRANCH   4  14
BRANCH   9  29
ATOM     29  C   UNL A   1     -25.485  -0.084  29.057  0.00  0.00    +0.181 C 
ATOM     30  O   UNL A   1     -26.706  -0.083  28.832  0.00  0.00    -0.291 OA
BRANCH  29  31
ATOM     31  C   UNL A   1     -24.855  -1.012  30.143  0.00  0.00    +0.100 C 
BRANCH  31  32
ATOM     32  C   UNL A   1     -24.973  -2.505  29.788  0.00  0.00    -0.014 C 
ATOM     33  C   UNL A   1     -23.906  -3.173  29.146  0.00  0.00    -0.004 C 
ATOM     34  C   UNL A   1     -23.989  -4.549  28.853  0.00  0.00    -0.000 C 
ATOM     35  C   UNL A   1     -25.137  -5.280  29.205  0.00  0.00    -0.000 C 
ATOM     36  C   UNL A   1     -26.232  -4.611  29.784  0.00  0.00    -0.000 C 
ATOM     37  C   UNL A   1     -26.155  -3.232  30.065  0.00  0.00    -0.004 C 
ENDBRANCH  31  32
BRANCH  31  38
ATOM     38  C   UNL A   1     -25.387  -0.679  31.571  0.00  0.00    +0.084 C 
ATOM     39  C   UNL A   1     -25.189   0.773  32.028  0.00  0.00    +0.020 C 
ATOM     40  C   UNL A   1     -25.336   0.684  33.544  0.00  0.00    +0.020 C 
ATOM     41  C   UNL A   1     -24.829  -0.715  33.905  0.00  0.00    +0.089 C 
ATOM     42  N   UNL A   1     -24.758  -1.481  32.646  0.00  0.00    -0.219 NA
ENDBRANCH  31  38
ENDBRANCH  29  31
ENDBRANCH   9  29
TORSDOF 9
