MODEL 3090
MODEL 1
REMARK VINA RESULT:    -7.065      0.000      0.000
REMARK INTER + INTRA:          -8.661
REMARK INTER:                  -8.304
REMARK INTRA:                  -0.357
REMARK UNBOUND:                -0.357
REMARK  Name = No_3090-gen_results/8p0m/2024-11-27-11-27-31/
REMARK  3 active torsions:
REMARK  status: ('A' for Active; 'I' for Inactive)
REMARK    1  A    between atoms: C_3  and  C_15
REMARK    2  A    between atoms: C_8  and  C_18
REMARK    3  A    between atoms: C_15  and  O_17
REMARK                            x       y       z     vdW  Elec       q    Type
REMARK                         _______ _______ _______ _____ _____    ______ ____
ROOT
ATOM      1  C   UNL A   1     -29.245 -10.569  32.501  0.00  0.00    +0.007 A 
ATOM      2  C   UNL A   1     -29.473 -10.259  31.355  0.00  0.00    +0.006 A 
ATOM      3  C   UNL A   1     -30.437  -9.339  30.989  0.00  0.00    +0.076 A 
ATOM      4  C   UNL A   1     -31.052  -9.405  29.740  0.00  0.00    +0.006 A 
ATOM      5  C   UNL A   1     -30.566 -10.277  28.682  0.00  0.00    +0.000 A 
ATOM      6  C   UNL A   1     -29.542 -11.164  29.051  0.00  0.00    +0.000 A 
ATOM      7  C   UNL A   1     -29.101 -11.171  30.340  0.00  0.00    +0.000 A 
ATOM      8  C   UNL A   1     -28.049 -11.390  32.835  0.00  0.00    +0.080 A 
ATOM      9  C   UNL A   1     -27.581 -12.314  31.874  0.00  0.00    +0.007 A 
ATOM     10  C   UNL A   1     -28.094 -12.222  30.592  0.00  0.00    +0.000 A 
ATOM     11  C   UNL A   1     -29.099 -12.051  27.908  0.00  0.00    +0.000 A 
ATOM     12  C   UNL A   1     -29.574 -11.906  26.639  0.00  0.00    +0.000 A 
ATOM     13  C   UNL A   1     -30.524 -10.903  26.348  0.00  0.00    +0.000 A 
ATOM     14  C   UNL A   1     -30.996 -10.037  27.317  0.00  0.00    +0.000 A 
ENDROOT
BRANCH   8  15
ATOM     15  C   UNL A   1     -27.587 -11.495  34.224  0.00  0.00    +0.388 C 
ATOM     16  O   UNL A   1     -26.923 -10.718  34.720  0.00  0.00    -0.241 OA
ATOM     17  O   UNL A   1     -27.938 -12.563  34.869  0.00  0.00    -0.241 OA
ENDBRANCH   8  15
BRANCH   3  18
ATOM     18  C   UNL A   1     -30.998  -8.408  31.980  0.00  0.00    +0.341 C 
ATOM     19  O   UNL A   1     -31.975  -8.446  32.337  0.00  0.00    -0.245 OA
BRANCH  18  20
ATOM     20  O   UNL A   1     -30.226  -7.226  32.057  0.00  0.00    -0.441 OA
ATOM     21  C   UNL A   1     -29.594  -6.886  33.197  0.00  0.00    +0.256 C 
ENDBRANCH  18  20
ENDBRANCH   3  18
TORSDOF 3
ENDMDL
ENDMDL
