REMARK  Name = No_3090-gen_results/8p0m/2024-11-27-11-27-31/
REMARK  3 active torsions:
REMARK  status: ('A' for Active; 'I' for Inactive)
REMARK    1  A    between atoms: C_3  and  C_15
REMARK    2  A    between atoms: C_8  and  C_18
REMARK    3  A    between atoms: C_15  and  O_17
REMARK                            x       y       z     vdW  Elec       q    Type
REMARK                         _______ _______ _______ _____ _____    ______ ____
ROOT
ATOM      1  C   UNL A   1     -28.016  -0.814  28.878  0.00  0.00    +0.007 A 
ATOM      2  C   UNL A   1     -27.064  -0.119  28.608  0.00  0.00    +0.006 A 
ATOM      3  C   UNL A   1     -27.001   0.691  27.491  0.00  0.00    +0.076 A 
ATOM      4  C   UNL A   1     -25.777   1.021  26.913  0.00  0.00    +0.006 A 
ATOM      5  C   UNL A   1     -24.509   0.736  27.569  0.00  0.00    +0.000 A 
ATOM      6  C   UNL A   1     -24.593  -0.036  28.739  0.00  0.00    +0.000 A 
ATOM      7  C   UNL A   1     -25.811  -0.477  29.158  0.00  0.00    +0.000 A 
ATOM      8  C   UNL A   1     -28.107  -1.483  30.205  0.00  0.00    +0.080 A 
ATOM      9  C   UNL A   1     -26.908  -1.856  30.851  0.00  0.00    +0.007 A 
ATOM     10  C   UNL A   1     -25.722  -1.353  30.345  0.00  0.00    +0.000 A 
ATOM     11  C   UNL A   1     -23.238  -0.307  29.355  0.00  0.00    +0.000 A 
ATOM     12  C   UNL A   1     -22.088   0.245  28.876  0.00  0.00    +0.000 A 
ATOM     13  C   UNL A   1     -22.128   1.103  27.755  0.00  0.00    +0.000 A 
ATOM     14  C   UNL A   1     -23.312   1.420  27.116  0.00  0.00    +0.000 A 
ENDROOT
BRANCH   8  15
ATOM     15  C   UNL A   1     -29.382  -2.049  30.663  0.00  0.00    +0.388 C 
ATOM     16  O   UNL A   1     -29.495  -3.122  31.018  0.00  0.00    -0.241 OA
ATOM     17  O   UNL A   1     -30.414  -1.268  30.601  0.00  0.00    -0.241 OA
ENDBRANCH   8  15
BRANCH   3  18
ATOM     18  C   UNL A   1     -28.224   1.043  26.751  0.00  0.00    +0.341 C 
ATOM     19  O   UNL A   1     -29.096   1.401  27.192  0.00  0.00    -0.245 OA
BRANCH  18  20
ATOM     20  O   UNL A   1     -28.232   0.440  25.472  0.00  0.00    -0.441 OA
ATOM     21  C   UNL A   1     -29.391   0.145  24.854  0.00  0.00    +0.256 C 
ENDBRANCH  18  20
ENDBRANCH   3  18
TORSDOF 3
