MODEL 3091
MODEL 1
REMARK VINA RESULT:    -5.562      0.000      0.000
REMARK INTER + INTRA:          -5.930
REMARK INTER:                  -5.887
REMARK INTRA:                  -0.043
REMARK UNBOUND:                -0.043
REMARK  Name = No_3091-gen_results/8p0m/2024-11-27-11-27-31/
REMARK  1 active torsions:
REMARK  status: ('A' for Active; 'I' for Inactive)
REMARK    1  A    between atoms: C_4  and  S_8
REMARK                            x       y       z     vdW  Elec       q    Type
REMARK                         _______ _______ _______ _____ _____    ______ ____
ROOT
ATOM      1  C   UNL A   1     -28.823 -11.646  30.016  0.00  0.00    +0.013 A 
ATOM      2  C   UNL A   1     -29.508 -10.860  30.173  0.00  0.00    +0.058 A 
ATOM      3  C   UNL A   1     -28.023 -12.064  31.230  0.00  0.00    +0.021 A 
ATOM      4  C   UNL A   1     -28.329 -11.500  32.487  0.00  0.00    +0.125 A 
ATOM      5  C   UNL A   1     -30.032 -10.142  31.357  0.00  0.00    +0.013 A 
ATOM      6  C   UNL A   1     -29.324 -10.505  32.494  0.00  0.00    +0.021 A 
ATOM      7 CL   UNL A   1     -30.326 -10.440  28.619  0.00  0.00    -0.082 Cl
ENDROOT
BRANCH   4   8
ATOM      8  S   UNL A   1     -27.479 -11.949  33.883  0.00  0.00    +0.093 S 
ATOM      9  O   UNL A   1     -26.525 -12.904  33.532  0.00  0.00    -0.150 OA
ATOM     10  O   UNL A   1     -28.501 -12.571  34.817  0.00  0.00    -0.150 OA
ATOM     11  N   UNL A   1     -26.864 -10.661  34.529  0.00  0.00    +0.039 NA
ENDBRANCH   4   8
TORSDOF 1
ENDMDL
ENDMDL
