REMARK  Name = No_3091-gen_results/8p0m/2024-11-27-11-27-31/
REMARK  1 active torsions:
REMARK  status: ('A' for Active; 'I' for Inactive)
REMARK    1  A    between atoms: C_4  and  S_8
REMARK                            x       y       z     vdW  Elec       q    Type
REMARK                         _______ _______ _______ _____ _____    ______ ____
ROOT
ATOM      1  C   UNL A   1     -28.016  -0.814  28.878  0.00  0.00    +0.013 A 
ATOM      2  C   UNL A   1     -28.469  -0.785  29.829  0.00  0.00    +0.058 A 
ATOM      3  C   UNL A   1     -26.504  -0.778  28.877  0.00  0.00    +0.021 A 
ATOM      4  C   UNL A   1     -25.810  -0.853  30.103  0.00  0.00    +0.125 A 
ATOM      5  C   UNL A   1     -27.991  -0.892  31.226  0.00  0.00    +0.013 A 
ATOM      6  C   UNL A   1     -26.604  -0.868  31.265  0.00  0.00    +0.021 A 
ATOM      7 CL   UNL A   1     -30.266  -0.764  29.652  0.00  0.00    -0.082 Cl
ENDROOT
BRANCH   4   8
ATOM      8  S   UNL A   1     -24.116  -0.840  30.158  0.00  0.00    +0.093 S 
ATOM      9  O   UNL A   1     -23.708   0.226  30.959  0.00  0.00    -0.150 OA
ATOM     10  O   UNL A   1     -23.649  -0.613  28.732  0.00  0.00    -0.150 OA
ATOM     11  N   UNL A   1     -23.622  -2.234  30.677  0.00  0.00    +0.039 NA
ENDBRANCH   4   8
TORSDOF 1
