MODEL 3092
MODEL 1
REMARK VINA RESULT:    -5.009      0.000      0.000
REMARK INTER + INTRA:          -5.341
REMARK INTER:                  -5.302
REMARK INTRA:                  -0.039
REMARK UNBOUND:                -0.039
REMARK  Name = No_3092-gen_results/8p0m/2024-11-27-11-27-31/
REMARK  1 active torsions:
REMARK  status: ('A' for Active; 'I' for Inactive)
REMARK    1  A    between atoms: C_3  and  C_7
REMARK                            x       y       z     vdW  Elec       q    Type
REMARK                         _______ _______ _______ _____ _____    ______ ____
ROOT
ATOM      1  C   UNL A   1     -24.996  -5.132  29.069  0.00  0.00    +0.000 A 
ATOM      2  C   UNL A   1     -24.156  -4.291  28.845  0.00  0.00    +0.000 A 
ATOM      3  C   UNL A   1     -24.315  -2.941  29.153  0.00  0.00    +0.001 A 
ATOM      4  C   UNL A   1     -25.571  -2.489  29.721  0.00  0.00    +0.000 A 
ATOM      5  C   UNL A   1     -26.518  -3.488  29.945  0.00  0.00    +0.000 A 
ATOM      6  C   UNL A   1     -26.288  -4.743  29.612  0.00  0.00    +0.000 A 
ENDROOT
BRANCH   3   7
ATOM      7  C   UNL A   1     -23.327  -1.841  28.914  0.00  0.00    +0.019 C 
ATOM      8  C   UNL A   1     -22.789  -1.130  29.895  0.00  0.00    +0.106 C 
ATOM      9  N   UNL A   1     -21.947  -0.111  29.481  0.00  0.00    -0.127 NA
ENDBRANCH   3   7
TORSDOF 1
ENDMDL
ENDMDL
