MODEL 3093
MODEL 1
REMARK VINA RESULT:    -7.460      0.000      0.000
REMARK INTER + INTRA:         -10.881
REMARK INTER:                  -9.205
REMARK INTRA:                  -1.676
REMARK UNBOUND:                -1.676
REMARK  Name = No_3093-gen_results/8p0m/2024-11-27-11-27-31/
REMARK  4 active torsions:
REMARK  status: ('A' for Active; 'I' for Inactive)
REMARK    1  A    between atoms: C_2  and  C_7
REMARK    2  A    between atoms: C_7  and  C_8
REMARK    3  A    between atoms: C_11  and  C_12
REMARK    4  A    between atoms: C_12  and  C_15
REMARK                            x       y       z     vdW  Elec       q    Type
REMARK                         _______ _______ _______ _____ _____    ______ ____
ROOT
ATOM      1  C   UNL A   1     -22.821  -0.039  29.386  0.00  0.00    +0.035 A 
ATOM      2  C   UNL A   1     -21.465  -0.318  29.126  0.00  0.00    +0.003 A 
ATOM      3  C   UNL A   1     -20.786   0.506  28.193  0.00  0.00    +0.000 A 
ATOM      4  C   UNL A   1     -23.515   0.914  28.594  0.00  0.00    -0.015 A 
ATOM      5  C   UNL A   1     -21.543   1.358  27.388  0.00  0.00    -0.000 A 
ATOM      6  C   UNL A   1     -22.788   1.601  27.653  0.00  0.00    -0.004 A 
ENDROOT
BRANCH   1   7
ATOM      7  C   UNL A   1     -23.597  -0.794  30.400  0.00  0.00    +0.195 C 
ATOM      8  O   UNL A   1     -23.600  -0.505  31.584  0.00  0.00    -0.287 OA
BRANCH   7  10
ATOM      9  C   UNL A   1     -23.631  -2.800  29.086  0.00  0.00    +0.003 A 
ATOM     10  C   UNL A   1     -24.247  -2.095  29.851  0.00  0.00    +0.039 A 
ATOM     11  C   UNL A   1     -25.450  -2.278  30.315  0.00  0.00    +0.003 A 
ATOM     12  C   UNL A   1     -26.168  -3.434  29.883  0.00  0.00    +0.000 A 
ATOM     13  C   UNL A   1     -24.251  -4.052  28.692  0.00  0.00    +0.000 A 
ATOM     14  C   UNL A   1     -25.491  -4.308  29.108  0.00  0.00    +0.000 A 
ENDBRANCH   7  10
ENDBRANCH   1   7
BRANCH   4  15
ATOM     15  C   UNL A   1     -24.893   1.218  28.766  0.00  0.00    +0.053 C 
BRANCH  15  16
ATOM     16  C   UNL A   1     -25.733   0.853  27.514  0.00  0.00    -0.018 A 
ATOM     17  C   UNL A   1     -25.287  -0.308  26.820  0.00  0.00    -0.004 A 
ATOM     18  C   UNL A   1     -25.712  -0.488  25.472  0.00  0.00    -0.000 A 
ATOM     19  C   UNL A   1     -26.296   0.562  24.759  0.00  0.00    -0.000 A 
ATOM     20  C   UNL A   1     -26.647   1.757  25.497  0.00  0.00    -0.000 A 
ATOM     21  C   UNL A   1     -26.245   1.987  26.791  0.00  0.00    -0.004 A 
ENDBRANCH  15  16
ENDBRANCH   4  15
TORSDOF 4
ENDMDL
ENDMDL
