REMARK  Name = outputs/IAG933/test6/raw/output_3094_IAG933_linker_design_.xyz
REMARK  11 active torsions:
REMARK  status: ('A' for Active; 'I' for Inactive)
REMARK    1  A    between atoms: C_1  and  C_2
REMARK    2  A    between atoms: C_1  and  C_8
REMARK    3  A    between atoms: C_1  and  C_34
REMARK    4  A    between atoms: C_13  and  C_32
REMARK    5  A    between atoms: C_14  and  C_15
REMARK    6  A    between atoms: C_21  and  O_22
REMARK    7  A    between atoms: O_22  and  C_23
REMARK    8  A    between atoms: C_23  and  C_24
REMARK    9  A    between atoms: C_32  and  N_35
REMARK   10  A    between atoms: N_35  and  C_36
REMARK   11  A    between atoms: C_39  and  C_40
REMARK                            x       y       z     vdW  Elec       q    Type
REMARK                         _______ _______ _______ _____ _____    ______ ____
ROOT
ATOM      1  O   UNL A   1     -26.695  -0.208  28.892  0.00  0.00    -0.274 OA
ATOM      2  C   UNL A   1     -25.461  -0.217  29.002  0.00  0.00    +0.234 C 
ATOM      3  N   UNL A   1     -24.585   0.389  28.171  0.00  0.00    -0.255 N 
ENDROOT
BRANCH   3   7
ATOM      4  C   UNL A   1     -22.595  -0.118  29.386  0.00  0.00    +0.183 C 
ATOM      5  O   UNL A   1     -21.262  -0.510  29.388  0.00  0.00    -0.348 OA
ATOM      6  C   UNL A   1     -21.176   1.738  27.757  0.00  0.00    +0.037 C 
ATOM      7  C   UNL A   1     -23.306   0.600  28.275  0.00  0.00    +0.064 C 
ATOM      8  C   UNL A   1     -20.765  -0.191  28.678  0.00  0.00    +0.143 C 
ATOM      9  C   UNL A   1     -22.496   1.445  27.488  0.00  0.00    +0.070 C 
ATOM     10  C   UNL A   1     -20.280   0.842  28.058  0.00  0.00    +0.037 C 
BRANCH   9  13
ATOM     11  O   UNL A   1     -21.454   2.256  25.411  0.00  0.00    -0.241 OA
ATOM     12  O   UNL A   1     -23.480   2.835  25.561  0.00  0.00    -0.241 OA
ATOM     13  C   UNL A   1     -22.641   2.140  26.259  0.00  0.00    +0.385 C 
ENDBRANCH   9  13
ENDBRANCH   3   7
BRANCH   2  14
ATOM     14  C   UNL A   1     -24.855  -1.012  30.143  0.00  0.00    +0.115 C 
BRANCH  14  15
ATOM     15  C   UNL A   1     -24.973  -2.505  29.788  0.00  0.00    -0.013 C 
ATOM     16  C   UNL A   1     -23.906  -3.173  29.146  0.00  0.00    -0.004 C 
ATOM     17  C   UNL A   1     -23.989  -4.549  28.853  0.00  0.00    -0.000 C 
ATOM     18  C   UNL A   1     -25.137  -5.280  29.205  0.00  0.00    -0.000 C 
ATOM     19  C   UNL A   1     -26.232  -4.611  29.784  0.00  0.00    -0.000 C 
ATOM     20  C   UNL A   1     -26.155  -3.232  30.065  0.00  0.00    -0.004 C 
ENDBRANCH  14  15
BRANCH  14  21
ATOM     21  C   UNL A   1     -25.387  -0.679  31.571  0.00  0.00    +0.086 C 
ATOM     22  C   UNL A   1     -25.189   0.773  32.028  0.00  0.00    +0.020 C 
ATOM     23  C   UNL A   1     -25.336   0.684  33.544  0.00  0.00    +0.020 C 
ATOM     24  C   UNL A   1     -24.829  -0.715  33.905  0.00  0.00    +0.089 C 
ATOM     25  N   UNL A   1     -24.758  -1.481  32.646  0.00  0.00    -0.219 NA
ENDBRANCH  14  21
ENDBRANCH   2  14
BRANCH   3  26
ATOM     26  C   UNL A   1     -24.812   1.239  27.179  0.00  0.00    +0.127 C 
BRANCH  26  27
ATOM     27  C   UNL A   1     -25.688   1.614  26.461  0.00  0.00    +0.036 C 
ATOM     28  C   UNL A   1     -26.250   2.920  26.395  0.00  0.00    +0.074 C 
ATOM     29  C   UNL A   1     -27.438   3.091  25.645  0.00  0.00    +0.106 C 
ATOM     30  N   UNL A   1     -28.075   2.089  25.003  0.00  0.00    -0.208 NA
ATOM     31  C   UNL A   1     -27.543   0.849  25.079  0.00  0.00    +0.253 C 
ATOM     32  C   UNL A   1     -26.354   0.576  25.777  0.00  0.00    +0.191 C 
ATOM     33  F   UNL A   1     -25.860  -0.681  25.795  0.00  0.00    -0.200 F 
BRANCH  28  34
ATOM     34  C   UNL A   1     -25.642   4.093  27.123  0.00  0.00    +0.266 C 
ATOM     35  N   UNL A   1     -25.614   5.252  26.449  0.00  0.00    -0.200 NA
ATOM     36  C   UNL A   1     -25.026   6.479  26.963  0.00  0.00    +0.139 C 
ATOM     37  O   UNL A   1     -25.143   3.966  28.243  0.00  0.00    -0.268 OA
ENDBRANCH  28  34
BRANCH  31  38
ATOM     38  O   UNL A   1     -28.193  -0.208  24.477  0.00  0.00    -0.456 OA
BRANCH  38  39
ATOM     39  C   UNL A   1     -29.460   0.005  23.866  0.00  0.00    +0.243 C 
BRANCH  39  40
ATOM     40  C   UNL A   1     -30.065  -1.377  23.573  0.00  0.00    +0.229 C 
ATOM     41  O   UNL A   1     -30.729  -1.878  24.721  0.00  0.00    -0.216 OA
ENDBRANCH  39  40
ENDBRANCH  38  39
ENDBRANCH  31  38
ENDBRANCH  26  27
ENDBRANCH   3  26
TORSDOF 11
