MODEL 3095
MODEL 1
REMARK VINA RESULT:    -6.939      0.000      0.000
REMARK INTER + INTRA:         -10.329
REMARK INTER:                  -8.967
REMARK INTRA:                  -1.362
REMARK UNBOUND:                -1.362
REMARK  Name = No_3095-gen_results/8p0m/2024-11-27-11-27-31/
REMARK  5 active torsions:
REMARK  status: ('A' for Active; 'I' for Inactive)
REMARK    1  A    between atoms: C_1  and  C_2
REMARK    2  A    between atoms: C_5  and  C_12
REMARK    3  A    between atoms: C_7  and  C_27
REMARK    4  A    between atoms: C_14  and  C_15
REMARK    5  A    between atoms: C_21  and  C_24
REMARK                            x       y       z     vdW  Elec       q    Type
REMARK                         _______ _______ _______ _____ _____    ______ ____
ROOT
ATOM      1  C   UNL A   1     -27.656  -9.919   9.188  0.00  0.00    +0.160 C 
ATOM      2  F   UNL A   1     -27.257  -9.394  10.239  0.00  0.00    -0.235 F 
ATOM      3  C   UNL A   1     -27.868  -8.735   8.180  0.00  0.00    +0.063 C 
ATOM      4  C   UNL A   1     -29.111 -10.446   9.519  0.00  0.00    +0.061 C 
ATOM      5  C   UNL A   1     -28.653  -7.724   8.519  0.00  0.00    -0.020 A 
ATOM      6  C   UNL A   1     -28.624  -6.418   7.863  0.00  0.00    +0.038 A 
ATOM      7  C   UNL A   1     -29.559  -5.426   8.216  0.00  0.00    +0.003 A 
ATOM      8  C   UNL A   1     -30.561  -5.675   9.140  0.00  0.00    -0.004 A 
ATOM      9  C   UNL A   1     -30.566  -6.894   9.882  0.00  0.00    -0.026 A 
ATOM     10  C   UNL A   1     -29.658  -7.826   9.531  0.00  0.00    -0.029 A 
ATOM     11  C   UNL A   1     -30.252  -9.599   9.276  0.00  0.00    +0.033 C 
ATOM     12  C   UNL A   1     -31.585  -7.151  10.910  0.00  0.00    +0.031 C 
ENDROOT
BRANCH   4  13
ATOM     13  C   UNL A   1     -29.240 -11.593  10.225  0.00  0.00    -0.019 A 
ATOM     14  C   UNL A   1     -29.498 -11.467  11.600  0.00  0.00    -0.004 A 
ATOM     15  C   UNL A   1     -29.930 -12.479  12.414  0.00  0.00    -0.000 A 
ATOM     16  C   UNL A   1     -29.394 -12.889   9.704  0.00  0.00    +0.002 A 
ATOM     17  C   UNL A   1     -29.756 -13.978  10.487  0.00  0.00    +0.080 A 
ATOM     18  C   UNL A   1     -29.961 -13.766  11.864  0.00  0.00    +0.007 A 
BRANCH  17  19
ATOM     19  C   UNL A   1     -29.898 -15.325   9.938  0.00  0.00    +0.388 C 
ATOM     20  O   UNL A   1     -30.793 -15.703   9.329  0.00  0.00    -0.241 OA
ATOM     21  O   UNL A   1     -28.917 -16.128  10.226  0.00  0.00    -0.241 OA
ENDBRANCH  17  19
ENDBRANCH   4  13
BRANCH   1  22
ATOM     22  C   UNL A   1     -26.948 -10.818   8.797  0.00  0.00    +0.013 C 
ATOM     23  C   UNL A   1     -26.951 -11.011   7.337  0.00  0.00    +0.084 C 
BRANCH  23  24
ATOM     24  C   UNL A   1     -26.320 -12.226   6.749  0.00  0.00    +0.388 C 
ATOM     25  O   UNL A   1     -25.553 -12.131   5.998  0.00  0.00    -0.241 OA
ATOM     26  O   UNL A   1     -26.839 -13.318   7.149  0.00  0.00    -0.241 OA
ENDBRANCH  23  24
ENDBRANCH   1  22
BRANCH   6  27
ATOM     27  C   UNL A   1     -27.586  -6.121   6.903  0.00  0.00    +0.234 C 
ATOM     28  O   UNL A   1     -26.508  -5.722   7.404  0.00  0.00    -0.283 OA
ENDBRANCH   6  27
TORSDOF 5
ENDMDL
ENDMDL
