REMARK  Name = No_3095-gen_results/8p0m/2024-11-27-11-27-31/
REMARK  5 active torsions:
REMARK  status: ('A' for Active; 'I' for Inactive)
REMARK    1  A    between atoms: C_1  and  C_2
REMARK    2  A    between atoms: C_5  and  C_12
REMARK    3  A    between atoms: C_7  and  C_27
REMARK    4  A    between atoms: C_14  and  C_15
REMARK    5  A    between atoms: C_21  and  C_24
REMARK                            x       y       z     vdW  Elec       q    Type
REMARK                         _______ _______ _______ _____ _____    ______ ____
ROOT
ATOM      1  C   UNL A   1     -27.064  -0.119  28.608  0.00  0.00    +0.160 C 
ATOM      2  F   UNL A   1     -27.079   0.985  29.174  0.00  0.00    -0.235 F 
ATOM      3  C   UNL A   1     -25.659  -0.738  28.931  0.00  0.00    +0.063 C 
ATOM      4  C   UNL A   1     -27.025   0.213  27.061  0.00  0.00    +0.061 C 
ATOM      5  C   UNL A   1     -24.563  -0.054  28.639  0.00  0.00    -0.020 A 
ATOM      6  C   UNL A   1     -23.253  -0.330  29.226  0.00  0.00    +0.038 A 
ATOM      7  C   UNL A   1     -22.117   0.379  28.790  0.00  0.00    +0.003 A 
ATOM      8  C   UNL A   1     -22.195   1.304  27.761  0.00  0.00    -0.004 A 
ATOM      9  C   UNL A   1     -23.465   1.683  27.232  0.00  0.00    -0.026 A 
ATOM     10  C   UNL A   1     -24.538   0.996  27.668  0.00  0.00    -0.029 A 
ATOM     11  C   UNL A   1     -25.756   0.335  26.387  0.00  0.00    +0.033 C 
ATOM     12  C   UNL A   1     -23.573   2.708  26.183  0.00  0.00    +0.031 C 
ENDROOT
BRANCH   4  13
ATOM     13  C   UNL A   1     -28.171   0.590  26.450  0.00  0.00    -0.019 A 
ATOM     14  C   UNL A   1     -28.405   0.073  25.165  0.00  0.00    -0.004 A 
ATOM     15  C   UNL A   1     -29.607   0.108  24.511  0.00  0.00    -0.000 A 
ATOM     16  C   UNL A   1     -29.269   1.236  27.044  0.00  0.00    +0.002 A 
ATOM     17  C   UNL A   1     -30.496   1.375  26.407  0.00  0.00    +0.080 A 
ATOM     18  C   UNL A   1     -30.631   0.856  25.105  0.00  0.00    +0.007 A 
BRANCH  17  19
ATOM     19  C   UNL A   1     -31.627   2.061  27.028  0.00  0.00    +0.388 C 
ATOM     20  O   UNL A   1     -31.550   2.898  27.808  0.00  0.00    -0.241 OA
ATOM     21  O   UNL A   1     -32.792   1.621  26.654  0.00  0.00    -0.241 OA
ENDBRANCH  17  19
ENDBRANCH   4  13
BRANCH   1  22
ATOM     22  C   UNL A   1     -28.016  -0.814  28.878  0.00  0.00    +0.013 C 
ATOM     23  C   UNL A   1     -27.935  -1.485  30.187  0.00  0.00    +0.084 C 
BRANCH  23  24
ATOM     24  C   UNL A   1     -28.916  -2.551  30.536  0.00  0.00    +0.388 C 
ATOM     25  O   UNL A   1     -28.646  -3.333  31.225  0.00  0.00    -0.241 OA
ATOM     26  O   UNL A   1     -30.006  -2.478  29.881  0.00  0.00    -0.241 OA
ENDBRANCH  23  24
ENDBRANCH   1  22
BRANCH   6  27
ATOM     27  C   UNL A   1     -23.138  -1.280  30.308  0.00  0.00    +0.234 C 
ATOM     28  O   UNL A   1     -23.747  -0.958  31.355  0.00  0.00    -0.283 OA
ENDBRANCH   6  27
TORSDOF 5
