MODEL 3096
MODEL 1
REMARK VINA RESULT:    -5.207      0.000      0.000
REMARK INTER + INTRA:          -5.606
REMARK INTER:                  -5.511
REMARK INTRA:                  -0.095
REMARK UNBOUND:                -0.095
REMARK  Name = No_3096-gen_results/8p0m/2024-11-27-11-27-31/
REMARK  1 active torsions:
REMARK  status: ('A' for Active; 'I' for Inactive)
REMARK    1  A    between atoms: C_2  and  C_5
REMARK                            x       y       z     vdW  Elec       q    Type
REMARK                         _______ _______ _______ _____ _____    ______ ____
ROOT
ATOM      1  C   UNL A   1     -23.874  -3.732  28.880  0.00  0.00    +0.005 A 
ATOM      2  C   UNL A   1     -24.337  -2.873  29.279  0.00  0.00    +0.055 A 
ATOM      3  C   UNL A   1     -24.711  -4.930  28.941  0.00  0.00    +0.000 A 
ATOM      4  C   UNL A   1     -25.984  -4.906  29.455  0.00  0.00    +0.000 A 
ATOM      5  C   UNL A   1     -26.471  -3.671  29.921  0.00  0.00    +0.000 A 
ATOM      6  C   UNL A   1     -25.662  -2.538  29.802  0.00  0.00    +0.005 A 
ENDROOT
BRANCH   2   7
ATOM      7  C   UNL A   1     -23.530  -1.541  29.218  0.00  0.00    +0.265 C 
ATOM      8  N   UNL A   1     -22.458  -1.530  29.089  0.00  0.00    -0.200 NA
ATOM      9  O   UNL A   1     -24.179  -0.441  29.647  0.00  0.00    -0.268 OA
ATOM     10  C   UNL A   1     -21.619  -0.318  28.883  0.00  0.00    +0.139 C 
ENDBRANCH   2   7
TORSDOF 1
ENDMDL
ENDMDL
