REMARK  Name = outputs/IAG933/test6/raw/output_3096_IAG933_linker_design_.xyz
REMARK  8 active torsions:
REMARK  status: ('A' for Active; 'I' for Inactive)
REMARK    1  A    between atoms: C_1  and  C_2
REMARK    2  A    between atoms: C_13  and  N_41
REMARK    3  A    between atoms: C_14  and  C_15
REMARK    4  A    between atoms: C_21  and  O_22
REMARK    5  A    between atoms: O_22  and  C_23
REMARK    6  A    between atoms: C_23  and  C_24
REMARK    7  A    between atoms: N_31  and  C_34
REMARK    8  A    between atoms: C_35  and  C_38
REMARK                            x       y       z     vdW  Elec       q    Type
REMARK                         _______ _______ _______ _____ _____    ______ ____
ROOT
ATOM      1  C   UNL A   1     -22.084   1.610  26.373  0.00  0.00    +0.204 C 
ATOM      2  O   UNL A   1     -20.390   0.786  27.929  0.00  0.00    -0.448 OA
ATOM      3  C   UNL A   1     -21.915  -0.453  29.181  0.00  0.00    +0.045 C 
ATOM      4  C   UNL A   1     -23.403   1.638  26.184  0.00  0.00    +0.295 C 
ATOM      5  F   UNL A   1     -23.727   2.179  24.918  0.00  0.00    -0.207 F 
ATOM      6  C   UNL A   1     -22.662   0.350  28.308  0.00  0.00    +0.051 C 
ATOM      7  C   UNL A   1     -24.038   0.610  28.111  0.00  0.00    +0.053 C 
ATOM      8  N   UNL A   1     -24.371   1.295  26.981  0.00  0.00    -0.255 N 
ATOM      9  F   UNL A   1     -21.168   2.141  25.576  0.00  0.00    -0.201 F 
ATOM     10  C   UNL A   1     -20.578  -0.100  28.833  0.00  0.00    +0.180 C 
ATOM     11  C   UNL A   1     -21.666   0.968  27.508  0.00  0.00    +0.174 C 
ENDROOT
BRANCH   7  19
ATOM     12  C   UNL A   1     -24.855  -1.012  30.143  0.00  0.00    +0.062 C 
ATOM     13  C   UNL A   1     -25.387  -0.679  31.571  0.00  0.00    +0.084 C 
ATOM     14  C   UNL A   1     -25.189   0.773  32.028  0.00  0.00    +0.054 C 
ATOM     15  C   UNL A   1     -25.336   0.684  33.544  0.00  0.00    +0.026 C 
ATOM     16  C   UNL A   1     -24.829  -0.715  33.905  0.00  0.00    +0.089 C 
ATOM     17  N   UNL A   1     -24.758  -1.481  32.646  0.00  0.00    -0.219 NA
ATOM     18  N   UNL A   1     -25.717   1.288  29.777  0.00  0.00    -0.280 N 
ATOM     19  C   UNL A   1     -25.073   0.063  29.073  0.00  0.00    +0.116 C 
ATOM     20  C   UNL A   1     -26.938   2.455  31.657  0.00  0.00    +0.011 C 
ATOM     21  C   UNL A   1     -26.009   1.618  31.222  0.00  0.00    +0.028 C 
BRANCH  12  22
ATOM     22  C   UNL A   1     -24.973  -2.505  29.788  0.00  0.00    -0.019 C 
ATOM     23  C   UNL A   1     -23.906  -3.173  29.146  0.00  0.00    -0.004 C 
ATOM     24  C   UNL A   1     -23.989  -4.549  28.853  0.00  0.00    -0.000 C 
ATOM     25  C   UNL A   1     -25.137  -5.280  29.205  0.00  0.00    -0.000 C 
ATOM     26  C   UNL A   1     -26.232  -4.611  29.784  0.00  0.00    -0.000 C 
ATOM     27  C   UNL A   1     -26.155  -3.232  30.065  0.00  0.00    -0.004 C 
ENDBRANCH  12  22
BRANCH  18  29
ATOM     28  O   UNL A   1     -27.998   1.159  28.980  0.00  0.00    -0.196 OA
ATOM     29  C   UNL A   1     -26.976   1.199  29.324  0.00  0.00    +0.278 C 
ENDBRANCH  18  29
ENDBRANCH   7  19
BRANCH   8  30
ATOM     30  C   UNL A   1     -25.688   1.614  26.461  0.00  0.00    +0.092 C 
ATOM     31  C   UNL A   1     -26.250   2.920  26.395  0.00  0.00    +0.090 C 
ATOM     32  C   UNL A   1     -27.438   3.091  25.645  0.00  0.00    +0.108 C 
ATOM     33  N   UNL A   1     -28.075   2.089  25.003  0.00  0.00    -0.208 NA
ATOM     34  C   UNL A   1     -27.543   0.849  25.079  0.00  0.00    +0.255 C 
ATOM     35  C   UNL A   1     -26.354   0.576  25.777  0.00  0.00    +0.207 C 
ATOM     36  F   UNL A   1     -25.860  -0.681  25.795  0.00  0.00    -0.198 F 
BRANCH  31  37
ATOM     37  C   UNL A   1     -25.642   4.093  27.123  0.00  0.00    +0.268 C 
ATOM     38  N   UNL A   1     -25.614   5.252  26.449  0.00  0.00    -0.200 NA
ATOM     39  C   UNL A   1     -25.026   6.479  26.963  0.00  0.00    +0.139 C 
ATOM     40  O   UNL A   1     -25.143   3.966  28.243  0.00  0.00    -0.268 OA
ENDBRANCH  31  37
BRANCH  34  41
ATOM     41  O   UNL A   1     -28.193  -0.208  24.477  0.00  0.00    -0.456 OA
BRANCH  41  42
ATOM     42  C   UNL A   1     -29.460   0.005  23.866  0.00  0.00    +0.243 C 
BRANCH  42  43
ATOM     43  C   UNL A   1     -30.065  -1.377  23.573  0.00  0.00    +0.229 C 
ATOM     44  O   UNL A   1     -30.729  -1.878  24.721  0.00  0.00    -0.216 OA
ENDBRANCH  42  43
ENDBRANCH  41  42
ENDBRANCH  34  41
ENDBRANCH   8  30
TORSDOF 8
