MODEL 3097
MODEL 1
REMARK VINA RESULT:    -5.544      0.000      0.000
REMARK INTER + INTRA:          -6.348
REMARK INTER:                  -6.193
REMARK INTRA:                  -0.155
REMARK UNBOUND:                -0.155
REMARK  Name = No_3097-gen_results/8p0m/2024-11-27-11-27-31/
REMARK  2 active torsions:
REMARK  status: ('A' for Active; 'I' for Inactive)
REMARK    1  A    between atoms: C_2  and  C_7
REMARK    2  A    between atoms: C_7  and  N_8
REMARK                            x       y       z     vdW  Elec       q    Type
REMARK                         _______ _______ _______ _____ _____    ______ ____
ROOT
ATOM      1  C   UNL A   1     -25.073  -2.462  29.705  0.00  0.00    -0.002 A 
ATOM      2  C   UNL A   1     -24.255  -2.860  29.173  0.00  0.00    +0.002 A 
ATOM      3  C   UNL A   1     -26.218  -3.418  29.949  0.00  0.00    -0.000 A 
ATOM      4  C   UNL A   1     -26.073  -4.776  29.594  0.00  0.00    -0.000 A 
ATOM      5  C   UNL A   1     -23.954  -4.087  28.759  0.00  0.00    -0.002 A 
ATOM      6  C   UNL A   1     -24.894  -5.083  28.936  0.00  0.00    -0.000 A 
ENDROOT
BRANCH   2   7
ATOM      7  C   UNL A   1     -23.053  -1.827  28.943  0.00  0.00    +0.156 C 
BRANCH   7   8
ATOM      8  N   UNL A   1     -23.208  -0.581  29.443  0.00  0.00    -0.225 NA
ATOM      9  C   UNL A   1     -22.962   0.341  29.084  0.00  0.00    +0.291 C 
ATOM     10  N   UNL A   1     -23.270   1.574  29.862  0.00  0.00    -0.194 NA
ATOM     11  F   UNL A   1     -22.226   0.551  28.044  0.00  0.00    -0.165 F 
ATOM     12  C   UNL A   1     -24.065   1.471  30.891  0.00  0.00    +0.140 C 
ENDBRANCH   7   8
ENDBRANCH   2   7
TORSDOF 2
ENDMDL
ENDMDL
