REMARK  Name = outputs/IAG933/test6/raw/output_3098_IAG933_linker_design_.xyz
REMARK  14 active torsions:
REMARK  status: ('A' for Active; 'I' for Inactive)
REMARK    1  A    between atoms: C_1  and  C_2
REMARK    2  A    between atoms: C_1  and  C_8
REMARK    3  A    between atoms: C_1  and  C_36
REMARK    4  A    between atoms: C_13  and  C_44
REMARK    5  A    between atoms: C_14  and  C_15
REMARK    6  A    between atoms: C_21  and  O_22
REMARK    7  A    between atoms: O_22  and  C_23
REMARK    8  A    between atoms: C_23  and  C_24
REMARK    9  A    between atoms: C_29  and  C_35
REMARK   10  A    between atoms: C_29  and  C_36
REMARK   11  A    between atoms: C_29  and  C_44
REMARK   12  A    between atoms: C_31  and  C_35
REMARK   13  A    between atoms: C_37  and  C_42
REMARK   14  A    between atoms: N_41  and  C_44
REMARK                            x       y       z     vdW  Elec       q    Type
REMARK                         _______ _______ _______ _____ _____    ______ ____
ROOT
ATOM      1  C   UNL A   1     -24.476   0.842  28.354  0.00  0.00    +0.079 C 
ENDROOT
BRANCH   1   2
ATOM      2  C   UNL A   1     -25.661  -0.156  29.090  0.00  0.00    +0.157 C 
ATOM      3  O   UNL A   1     -26.675  -0.258  28.561  0.00  0.00    -0.296 OA
BRANCH   2   4
ATOM      4  C   UNL A   1     -24.855  -1.012  30.143  0.00  0.00    +0.096 C 
BRANCH   4   5
ATOM      5  C   UNL A   1     -24.973  -2.505  29.788  0.00  0.00    -0.014 C 
ATOM      6  C   UNL A   1     -23.906  -3.173  29.146  0.00  0.00    -0.004 C 
ATOM      7  C   UNL A   1     -23.989  -4.549  28.853  0.00  0.00    -0.000 C 
ATOM      8  C   UNL A   1     -25.137  -5.280  29.205  0.00  0.00    -0.000 C 
ATOM      9  C   UNL A   1     -26.232  -4.611  29.784  0.00  0.00    -0.000 C 
ATOM     10  C   UNL A   1     -26.155  -3.232  30.065  0.00  0.00    -0.004 C 
ENDBRANCH   4   5
BRANCH   4  11
ATOM     11  C   UNL A   1     -25.387  -0.679  31.571  0.00  0.00    +0.084 C 
ATOM     12  C   UNL A   1     -25.189   0.773  32.028  0.00  0.00    +0.020 C 
ATOM     13  C   UNL A   1     -25.336   0.684  33.544  0.00  0.00    +0.020 C 
ATOM     14  C   UNL A   1     -24.829  -0.715  33.905  0.00  0.00    +0.089 C 
ATOM     15  N   UNL A   1     -24.758  -1.481  32.646  0.00  0.00    -0.219 NA
ENDBRANCH   4  11
ENDBRANCH   2   4
ENDBRANCH   1   2
BRANCH   1  16
ATOM     16  C   UNL A   1     -23.351   1.532  29.231  0.00  0.00    +0.038 C 
BRANCH  16  19
ATOM     17  C   UNL A   1     -21.305  -1.521  29.209  0.00  0.00    +0.162 C 
ATOM     18  C   UNL A   1     -19.984   1.264  27.975  0.00  0.00    +0.094 C 
ATOM     19  C   UNL A   1     -22.149   0.661  28.787  0.00  0.00    +0.114 C 
ATOM     20  N   UNL A   1     -19.397   0.107  29.192  0.00  0.00    -0.214 NA
ATOM     21  O   UNL A   1     -22.593  -0.761  28.692  0.00  0.00    -0.355 OA
ATOM     22  C   UNL A   1     -21.277   1.033  27.725  0.00  0.00    +0.079 C 
ATOM     23  C   UNL A   1     -20.855  -0.423  29.246  0.00  0.00    +0.127 C 
BRANCH  22  25
ATOM     24  F   UNL A   1     -21.145   3.174  27.228  0.00  0.00    -0.234 F 
ATOM     25  C   UNL A   1     -21.889   2.211  27.207  0.00  0.00    +0.197 C 
ENDBRANCH  22  25
ENDBRANCH  16  19
ENDBRANCH   1  16
BRANCH   1  26
ATOM     26  C   UNL A   1     -24.670   1.356  27.200  0.00  0.00    +0.092 C 
BRANCH  26  27
ATOM     27  C   UNL A   1     -25.688   1.614  26.461  0.00  0.00    +0.031 C 
ATOM     28  C   UNL A   1     -26.250   2.920  26.395  0.00  0.00    +0.074 C 
ATOM     29  C   UNL A   1     -27.438   3.091  25.645  0.00  0.00    +0.106 C 
ATOM     30  N   UNL A   1     -28.075   2.089  25.003  0.00  0.00    -0.208 NA
ATOM     31  C   UNL A   1     -27.543   0.849  25.079  0.00  0.00    +0.253 C 
ATOM     32  C   UNL A   1     -26.354   0.576  25.777  0.00  0.00    +0.190 C 
ATOM     33  F   UNL A   1     -25.860  -0.681  25.795  0.00  0.00    -0.200 F 
BRANCH  28  34
ATOM     34  C   UNL A   1     -25.642   4.093  27.123  0.00  0.00    +0.266 C 
ATOM     35  N   UNL A   1     -25.614   5.252  26.449  0.00  0.00    -0.200 NA
ATOM     36  C   UNL A   1     -25.026   6.479  26.963  0.00  0.00    +0.139 C 
ATOM     37  O   UNL A   1     -25.143   3.966  28.243  0.00  0.00    -0.268 OA
ENDBRANCH  28  34
BRANCH  31  38
ATOM     38  O   UNL A   1     -28.193  -0.208  24.477  0.00  0.00    -0.456 OA
BRANCH  38  39
ATOM     39  C   UNL A   1     -29.460   0.005  23.866  0.00  0.00    +0.243 C 
BRANCH  39  40
ATOM     40  C   UNL A   1     -30.065  -1.377  23.573  0.00  0.00    +0.229 C 
ATOM     41  O   UNL A   1     -30.729  -1.878  24.721  0.00  0.00    -0.216 OA
ENDBRANCH  39  40
ENDBRANCH  38  39
ENDBRANCH  31  38
ENDBRANCH  26  27
BRANCH  26  43
ATOM     42  C   UNL A   1     -22.676   0.501  25.962  0.00  0.00    +0.128 C 
ATOM     43  N   UNL A   1     -23.614   0.817  26.784  0.00  0.00    -0.238 NA
ATOM     44  F   UNL A   1     -23.521   0.914  24.905  0.00  0.00    -0.217 F 
ATOM     45  C   UNL A   1     -22.891   1.777  25.488  0.00  0.00    +0.238 C 
ENDBRANCH  26  43
ENDBRANCH   1  26
TORSDOF 14
