MODEL 3098
MODEL 1
REMARK VINA RESULT:    -6.950      0.000      0.000
REMARK INTER + INTRA:         -10.518
REMARK INTER:                  -8.982
REMARK INTRA:                  -1.536
REMARK UNBOUND:                -1.536
REMARK  Name = No_3098-gen_results/8p0m/2024-11-27-11-27-31/
REMARK  5 active torsions:
REMARK  status: ('A' for Active; 'I' for Inactive)
REMARK    1  A    between atoms: C_3  and  C_10
REMARK    2  A    between atoms: C_5  and  C_7
REMARK    3  A    between atoms: C_14  and  C_16
REMARK    4  A    between atoms: C_16  and  C_17
REMARK    5  A    between atoms: C_17  and  C_20
REMARK                            x       y       z     vdW  Elec       q    Type
REMARK                         _______ _______ _______ _____ _____    ______ ____
ROOT
ATOM      1  C   UNL A   1     -24.887  -0.230  27.694  0.00  0.00    +0.062 C 
ATOM      2  N   UNL A   1     -24.910   0.138  26.723  0.00  0.00    -0.248 NA
ATOM      3  C   UNL A   1     -24.298   1.366  26.296  0.00  0.00    +0.090 C 
ATOM      4  C   UNL A   1     -23.573   1.884  27.360  0.00  0.00    -0.020 C 
ATOM      5  C   UNL A   1     -23.923   0.725  28.507  0.00  0.00    +0.060 C 
ATOM      6  C   UNL A   1     -22.242   1.993  27.452  0.00  0.00    +0.028 C 
ENDROOT
BRANCH   1   9
ATOM      7  C   UNL A   1     -26.849  -2.197  30.103  0.00  0.00    +0.000 A 
ATOM      8  C   UNL A   1     -26.476  -1.323  29.354  0.00  0.00    +0.001 A 
ATOM      9  C   UNL A   1     -25.425  -1.435  28.460  0.00  0.00    +0.014 A 
ATOM     10  C   UNL A   1     -24.754  -2.691  28.402  0.00  0.00    +0.008 A 
ATOM     11  C   UNL A   1     -25.286  -3.690  29.125  0.00  0.00    +0.080 A 
ATOM     12  C   UNL A   1     -26.308  -3.503  29.909  0.00  0.00    +0.007 A 
BRANCH  11  13
ATOM     13  C   UNL A   1     -24.578  -4.989  29.011  0.00  0.00    +0.388 C 
ATOM     14  O   UNL A   1     -24.935  -6.003  29.556  0.00  0.00    -0.241 OA
ATOM     15  O   UNL A   1     -23.627  -5.102  28.099  0.00  0.00    -0.241 OA
ENDBRANCH  11  13
ENDBRANCH   1   9
BRANCH   5  16
ATOM     16  C   UNL A   1     -23.303   0.671  29.700  0.00  0.00    +0.009 C 
ATOM     17  C   UNL A   1     -23.670   1.877  30.535  0.00  0.00    +0.001 C 
BRANCH  16  18
ATOM     18  C   UNL A   1     -22.629  -0.029  30.039  0.00  0.00    +0.001 C 
ATOM     19  C   UNL A   1     -21.518  -0.698  29.207  0.00  0.00    +0.000 C 
BRANCH  18  20
ATOM     20  C   UNL A   1     -22.661  -0.822  31.347  0.00  0.00    +0.000 C 
ATOM     21  C   UNL A   1     -23.802  -1.253  31.979  0.00  0.00    +0.000 C 
ENDBRANCH  18  20
ENDBRANCH  16  18
ENDBRANCH   5  16
TORSDOF 5
ENDMDL
ENDMDL
