MODEL 3099
MODEL 1
REMARK VINA RESULT:    -7.157      0.000      0.000
REMARK INTER + INTRA:          -8.947
REMARK INTER:                  -8.412
REMARK INTRA:                  -0.535
REMARK UNBOUND:                -0.535
REMARK  Name = No_3099-gen_results/8p0m/2024-11-27-11-27-31/
REMARK  3 active torsions:
REMARK  status: ('A' for Active; 'I' for Inactive)
REMARK    1  A    between atoms: C_2  and  C_5
REMARK    2  A    between atoms: C_3  and  C_4
REMARK    3  A    between atoms: C_4  and  C_9
REMARK                            x       y       z     vdW  Elec       q    Type
REMARK                         _______ _______ _______ _____ _____    ______ ____
ROOT
ATOM      1  C   UNL A   1     -23.636   0.502  28.228  0.00  0.00    +0.003 A 
ATOM      2  C   UNL A   1     -23.034   1.170  27.678  0.00  0.00    +0.080 A 
ATOM      3  C   UNL A   1     -22.988  -0.517  28.961  0.00  0.00    -0.018 A 
ATOM      4  C   UNL A   1     -21.568   1.180  27.672  0.00  0.00    +0.007 A 
ATOM      5  C   UNL A   1     -20.856   0.221  28.338  0.00  0.00    -0.000 A 
ATOM      6  C   UNL A   1     -21.560  -0.649  29.088  0.00  0.00    -0.004 A 
ENDROOT
BRANCH   2   7
ATOM      7  C   UNL A   1     -23.613   2.375  26.907  0.00  0.00    +0.388 C 
ATOM      8  O   UNL A   1     -23.591   2.401  25.767  0.00  0.00    -0.241 OA
ATOM      9  O   UNL A   1     -24.300   3.381  27.575  0.00  0.00    -0.241 OA
ENDBRANCH   2   7
BRANCH   3  10
ATOM     10  C   UNL A   1     -23.678  -1.470  29.870  0.00  0.00    +0.053 C 
BRANCH  10  11
ATOM     11  C   UNL A   1     -24.364  -2.481  29.665  0.00  0.00    -0.018 A 
ATOM     12  C   UNL A   1     -23.974  -3.676  29.025  0.00  0.00    -0.004 A 
ATOM     13  C   UNL A   1     -24.809  -4.783  28.970  0.00  0.00    -0.000 A 
ATOM     14  C   UNL A   1     -26.094  -4.719  29.502  0.00  0.00    -0.000 A 
ATOM     15  C   UNL A   1     -25.715  -2.609  30.161  0.00  0.00    -0.004 A 
ATOM     16  C   UNL A   1     -26.552  -3.669  30.004  0.00  0.00    -0.000 A 
ENDBRANCH  10  11
ENDBRANCH   3  10
TORSDOF 3
ENDMDL
ENDMDL
