MODEL 309
MODEL 1
REMARK VINA RESULT:    -4.274      0.000      0.000
REMARK INTER + INTRA:          -4.274
REMARK INTER:                  -4.274
REMARK INTRA:                   0.000
REMARK UNBOUND:                 0.000
REMARK  Name = No_309-gen_results/8p0m/2024-11-27-11-27-31/
REMARK  0 active torsions:
REMARK  status: ('A' for Active; 'I' for Inactive)
REMARK                            x       y       z     vdW  Elec       q    Type
REMARK                         _______ _______ _______ _____ _____    ______ ____
ROOT
ATOM      1  C   UNL A   1     -25.043  -5.381  29.048  0.00  0.00    +0.000 A 
ATOM      2  C   UNL A   1     -25.994  -4.838  29.560  0.00  0.00    +0.000 A 
ATOM      3  C   UNL A   1     -26.158  -3.568  29.795  0.00  0.00    +0.000 A 
ATOM      4  C   UNL A   1     -25.104  -2.676  29.431  0.00  0.00    +0.000 A 
ATOM      5  C   UNL A   1     -23.975  -4.527  28.554  0.00  0.00    +0.000 A 
ATOM      6  C   UNL A   1     -24.039  -3.195  28.792  0.00  0.00    +0.000 A 
ENDROOT
TORSDOF 0
ENDMDL
ENDMDL
