MODEL 30
MODEL 1
REMARK VINA RESULT:    -6.537      0.000      0.000
REMARK INTER + INTRA:          -9.696
REMARK INTER:                  -8.448
REMARK INTRA:                  -1.248
REMARK UNBOUND:                -1.248
REMARK  Name = No_30-gen_results/8p0m/2024-11-27-11-27-31/
REMARK  5 active torsions:
REMARK  status: ('A' for Active; 'I' for Inactive)
REMARK    1  A    between atoms: C_3  and  C_7
REMARK    2  A    between atoms: C_6  and  C_12
REMARK    3  A    between atoms: C_13  and  C_14
REMARK    4  A    between atoms: C_15  and  C_16
REMARK    5  A    between atoms: C_17  and  C_18
REMARK                            x       y       z     vdW  Elec       q    Type
REMARK                         _______ _______ _______ _____ _____    ______ ____
ROOT
ATOM      1  C   UNL A   1     -30.593 -13.403  12.603  0.00  0.00    +0.034 A 
ATOM      2  C   UNL A   1     -30.547 -12.353  12.673  0.00  0.00    +0.140 A 
ATOM      3  C   UNL A   1     -30.033 -14.013  11.458  0.00  0.00    +0.074 A 
ATOM      4  C   UNL A   1     -29.451 -13.274  10.447  0.00  0.00    +0.004 A 
ATOM      5  C   UNL A   1     -29.987 -11.344  11.751  0.00  0.00    +0.030 A 
ATOM      6  C   UNL A   1     -29.441 -11.886  10.640  0.00  0.00    +0.002 A 
ATOM      7  F   UNL A   1     -31.025 -11.704  13.867  0.00  0.00    -0.204 F 
ENDROOT
BRANCH   3   8
ATOM      8  C   UNL A   1     -29.955 -15.476  11.040  0.00  0.00    +0.419 C 
ATOM      9  F   UNL A   1     -30.946 -15.914  10.823  0.00  0.00    -0.166 F 
ATOM     10  F   UNL A   1     -29.277 -16.133  11.993  0.00  0.00    -0.166 F 
ATOM     11  F   UNL A   1     -29.158 -15.682   9.907  0.00  0.00    -0.166 F 
ENDBRANCH   3   8
BRANCH   6  12
ATOM     12  C   UNL A   1     -28.840 -11.034   9.552  0.00  0.00    +0.000 C 
ATOM     13  C   UNL A   1     -27.820 -10.419   9.553  0.00  0.00    +0.000 C 
BRANCH  13  14
ATOM     14  C   UNL A   1     -27.296  -9.547   8.515  0.00  0.00    +0.000 C 
ATOM     15  C   UNL A   1     -27.562  -8.132   8.406  0.00  0.00    -0.000 C 
BRANCH  15  16
ATOM     16  C   UNL A   1     -28.131  -7.603   9.239  0.00  0.00    -0.000 C 
ATOM     17  C   UNL A   1     -29.505  -7.121   9.131  0.00  0.00    -0.000 C 
BRANCH  17  18
ATOM     18  C   UNL A   1     -30.220  -6.445  10.127  0.00  0.00    -0.005 C 
ATOM     19  C   UNL A   1     -31.357  -7.168  10.716  0.00  0.00    -0.026 C 
ATOM     20  C   UNL A   1     -31.656  -8.421  10.221  0.00  0.00    +0.031 C 
ENDBRANCH  17  18
ENDBRANCH  15  16
ENDBRANCH  13  14
ENDBRANCH   6  12
TORSDOF 5
ENDMDL
ENDMDL
