MODEL 3100
MODEL 1
REMARK VINA RESULT:    -5.303      0.000      0.000
REMARK INTER + INTRA:          -5.758
REMARK INTER:                  -5.613
REMARK INTRA:                  -0.145
REMARK UNBOUND:                -0.145
REMARK  Name = No_3100-gen_results/8p0m/2024-11-27-11-27-31/
REMARK  1 active torsions:
REMARK  status: ('A' for Active; 'I' for Inactive)
REMARK    1  A    between atoms: C_4  and  C_7
REMARK                            x       y       z     vdW  Elec       q    Type
REMARK                         _______ _______ _______ _____ _____    ______ ____
ROOT
ATOM      1  C   UNL A   1     -26.578  -3.989  29.781  0.00  0.00    -0.000 A 
ATOM      2  C   UNL A   1     -26.074  -4.897  29.605  0.00  0.00    -0.000 A 
ATOM      3  C   UNL A   1     -25.812  -2.754  29.545  0.00  0.00    -0.000 A 
ATOM      4  C   UNL A   1     -24.508  -2.808  28.973  0.00  0.00    -0.000 A 
ATOM      5  C   UNL A   1     -24.768  -5.224  28.970  0.00  0.00    -0.000 A 
ATOM      6  C   UNL A   1     -24.025  -4.104  28.745  0.00  0.00    -0.000 A 
ENDROOT
BRANCH   4   7
ATOM      7  C   UNL A   1     -23.729  -1.643  28.715  0.00  0.00    -0.005 C 
ATOM      8  C   UNL A   1     -22.748  -1.262  29.431  0.00  0.00    -0.026 C 
ATOM      9  C   UNL A   1     -21.831  -0.191  29.029  0.00  0.00    +0.031 C 
ENDBRANCH   4   7
TORSDOF 1
ENDMDL
ENDMDL
