MODEL 3101
MODEL 1
REMARK VINA RESULT:    -4.990      0.000      0.000
REMARK INTER + INTRA:          -4.990
REMARK INTER:                  -4.990
REMARK INTRA:                   0.000
REMARK UNBOUND:                 0.000
REMARK  Name = No_3101-gen_results/8p0m/2024-11-27-11-27-31/
REMARK  0 active torsions:
REMARK  status: ('A' for Active; 'I' for Inactive)
REMARK                            x       y       z     vdW  Elec       q    Type
REMARK                         _______ _______ _______ _____ _____    ______ ____
ROOT
ATOM      1  C   UNL A   1     -10.584  -9.309  19.156  0.00  0.00    +0.042 A 
ATOM      2  C   UNL A   1      -9.857  -9.079  20.094  0.00  0.00    +0.003 A 
ATOM      3  C   UNL A   1      -8.540  -9.526  20.108  0.00  0.00    +0.000 A 
ATOM      4  C   UNL A   1      -8.014 -10.316  19.024  0.00  0.00    +0.003 A 
ATOM      5  C   UNL A   1      -8.930 -10.554  17.992  0.00  0.00    +0.042 A 
ATOM      6  C   UNL A   1     -10.171 -10.124  18.035  0.00  0.00    +0.196 A 
ATOM      7  O   UNL A   1     -11.008 -10.432  17.007  0.00  0.00    -0.287 OA
ENDROOT
TORSDOF 0
ENDMDL
ENDMDL
