REMARK  Name = outputs/IAG933/test6/raw/output_3102_IAG933_linker_design_.xyz
REMARK  13 active torsions:
REMARK  status: ('A' for Active; 'I' for Inactive)
REMARK    1  A    between atoms: C_1  and  C_2
REMARK    2  A    between atoms: C_1  and  C_8
REMARK    3  A    between atoms: C_1  and  C_38
REMARK    4  A    between atoms: C_13  and  N_36
REMARK    5  A    between atoms: C_14  and  C_15
REMARK    6  A    between atoms: C_15  and  O_18
REMARK    7  A    between atoms: O_18  and  C_40
REMARK    8  A    between atoms: C_21  and  O_22
REMARK    9  A    between atoms: O_22  and  C_23
REMARK   10  A    between atoms: C_23  and  C_24
REMARK   11  A    between atoms: N_31  and  C_40
REMARK   12  A    between atoms: N_35  and  C_43
REMARK   13  A    between atoms: N_36  and  C_37
REMARK                            x       y       z     vdW  Elec       q    Type
REMARK                         _______ _______ _______ _____ _____    ______ ____
ROOT
ATOM      1  F   UNL A   1     -23.654   1.132  24.476  0.00  0.00    -0.200 F 
ATOM      2  F   UNL A   1     -20.747   0.183  28.746  0.00  0.00    -0.203 F 
ATOM      3  C   UNL A   1     -21.619   0.931  27.958  0.00  0.00    +0.159 C 
ATOM      4  F   UNL A   1     -21.829   3.005  25.064  0.00  0.00    -0.202 F 
ATOM      5  C   UNL A   1     -23.604   0.937  26.938  0.00  0.00    +0.118 C 
ATOM      6  C   UNL A   1     -23.163   1.346  26.002  0.00  0.00    +0.184 C 
ATOM      7  C   UNL A   1     -21.991   1.973  25.899  0.00  0.00    +0.171 C 
ATOM      8  C   UNL A   1     -22.957   0.801  28.142  0.00  0.00    +0.118 C 
ATOM      9  C   UNL A   1     -21.131   1.624  26.868  0.00  0.00    +0.063 C 
ENDROOT
BRANCH   8  11
ATOM     10  O   UNL A   1     -22.452  -0.662  30.306  0.00  0.00    -0.273 OA
ATOM     11  N   UNL A   1     -23.792   0.689  29.176  0.00  0.00    -0.175 NA
ATOM     12  C   UNL A   1     -23.604  -0.338  29.895  0.00  0.00    +0.251 C 
BRANCH  12  13
ATOM     13  C   UNL A   1     -24.855  -1.012  30.143  0.00  0.00    +0.117 C 
BRANCH  13  14
ATOM     14  C   UNL A   1     -24.973  -2.505  29.788  0.00  0.00    -0.013 C 
ATOM     15  C   UNL A   1     -23.906  -3.173  29.146  0.00  0.00    -0.004 C 
ATOM     16  C   UNL A   1     -23.989  -4.549  28.853  0.00  0.00    -0.000 C 
ATOM     17  C   UNL A   1     -25.137  -5.280  29.205  0.00  0.00    -0.000 C 
ATOM     18  C   UNL A   1     -26.232  -4.611  29.784  0.00  0.00    -0.000 C 
ATOM     19  C   UNL A   1     -26.155  -3.232  30.065  0.00  0.00    -0.004 C 
ENDBRANCH  13  14
BRANCH  13  20
ATOM     20  C   UNL A   1     -25.387  -0.679  31.571  0.00  0.00    +0.086 C 
ATOM     21  C   UNL A   1     -25.189   0.773  32.028  0.00  0.00    +0.020 C 
ATOM     22  C   UNL A   1     -25.336   0.684  33.544  0.00  0.00    +0.020 C 
ATOM     23  C   UNL A   1     -24.829  -0.715  33.905  0.00  0.00    +0.089 C 
ATOM     24  N   UNL A   1     -24.758  -1.481  32.646  0.00  0.00    -0.219 NA
ENDBRANCH  13  20
ENDBRANCH  12  13
ENDBRANCH   8  11
BRANCH   5  25
ATOM     25  N   UNL A   1     -24.517   1.333  26.945  0.00  0.00    -0.206 NA
BRANCH  25  26
ATOM     26  C   UNL A   1     -25.688   1.614  26.461  0.00  0.00    +0.109 C 
ATOM     27  C   UNL A   1     -26.250   2.920  26.395  0.00  0.00    +0.090 C 
ATOM     28  C   UNL A   1     -27.438   3.091  25.645  0.00  0.00    +0.108 C 
ATOM     29  N   UNL A   1     -28.075   2.089  25.003  0.00  0.00    -0.208 NA
ATOM     30  C   UNL A   1     -27.543   0.849  25.079  0.00  0.00    +0.255 C 
ATOM     31  C   UNL A   1     -26.354   0.576  25.777  0.00  0.00    +0.208 C 
ATOM     32  F   UNL A   1     -25.860  -0.681  25.795  0.00  0.00    -0.198 F 
BRANCH  27  33
ATOM     33  C   UNL A   1     -25.642   4.093  27.123  0.00  0.00    +0.225 C 
ATOM     34  N   UNL A   1     -25.614   5.252  26.449  0.00  0.00    -0.236 NA
ATOM     35  C   UNL A   1     -25.026   6.479  26.963  0.00  0.00    +0.155 C 
BRANCH  33  36
ATOM     36  O   UNL A   1     -25.143   3.966  28.243  0.00  0.00    -0.444 OA
BRANCH  36  37
ATOM     37  C   UNL A   1     -25.750   3.828  29.461  0.00  0.00    +0.272 C 
ATOM     38  C   UNL A   1     -25.966   5.082  30.180  0.00  0.00    +0.070 C 
BRANCH  37  40
ATOM     39  O   UNL A   1     -28.117   3.780  29.892  0.00  0.00    -0.097 OA
ATOM     40  N   UNL A   1     -27.010   3.124  29.574  0.00  0.00    -0.005 NA
ENDBRANCH  37  40
ENDBRANCH  36  37
ENDBRANCH  33  36
ENDBRANCH  27  33
BRANCH  30  41
ATOM     41  O   UNL A   1     -28.193  -0.208  24.477  0.00  0.00    -0.456 OA
BRANCH  41  42
ATOM     42  C   UNL A   1     -29.460   0.005  23.866  0.00  0.00    +0.243 C 
BRANCH  42  43
ATOM     43  C   UNL A   1     -30.065  -1.377  23.573  0.00  0.00    +0.229 C 
ATOM     44  O   UNL A   1     -30.729  -1.878  24.721  0.00  0.00    -0.216 OA
ENDBRANCH  42  43
ENDBRANCH  41  42
ENDBRANCH  30  41
ENDBRANCH  25  26
ENDBRANCH   5  25
TORSDOF 13
