REMARK  Name = outputs/IAG933/test6/raw/output_3103_IAG933_linker_design_.xyz
REMARK  14 active torsions:
REMARK  status: ('A' for Active; 'I' for Inactive)
REMARK    1  A    between atoms: C_1  and  C_2
REMARK    2  A    between atoms: C_1  and  C_8
REMARK    3  A    between atoms: C_1  and  C_44
REMARK    4  A    between atoms: C_13  and  N_40
REMARK    5  A    between atoms: C_14  and  C_15
REMARK    6  A    between atoms: C_21  and  O_22
REMARK    7  A    between atoms: O_22  and  C_23
REMARK    8  A    between atoms: C_23  and  C_24
REMARK    9  A    between atoms: N_29  and  N_40
REMARK   10  A    between atoms: C_30  and  C_32
REMARK   11  A    between atoms: C_30  and  N_41
REMARK   12  A    between atoms: N_36  and  N_40
REMARK   13  A    between atoms: C_37  and  N_41
REMARK   14  A    between atoms: C_37  and  C_43
REMARK                            x       y       z     vdW  Elec       q    Type
REMARK                         _______ _______ _______ _____ _____    ______ ____
ROOT
ATOM      1  N   UNL A   1     -24.694   1.130  27.338  0.00  0.00    -0.137 N 
ENDROOT
BRANCH   1   2
ATOM      2  C   UNL A   1     -25.688   1.614  26.461  0.00  0.00    +0.126 C 
ATOM      3  C   UNL A   1     -26.250   2.920  26.395  0.00  0.00    +0.093 C 
ATOM      4  C   UNL A   1     -27.438   3.091  25.645  0.00  0.00    +0.108 C 
ATOM      5  N   UNL A   1     -28.075   2.089  25.003  0.00  0.00    -0.208 NA
ATOM      6  C   UNL A   1     -27.543   0.849  25.079  0.00  0.00    +0.255 C 
ATOM      7  C   UNL A   1     -26.354   0.576  25.777  0.00  0.00    +0.210 C 
ATOM      8  F   UNL A   1     -25.860  -0.681  25.795  0.00  0.00    -0.198 F 
BRANCH   3   9
ATOM      9  C   UNL A   1     -25.642   4.093  27.123  0.00  0.00    +0.268 C 
ATOM     10  N   UNL A   1     -25.614   5.252  26.449  0.00  0.00    -0.200 NA
ATOM     11  C   UNL A   1     -25.026   6.479  26.963  0.00  0.00    +0.139 C 
ATOM     12  O   UNL A   1     -25.143   3.966  28.243  0.00  0.00    -0.268 OA
ENDBRANCH   3   9
BRANCH   6  13
ATOM     13  O   UNL A   1     -28.193  -0.208  24.477  0.00  0.00    -0.456 OA
BRANCH  13  14
ATOM     14  C   UNL A   1     -29.460   0.005  23.866  0.00  0.00    +0.243 C 
BRANCH  14  15
ATOM     15  C   UNL A   1     -30.065  -1.377  23.573  0.00  0.00    +0.229 C 
ATOM     16  O   UNL A   1     -30.729  -1.878  24.721  0.00  0.00    -0.216 OA
ENDBRANCH  14  15
ENDBRANCH  13  14
ENDBRANCH   6  13
ENDBRANCH   1   2
BRANCH   1  18
ATOM     17  C   UNL A   1     -22.093   2.286  24.986  0.00  0.00    +0.200 C 
ATOM     18  N   UNL A   1     -23.495   1.599  26.782  0.00  0.00    -0.189 N 
ATOM     19  C   UNL A   1     -21.395   1.752  27.136  0.00  0.00    +0.303 C 
ATOM     20  O   UNL A   1     -21.056   2.005  25.831  0.00  0.00    -0.424 OA
ATOM     21  F   UNL A   1     -20.409   1.736  27.939  0.00  0.00    -0.162 F 
ATOM     22  C   UNL A   1     -23.400   2.079  25.532  0.00  0.00    +0.128 C 
ATOM     23  C   UNL A   1     -22.639   1.593  27.658  0.00  0.00    +0.162 C 
BRANCH  23  25
ATOM     24  F   UNL A   1     -22.779   0.533  29.718  0.00  0.00    -0.211 F 
ATOM     25  C   UNL A   1     -23.254   1.495  29.090  0.00  0.00    +0.278 C 
BRANCH  25  26
ATOM     26  N   UNL A   1     -24.296   2.194  29.514  0.00  0.00    -0.182 NA
BRANCH  26  27
ATOM     27  C   UNL A   1     -24.401   2.740  30.802  0.00  0.00    +0.092 C 
BRANCH  27  28
ATOM     28  C   UNL A   1     -25.100   3.838  30.917  0.00  0.00    +0.019 C 
ATOM     29  C   UNL A   1     -25.773   4.960  31.046  0.00  0.00    +0.002 C 
ENDBRANCH  27  28
ENDBRANCH  26  27
ENDBRANCH  25  26
ENDBRANCH  23  25
ENDBRANCH   1  18
BRANCH   1  30
ATOM     30  N   UNL A   1     -25.034   0.117  27.987  0.00  0.00    -0.091 NA
ATOM     31  O   UNL A   1     -26.704   0.398  29.427  0.00  0.00    -0.271 OA
ATOM     32  C   UNL A   1     -25.614  -0.114  29.154  0.00  0.00    +0.266 C 
BRANCH  32  33
ATOM     33  C   UNL A   1     -24.855  -1.012  30.143  0.00  0.00    +0.118 C 
BRANCH  33  34
ATOM     34  C   UNL A   1     -24.973  -2.505  29.788  0.00  0.00    -0.012 C 
ATOM     35  C   UNL A   1     -23.906  -3.173  29.146  0.00  0.00    -0.004 C 
ATOM     36  C   UNL A   1     -23.989  -4.549  28.853  0.00  0.00    -0.000 C 
ATOM     37  C   UNL A   1     -25.137  -5.280  29.205  0.00  0.00    -0.000 C 
ATOM     38  C   UNL A   1     -26.232  -4.611  29.784  0.00  0.00    -0.000 C 
ATOM     39  C   UNL A   1     -26.155  -3.232  30.065  0.00  0.00    -0.004 C 
ENDBRANCH  33  34
BRANCH  33  40
ATOM     40  C   UNL A   1     -25.387  -0.679  31.571  0.00  0.00    +0.086 C 
ATOM     41  C   UNL A   1     -25.189   0.773  32.028  0.00  0.00    +0.020 C 
ATOM     42  C   UNL A   1     -25.336   0.684  33.544  0.00  0.00    +0.020 C 
ATOM     43  C   UNL A   1     -24.829  -0.715  33.905  0.00  0.00    +0.089 C 
ATOM     44  N   UNL A   1     -24.758  -1.481  32.646  0.00  0.00    -0.219 NA
ENDBRANCH  33  40
ENDBRANCH  32  33
ENDBRANCH   1  30
TORSDOF 14
