MODEL 3103
MODEL 1
REMARK VINA RESULT:    -5.934      0.000      0.000
REMARK INTER + INTRA:          -6.331
REMARK INTER:                  -6.281
REMARK INTRA:                  -0.050
REMARK UNBOUND:                -0.050
REMARK  Name = No_3103-gen_results/8p0m/2024-11-27-11-27-31/
REMARK  1 active torsions:
REMARK  status: ('A' for Active; 'I' for Inactive)
REMARK    1  A    between atoms: C_10  and  C_11
REMARK                            x       y       z     vdW  Elec       q    Type
REMARK                         _______ _______ _______ _____ _____    ______ ____
ROOT
ATOM      1  C   UNL A   1     -26.081  -4.693  29.656  0.00  0.00    +0.000 A 
ATOM      2  C   UNL A   1     -25.341  -5.233  29.135  0.00  0.00    +0.000 A 
ATOM      3  C   UNL A   1     -25.884  -3.306  29.832  0.00  0.00    +0.000 A 
ATOM      4  C   UNL A   1     -24.759  -2.662  29.357  0.00  0.00    +0.006 A 
ATOM      5  C   UNL A   1     -23.840  -3.445  28.678  0.00  0.00    +0.000 A 
ATOM      6  C   UNL A   1     -24.092  -4.788  28.498  0.00  0.00    +0.000 A 
ATOM      7  C   UNL A   1     -26.867  -2.417  30.533  0.00  0.00    +0.000 A 
ATOM      8  C   UNL A   1     -26.476  -1.096  30.817  0.00  0.00    +0.000 A 
ATOM      9  C   UNL A   1     -25.373  -0.504  30.238  0.00  0.00    +0.007 A 
ATOM     10  C   UNL A   1     -24.441  -1.305  29.581  0.00  0.00    +0.080 A 
ENDROOT
BRANCH  10  11
ATOM     11  C   UNL A   1     -23.211  -0.616  29.090  0.00  0.00    +0.388 C 
ATOM     12  O   UNL A   1     -22.199  -0.727  29.738  0.00  0.00    -0.241 OA
ATOM     13  O   UNL A   1     -23.253   0.015  27.979  0.00  0.00    -0.241 OA
ENDBRANCH  10  11
TORSDOF 1
ENDMDL
ENDMDL
