MODEL 3104
MODEL 1
REMARK VINA RESULT:    -6.071      0.000      0.000
REMARK INTER + INTRA:          -6.550
REMARK INTER:                  -6.426
REMARK INTRA:                  -0.124
REMARK UNBOUND:                -0.124
REMARK  Name = No_3104-gen_results/8p0m/2024-11-27-11-27-31/
REMARK  1 active torsions:
REMARK  status: ('A' for Active; 'I' for Inactive)
REMARK    1  A    between atoms: C_3  and  C_11
REMARK                            x       y       z     vdW  Elec       q    Type
REMARK                         _______ _______ _______ _____ _____    ______ ____
ROOT
ATOM      1  C   UNL A   1     -21.574   1.506  27.517  0.00  0.00    +0.004 A 
ATOM      2  C   UNL A   1     -21.060   0.835  28.146  0.00  0.00    -0.000 A 
ATOM      3  C   UNL A   1     -23.007   1.137  27.204  0.00  0.00    +0.071 A 
ATOM      4  C   UNL A   1     -23.597   0.038  27.863  0.00  0.00    +0.004 A 
ATOM      5  C   UNL A   1     -21.440  -0.334  28.972  0.00  0.00    -0.000 A 
ATOM      6  C   UNL A   1     -22.755  -0.699  28.716  0.00  0.00    -0.000 A 
ATOM      7  C   UNL A   1     -24.935  -0.366  27.595  0.00  0.00    -0.000 A 
ATOM      8  C   UNL A   1     -25.502  -1.152  28.130  0.00  0.00    -0.000 A 
ATOM      9  C   UNL A   1     -24.736  -1.995  29.112  0.00  0.00    -0.000 A 
ATOM     10  C   UNL A   1     -23.411  -1.806  29.334  0.00  0.00    -0.000 A 
ENDROOT
BRANCH   3  11
ATOM     11  C   UNL A   1     -23.832   1.918  26.247  0.00  0.00    +0.419 C 
ATOM     12  F   UNL A   1     -24.851   2.525  26.712  0.00  0.00    -0.166 F 
ATOM     13  F   UNL A   1     -23.093   2.803  25.480  0.00  0.00    -0.166 F 
ATOM     14  F   UNL A   1     -24.116   1.039  25.126  0.00  0.00    -0.166 F 
ENDBRANCH   3  11
TORSDOF 1
ENDMDL
ENDMDL
