REMARK  Name = outputs/IAG933/test6/raw/output_3104_IAG933_linker_design_.xyz
REMARK  9 active torsions:
REMARK  status: ('A' for Active; 'I' for Inactive)
REMARK    1  A    between atoms: C_1  and  C_2
REMARK    2  A    between atoms: C_1  and  C_8
REMARK    3  A    between atoms: C_1  and  N_40
REMARK    4  A    between atoms: C_13  and  C_37
REMARK    5  A    between atoms: C_14  and  C_15
REMARK    6  A    between atoms: C_21  and  O_22
REMARK    7  A    between atoms: O_22  and  C_23
REMARK    8  A    between atoms: C_23  and  C_24
REMARK    9  A    between atoms: C_30  and  C_31
REMARK                            x       y       z     vdW  Elec       q    Type
REMARK                         _______ _______ _______ _____ _____    ______ ____
ROOT
ATOM      1  C   UNL A   1     -22.948   0.217  28.948  0.00  0.00    +0.361 C 
ATOM      2  O   UNL A   1     -26.514   0.112  28.640  0.00  0.00    -0.171 OA
ATOM      3  C   UNL A   1     -23.331   1.562  27.151  0.00  0.00    +0.179 C 
ATOM      4  O   UNL A   1     -21.079   0.877  27.955  0.00  0.00    -0.409 OA
ATOM      5  C   UNL A   1     -20.771  -0.046  28.836  0.00  0.00    +0.426 C 
ATOM      6  C   UNL A   1     -22.386   0.938  27.983  0.00  0.00    +0.220 C 
ATOM      7  C   UNL A   1     -24.680   1.337  27.304  0.00  0.00    +0.119 C 
ATOM      8  N   UNL A   1     -21.764  -0.482  29.556  0.00  0.00    +0.009 NA
ATOM      9  C   UNL A   1     -25.213   0.779  28.605  0.00  0.00    +0.318 C 
ATOM     10  N   UNL A   1     -24.264   0.070  29.167  0.00  0.00    -0.164 N 
ENDROOT
BRANCH   7  11
ATOM     11  C   UNL A   1     -25.688   1.614  26.461  0.00  0.00    +0.023 C 
ATOM     12  C   UNL A   1     -26.250   2.920  26.395  0.00  0.00    +0.073 C 
ATOM     13  C   UNL A   1     -27.438   3.091  25.645  0.00  0.00    +0.106 C 
ATOM     14  N   UNL A   1     -28.075   2.089  25.003  0.00  0.00    -0.208 NA
ATOM     15  C   UNL A   1     -27.543   0.849  25.079  0.00  0.00    +0.253 C 
ATOM     16  C   UNL A   1     -26.354   0.576  25.777  0.00  0.00    +0.189 C 
ATOM     17  F   UNL A   1     -25.860  -0.681  25.795  0.00  0.00    -0.200 F 
BRANCH  12  18
ATOM     18  C   UNL A   1     -25.642   4.093  27.123  0.00  0.00    +0.266 C 
ATOM     19  N   UNL A   1     -25.614   5.252  26.449  0.00  0.00    -0.200 NA
ATOM     20  C   UNL A   1     -25.026   6.479  26.963  0.00  0.00    +0.139 C 
ATOM     21  O   UNL A   1     -25.143   3.966  28.243  0.00  0.00    -0.268 OA
ENDBRANCH  12  18
BRANCH  15  22
ATOM     22  O   UNL A   1     -28.193  -0.208  24.477  0.00  0.00    -0.456 OA
BRANCH  22  23
ATOM     23  C   UNL A   1     -29.460   0.005  23.866  0.00  0.00    +0.243 C 
BRANCH  23  24
ATOM     24  C   UNL A   1     -30.065  -1.377  23.573  0.00  0.00    +0.229 C 
ATOM     25  O   UNL A   1     -30.729  -1.878  24.721  0.00  0.00    -0.216 OA
ENDBRANCH  23  24
ENDBRANCH  22  23
ENDBRANCH  15  22
ENDBRANCH   7  11
BRANCH   3  26
ATOM     26  C   UNL A   1     -22.733   2.416  26.059  0.00  0.00    +0.372 C 
ATOM     27  O   UNL A   1     -23.424   3.219  25.459  0.00  0.00    -0.245 OA
ATOM     28  O   UNL A   1     -21.548   2.268  25.743  0.00  0.00    -0.245 OA
ENDBRANCH   3  26
BRANCH  10  29
ATOM     29  C   UNL A   1     -24.855  -1.012  30.143  0.00  0.00    +0.201 C 
BRANCH  29  30
ATOM     30  C   UNL A   1     -24.973  -2.505  29.788  0.00  0.00    +0.021 C 
ATOM     31  C   UNL A   1     -23.906  -3.173  29.146  0.00  0.00    -0.000 C 
ATOM     32  C   UNL A   1     -23.989  -4.549  28.853  0.00  0.00    -0.000 C 
ATOM     33  C   UNL A   1     -25.137  -5.280  29.205  0.00  0.00    -0.000 C 
ATOM     34  C   UNL A   1     -26.232  -4.611  29.784  0.00  0.00    -0.000 C 
ATOM     35  C   UNL A   1     -26.155  -3.232  30.065  0.00  0.00    -0.000 C 
ENDBRANCH  29  30
BRANCH  29  36
ATOM     36  C   UNL A   1     -25.387  -0.679  31.571  0.00  0.00    +0.120 C 
ATOM     37  C   UNL A   1     -25.189   0.773  32.028  0.00  0.00    +0.023 C 
ATOM     38  C   UNL A   1     -25.336   0.684  33.544  0.00  0.00    +0.020 C 
ATOM     39  C   UNL A   1     -24.829  -0.715  33.905  0.00  0.00    +0.089 C 
ATOM     40  N   UNL A   1     -24.758  -1.481  32.646  0.00  0.00    -0.215 NA
ENDBRANCH  29  36
ENDBRANCH  10  29
TORSDOF 9
