MODEL 3105
MODEL 1
REMARK VINA RESULT:    -5.198      0.000      0.000
REMARK INTER + INTRA:          -5.708
REMARK INTER:                  -5.502
REMARK INTRA:                  -0.206
REMARK UNBOUND:                -0.206
REMARK  Name = No_3105-gen_results/8p0m/2024-11-27-11-27-31/
REMARK  1 active torsions:
REMARK  status: ('A' for Active; 'I' for Inactive)
REMARK    1  A    between atoms: C_3  and  C_7
REMARK                            x       y       z     vdW  Elec       q    Type
REMARK                         _______ _______ _______ _____ _____    ______ ____
ROOT
ATOM      1  C   UNL A   1     -23.865  -3.809  28.541  0.00  0.00    -0.000 A 
ATOM      2  C   UNL A   1     -24.236  -4.773  28.749  0.00  0.00    -0.000 A 
ATOM      3  C   UNL A   1     -24.709  -2.731  29.069  0.00  0.00    -0.000 A 
ATOM      4  C   UNL A   1     -25.914  -2.957  29.594  0.00  0.00    -0.000 A 
ATOM      5  C   UNL A   1     -25.491  -5.257  29.271  0.00  0.00    -0.000 A 
ATOM      6  C   UNL A   1     -26.272  -4.239  29.733  0.00  0.00    -0.000 A 
ENDROOT
BRANCH   3   7
ATOM      7  C   UNL A   1     -23.986  -1.419  28.903  0.00  0.00    -0.005 C 
ATOM      8  C   UNL A   1     -22.784  -1.312  29.057  0.00  0.00    -0.026 C 
ATOM      9  C   UNL A   1     -22.073  -0.033  28.906  0.00  0.00    +0.031 C 
ENDBRANCH   3   7
TORSDOF 1
ENDMDL
ENDMDL
