REMARK  Name = outputs/IAG933/test6/raw/output_3105_IAG933_linker_design_.xyz
REMARK  15 active torsions:
REMARK  status: ('A' for Active; 'I' for Inactive)
REMARK    1  A    between atoms: C_1  and  C_2
REMARK    2  A    between atoms: C_1  and  C_8
REMARK    3  A    between atoms: C_1  and  C_38
REMARK    4  A    between atoms: C_13  and  C_41
REMARK    5  A    between atoms: C_14  and  C_15
REMARK    6  A    between atoms: C_21  and  O_22
REMARK    7  A    between atoms: O_22  and  C_23
REMARK    8  A    between atoms: C_23  and  C_24
REMARK    9  A    between atoms: C_28  and  S_31
REMARK   10  A    between atoms: O_29  and  C_39
REMARK   11  A    between atoms: S_31  and  C_38
REMARK   12  A    between atoms: N_33  and  C_38
REMARK   13  A    between atoms: N_33  and  C_41
REMARK   14  A    between atoms: C_35  and  C_46
REMARK   15  A    between atoms: C_37  and  C_46
REMARK                            x       y       z     vdW  Elec       q    Type
REMARK                         _______ _______ _______ _____ _____    ______ ____
ROOT
ATOM      1  N   UNL A   1     -25.070   0.621  28.369  0.00  0.00    -0.232 NA
ENDROOT
BRANCH   1   2
ATOM      2  C   UNL A   1     -24.674   1.255  27.563  0.00  0.00    +0.052 C 
ATOM      3  C   UNL A   1     -23.248   1.436  27.674  0.00  0.00    +0.058 C 
BRANCH   2   4
ATOM      4  C   UNL A   1     -25.688   1.614  26.461  0.00  0.00    +0.107 C 
ATOM      5  C   UNL A   1     -26.250   2.920  26.395  0.00  0.00    +0.060 C 
ATOM      6  C   UNL A   1     -27.438   3.091  25.645  0.00  0.00    +0.102 C 
ATOM      7  N   UNL A   1     -28.075   2.089  25.003  0.00  0.00    -0.212 NA
ATOM      8  C   UNL A   1     -27.543   0.849  25.079  0.00  0.00    +0.234 C 
ATOM      9  C   UNL A   1     -26.354   0.576  25.777  0.00  0.00    +0.245 C 
ATOM     10  F   UNL A   1     -25.860  -0.681  25.795  0.00  0.00    -0.227 F 
BRANCH   5  11
ATOM     11  C   UNL A   1     -25.642   4.093  27.123  0.00  0.00    +0.263 C 
ATOM     12  N   UNL A   1     -25.614   5.252  26.449  0.00  0.00    -0.200 NA
ATOM     13  C   UNL A   1     -25.026   6.479  26.963  0.00  0.00    +0.139 C 
ATOM     14  O   UNL A   1     -25.143   3.966  28.243  0.00  0.00    -0.269 OA
ENDBRANCH   5  11
BRANCH   8  15
ATOM     15  O   UNL A   1     -28.193  -0.208  24.477  0.00  0.00    -0.459 OA
BRANCH  15  16
ATOM     16  C   UNL A   1     -29.460   0.005  23.866  0.00  0.00    +0.242 C 
BRANCH  16  17
ATOM     17  C   UNL A   1     -30.065  -1.377  23.573  0.00  0.00    +0.229 C 
ATOM     18  O   UNL A   1     -30.729  -1.878  24.721  0.00  0.00    -0.216 OA
ENDBRANCH  16  17
ENDBRANCH  15  16
ENDBRANCH   8  15
ENDBRANCH   2   4
BRANCH   3  21
ATOM     19 CL   UNL A   1     -22.734   2.626  25.252  0.00  0.00    -0.072 Cl
ATOM     20  F   UNL A   1     -21.012   2.033  27.190  0.00  0.00    -0.214 F 
ATOM     21  C   UNL A   1     -22.383   1.916  26.806  0.00  0.00    +0.264 C 
ENDBRANCH   3  21
BRANCH   3  22
ATOM     22  C   UNL A   1     -22.514   0.942  28.888  0.00  0.00    +0.123 C 
ATOM     23  N   UNL A   1     -22.783   1.038  30.109  0.00  0.00    -0.146 NA
ENDBRANCH   3  22
ENDBRANCH   1   2
BRANCH   1  24
ATOM     24  C   UNL A   1     -25.584  -0.230  29.061  0.00  0.00    +0.146 C 
BRANCH  24  25
ATOM     25  C   UNL A   1     -24.855  -1.012  30.143  0.00  0.00    +0.069 C 
BRANCH  25  26
ATOM     26  C   UNL A   1     -24.973  -2.505  29.788  0.00  0.00    -0.019 C 
ATOM     27  C   UNL A   1     -23.906  -3.173  29.146  0.00  0.00    -0.004 C 
ATOM     28  C   UNL A   1     -23.989  -4.549  28.853  0.00  0.00    -0.000 C 
ATOM     29  C   UNL A   1     -25.137  -5.280  29.205  0.00  0.00    -0.000 C 
ATOM     30  C   UNL A   1     -26.232  -4.611  29.784  0.00  0.00    -0.000 C 
ATOM     31  C   UNL A   1     -26.155  -3.232  30.065  0.00  0.00    -0.004 C 
ENDBRANCH  25  26
BRANCH  25  32
ATOM     32  C   UNL A   1     -25.387  -0.679  31.571  0.00  0.00    +0.079 C 
ATOM     33  C   UNL A   1     -25.189   0.773  32.028  0.00  0.00    +0.019 C 
ATOM     34  C   UNL A   1     -25.336   0.684  33.544  0.00  0.00    +0.020 C 
ATOM     35  C   UNL A   1     -24.829  -0.715  33.905  0.00  0.00    +0.089 C 
ATOM     36  N   UNL A   1     -24.758  -1.481  32.646  0.00  0.00    -0.219 NA
ENDBRANCH  25  32
ENDBRANCH  24  25
BRANCH  24  37
ATOM     37  S   UNL A   1     -27.214  -0.902  28.641  0.00  0.00    -0.103 S 
BRANCH  37  38
ATOM     38  C   UNL A   1     -28.812  -0.336  29.089  0.00  0.00    +0.114 C 
ATOM     39  C   UNL A   1     -29.932   0.344  30.124  0.00  0.00    +0.061 C 
ATOM     40  C   UNL A   1     -30.363   0.544  27.267  0.00  0.00    +0.222 C 
ATOM     41  C   UNL A   1     -28.997   1.791  28.683  0.00  0.00    +0.206 C 
ATOM     42  C   UNL A   1     -30.358   1.591  29.391  0.00  0.00    +0.162 C 
ATOM     43  N   UNL A   1     -28.955   0.511  28.044  0.00  0.00    -0.215 NA
ATOM     44  O   UNL A   1     -31.091   1.362  28.206  0.00  0.00    -0.336 OA
BRANCH  41  45
ATOM     45  O   UNL A   1     -28.479   2.347  29.763  0.00  0.00    -0.336 OA
ATOM     46  C   UNL A   1     -29.115   3.527  30.400  0.00  0.00    +0.176 C 
ENDBRANCH  41  45
ENDBRANCH  37  38
ENDBRANCH  24  37
ENDBRANCH   1  24
TORSDOF 15
