MODEL 3106
MODEL 1
REMARK VINA RESULT:    -6.417      0.000      0.000
REMARK INTER + INTRA:          -8.869
REMARK INTER:                  -7.918
REMARK INTRA:                  -0.951
REMARK UNBOUND:                -0.951
REMARK  Name = No_3106-gen_results/8p0m/2024-11-27-11-27-31/
REMARK  4 active torsions:
REMARK  status: ('A' for Active; 'I' for Inactive)
REMARK    1  A    between atoms: C_3  and  C_7
REMARK    2  A    between atoms: C_6  and  O_13
REMARK    3  A    between atoms: O_13  and  C_14
REMARK    4  A    between atoms: C_14  and  C_15
REMARK                            x       y       z     vdW  Elec       q    Type
REMARK                         _______ _______ _______ _____ _____    ______ ____
ROOT
ATOM      1  C   UNL A   1     -26.784  -0.378  24.383  0.00  0.00    +0.037 A 
ATOM      2  C   UNL A   1     -25.749  -0.191  24.979  0.00  0.00    +0.003 A 
ATOM      3  C   UNL A   1     -25.443   0.997  25.641  0.00  0.00    -0.004 A 
ATOM      4  C   UNL A   1     -26.379   2.104  25.574  0.00  0.00    -0.019 A 
ATOM      5  C   UNL A   1     -27.549   1.852  24.860  0.00  0.00    +0.033 A 
ATOM      6  C   UNL A   1     -27.753   0.698  24.254  0.00  0.00    +0.144 A 
ATOM      7  C   UNL A   1     -26.124   3.381  26.251  0.00  0.00    +0.031 C 
ENDROOT
BRANCH   3   8
ATOM      8  C   UNL A   1     -24.192   1.307  26.404  0.00  0.00    -0.000 A 
ATOM      9  C   UNL A   1     -23.888   0.800  27.583  0.00  0.00    -0.000 A 
ATOM     10  C   UNL A   1     -22.654   1.098  28.229  0.00  0.00    -0.000 A 
ATOM     11  C   UNL A   1     -21.604   1.638  27.435  0.00  0.00    -0.000 A 
ATOM     12  C   UNL A   1     -23.053   1.899  25.713  0.00  0.00    -0.000 A 
ATOM     13  C   UNL A   1     -21.862   2.081  26.248  0.00  0.00    -0.000 A 
ENDBRANCH   3   8
BRANCH   6  14
ATOM     14  O   UNL A   1     -28.891   0.521  23.524  0.00  0.00    -0.424 OA
BRANCH  14  15
ATOM     15  C   UNL A   1     -30.008  -0.030  24.128  0.00  0.00    +0.500 C 
ATOM     16  F   UNL A   1     -29.899  -0.010  25.456  0.00  0.00    -0.156 F 
ATOM     17  F   UNL A   1     -31.087   0.758  23.852  0.00  0.00    -0.156 F 
BRANCH  15  18
ATOM     18  C   UNL A   1     -30.263  -1.366  23.614  0.00  0.00    +0.497 C 
ATOM     19  F   UNL A   1     -29.382  -1.890  22.946  0.00  0.00    -0.162 F 
ATOM     20  F   UNL A   1     -31.372  -1.334  22.759  0.00  0.00    -0.162 F 
ATOM     21  F   UNL A   1     -30.516  -2.303  24.566  0.00  0.00    -0.162 F 
ENDBRANCH  15  18
ENDBRANCH  14  15
ENDBRANCH   6  14
TORSDOF 4
ENDMDL
ENDMDL
