REMARK  Name = No_3106-gen_results/8p0m/2024-11-27-11-27-31/
REMARK  4 active torsions:
REMARK  status: ('A' for Active; 'I' for Inactive)
REMARK    1  A    between atoms: C_3  and  C_7
REMARK    2  A    between atoms: C_6  and  O_13
REMARK    3  A    between atoms: O_13  and  C_14
REMARK    4  A    between atoms: C_14  and  C_15
REMARK                            x       y       z     vdW  Elec       q    Type
REMARK                         _______ _______ _______ _____ _____    ______ ____
ROOT
ATOM      1  C   UNL A   1     -28.016  -0.814  28.878  0.00  0.00    +0.037 A 
ATOM      2  C   UNL A   1     -27.064  -0.119  28.608  0.00  0.00    +0.003 A 
ATOM      3  C   UNL A   1     -25.765  -0.390  29.036  0.00  0.00    -0.004 A 
ATOM      4  C   UNL A   1     -25.530  -1.530  29.901  0.00  0.00    -0.019 A 
ATOM      5  C   UNL A   1     -26.658  -2.292  30.203  0.00  0.00    +0.033 A 
ATOM      6  C   UNL A   1     -27.855  -1.956  29.763  0.00  0.00    +0.144 A 
ATOM      7  C   UNL A   1     -24.188  -1.878  30.384  0.00  0.00    +0.031 C 
ENDROOT
BRANCH   3   8
ATOM      8  C   UNL A   1     -24.535   0.413  28.743  0.00  0.00    -0.000 A 
ATOM      9  C   UNL A   1     -23.306   0.037  29.039  0.00  0.00    -0.000 A 
ATOM     10  C   UNL A   1     -22.176   0.828  28.684  0.00  0.00    -0.000 A 
ATOM     11  C   UNL A   1     -22.355   1.829  27.688  0.00  0.00    -0.000 A 
ATOM     12  C   UNL A   1     -24.594   1.495  27.768  0.00  0.00    -0.000 A 
ATOM     13  C   UNL A   1     -23.550   2.170  27.330  0.00  0.00    -0.000 A 
ENDBRANCH   3   8
BRANCH   6  14
ATOM     14  O   UNL A   1     -28.934  -2.705  30.130  0.00  0.00    -0.424 OA
BRANCH  14  15
ATOM     15  C   UNL A   1     -29.256  -2.825  31.470  0.00  0.00    +0.500 C 
ATOM     16  F   UNL A   1     -28.208  -2.547  32.246  0.00  0.00    -0.156 F 
ATOM     17  F   UNL A   1     -30.185  -1.876  31.783  0.00  0.00    -0.156 F 
BRANCH  15  18
ATOM     18  C   UNL A   1     -29.817  -4.137  31.748  0.00  0.00    +0.497 C 
ATOM     19  F   UNL A   1     -29.393  -5.081  31.095  0.00  0.00    -0.162 F 
ATOM     20  F   UNL A   1     -31.192  -4.123  31.481  0.00  0.00    -0.162 F 
ATOM     21  F   UNL A   1     -29.660  -4.563  33.029  0.00  0.00    -0.162 F 
ENDBRANCH  15  18
ENDBRANCH  14  15
ENDBRANCH   6  14
TORSDOF 4
