MODEL 3107
MODEL 1
REMARK VINA RESULT:    -6.354      0.000      0.000
REMARK INTER + INTRA:          -6.770
REMARK INTER:                  -6.726
REMARK INTRA:                  -0.044
REMARK UNBOUND:                -0.044
REMARK  Name = No_3107-gen_results/8p0m/2024-11-27-11-27-31/
REMARK  1 active torsions:
REMARK  status: ('A' for Active; 'I' for Inactive)
REMARK    1  A    between atoms: C_3  and  C_9
REMARK                            x       y       z     vdW  Elec       q    Type
REMARK                         _______ _______ _______ _____ _____    ______ ____
ROOT
ATOM      1  O   UNL A   1     -23.087   0.945  30.319  0.00  0.00    -0.273 OA
ATOM      2  C   UNL A   1     -23.458   0.989  29.140  0.00  0.00    +0.250 C 
ATOM      3  C   UNL A   1     -23.822  -0.019  28.437  0.00  0.00    +0.157 C 
ATOM      4  N   UNL A   1     -23.931   2.238  28.625  0.00  0.00    -0.202 NA
ATOM      5  C   UNL A   1     -24.232   0.021  27.045  0.00  0.00    +0.056 C 
ATOM      6  C   UNL A   1     -24.394   2.410  27.310  0.00  0.00    +0.150 C 
ATOM      7  C   UNL A   1     -24.549   1.323  26.522  0.00  0.00    +0.183 C 
ATOM      8  F   UNL A   1     -24.969   1.455  25.310  0.00  0.00    -0.235 F 
ENDROOT
BRANCH   3   9
ATOM      9  C   UNL A   1     -23.432  -1.398  28.919  0.00  0.00    +0.234 C 
ATOM     10  N   UNL A   1     -24.300  -2.271  29.160  0.00  0.00    -0.279 N 
ATOM     11  C   UNL A   1     -25.401  -1.997  29.571  0.00  0.00    +0.093 C 
ATOM     12  C   UNL A   1     -26.408  -3.110  29.838  0.00  0.00    +0.022 C 
ATOM     13  C   UNL A   1     -23.941  -3.626  28.883  0.00  0.00    +0.093 C 
ATOM     14  C   UNL A   1     -24.856  -4.690  29.103  0.00  0.00    +0.022 C 
ATOM     15  C   UNL A   1     -26.083  -4.390  29.668  0.00  0.00    +0.004 C 
ATOM     16  O   UNL A   1     -22.157  -1.508  28.923  0.00  0.00    -0.274 OA
ENDBRANCH   3   9
TORSDOF 1
ENDMDL
ENDMDL
