REMARK  Name = No_3107-gen_results/8p0m/2024-11-27-11-27-31/
REMARK  1 active torsions:
REMARK  status: ('A' for Active; 'I' for Inactive)
REMARK    1  A    between atoms: C_3  and  C_9
REMARK                            x       y       z     vdW  Elec       q    Type
REMARK                         _______ _______ _______ _____ _____    ______ ____
ROOT
ATOM      1  O   UNL A   1     -28.123  -1.335  28.487  0.00  0.00    -0.273 OA
ATOM      2  C   UNL A   1     -27.064  -0.824  28.869  0.00  0.00    +0.250 C 
ATOM      3  C   UNL A   1     -26.959   0.093  29.758  0.00  0.00    +0.157 C 
ATOM      4  N   UNL A   1     -25.847  -1.549  28.659  0.00  0.00    -0.202 NA
ATOM      5  C   UNL A   1     -25.722   0.718  30.192  0.00  0.00    +0.056 C 
ATOM      6  C   UNL A   1     -24.585  -1.082  29.063  0.00  0.00    +0.150 C 
ATOM      7  C   UNL A   1     -24.512   0.034  29.822  0.00  0.00    +0.183 C 
ATOM      8  F   UNL A   1     -23.365   0.485  30.202  0.00  0.00    -0.235 F 
ENDROOT
BRANCH   3   9
ATOM      9  C   UNL A   1     -28.198   0.886  30.109  0.00  0.00    +0.234 C 
ATOM     10  N   UNL A   1     -28.673   1.732  29.314  0.00  0.00    -0.279 N 
ATOM     11  C   UNL A   1     -27.985   2.373  28.558  0.00  0.00    +0.093 C 
ATOM     12  C   UNL A   1     -28.632   3.381  27.616  0.00  0.00    +0.022 C 
ATOM     13  C   UNL A   1     -30.095   1.880  29.310  0.00  0.00    +0.093 C 
ATOM     14  C   UNL A   1     -30.737   2.796  28.436  0.00  0.00    +0.022 C 
ATOM     15  C   UNL A   1     -29.945   3.604  27.639  0.00  0.00    +0.004 C 
ATOM     16  O   UNL A   1     -28.670   0.476  31.226  0.00  0.00    -0.274 OA
ENDBRANCH   3   9
TORSDOF 1
