REMARK  Name = No_3108-gen_results/8p0m/2024-11-27-11-27-31/
REMARK  2 active torsions:
REMARK  status: ('A' for Active; 'I' for Inactive)
REMARK    1  A    between atoms: C_7  and  C_12
REMARK    2  A    between atoms: C_12  and  C_13
REMARK                            x       y       z     vdW  Elec       q    Type
REMARK                         _______ _______ _______ _____ _____    ______ ____
ROOT
ATOM      1  O   UNL A   1     -28.123  -1.335  28.487  0.00  0.00    -0.249 OA
ATOM      2  C   UNL A   1     -27.481  -0.404  28.709  0.00  0.00    +0.345 C 
ATOM      3  N   UNL A   1     -27.241   0.391  29.510  0.00  0.00    -0.184 NA
ATOM      4  N   UNL A   1     -26.481  -0.143  27.542  0.00  0.00    -0.142 NA
ATOM      5  C   UNL A   1     -25.587   0.805  27.640  0.00  0.00    +0.154 A 
ATOM      6  C   UNL A   1     -25.548   1.627  28.730  0.00  0.00    +0.031 A 
ATOM      7  C   UNL A   1     -26.361   1.381  29.764  0.00  0.00    +0.126 C 
ATOM      8  N   UNL A   1     -24.685   0.787  26.648  0.00  0.00    -0.228 NA
ATOM      9  C   UNL A   1     -23.691   1.621  26.596  0.00  0.00    +0.100 A 
ATOM     10  C   UNL A   1     -23.419   2.468  27.722  0.00  0.00    +0.021 A 
ATOM     11  C   UNL A   1     -24.326   2.493  28.708  0.00  0.00    +0.002 A 
ENDROOT
BRANCH   7  12
ATOM     12  C   UNL A   1     -26.366   2.189  30.990  0.00  0.00    +0.047 C 
ATOM     13  C   UNL A   1     -25.023   2.015  31.692  0.00  0.00    +0.007 C 
BRANCH  12  14
ATOM     14  C   UNL A   1     -27.371   2.750  31.352  0.00  0.00    -0.021 A 
ATOM     15  C   UNL A   1     -28.346   2.909  31.181  0.00  0.00    -0.004 A 
ATOM     16  C   UNL A   1     -29.304   3.593  31.443  0.00  0.00    -0.000 A 
ATOM     17  C   UNL A   1     -29.105   4.415  32.647  0.00  0.00    -0.000 A 
ATOM     18  C   UNL A   1     -27.877   4.380  33.221  0.00  0.00    -0.000 A 
ATOM     19  C   UNL A   1     -26.877   3.635  32.642  0.00  0.00    -0.004 A 
ENDBRANCH  12  14
ENDBRANCH   7  12
TORSDOF 2
