MODEL 3109
MODEL 1
REMARK VINA RESULT:    -8.055      0.000      0.000
REMARK INTER + INTRA:         -10.963
REMARK INTER:                  -9.938
REMARK INTRA:                  -1.025
REMARK UNBOUND:                -1.025
REMARK  Name = No_3109-gen_results/8p0m/2024-11-27-11-27-31/
REMARK  4 active torsions:
REMARK  status: ('A' for Active; 'I' for Inactive)
REMARK    1  A    between atoms: C_2  and  C_7
REMARK    2  A    between atoms: C_6  and  C_13
REMARK    3  A    between atoms: C_9  and  C_23
REMARK    4  A    between atoms: N_14  and  C_16
REMARK                            x       y       z     vdW  Elec       q    Type
REMARK                         _______ _______ _______ _____ _____    ______ ____
ROOT
ATOM      1  C   UNL A   1     -10.350  -1.166  39.215  0.00  0.00    +0.005 A 
ATOM      2  C   UNL A   1     -10.602  -1.222  38.033  0.00  0.00    +0.000 A 
ATOM      3  C   UNL A   1     -11.684  -1.958  37.565  0.00  0.00    +0.000 A 
ATOM      4  C   UNL A   1     -12.513  -2.714  38.468  0.00  0.00    +0.000 A 
ATOM      5  C   UNL A   1     -12.136  -2.612  39.813  0.00  0.00    +0.005 A 
ATOM      6  C   UNL A   1     -11.093  -1.916  40.203  0.00  0.00    +0.055 A 
ENDROOT
BRANCH   2   7
ATOM      7  C   UNL A   1      -9.840  -0.530  36.959  0.00  0.00    +0.002 A 
ATOM      8  C   UNL A   1      -8.703  -0.719  36.557  0.00  0.00    +0.000 A 
ATOM      9  C   UNL A   1      -8.085  -0.058  35.400  0.00  0.00    +0.002 A 
ATOM     10  C   UNL A   1      -8.872   0.898  34.724  0.00  0.00    +0.030 A 
ATOM     11  C   UNL A   1     -10.617   0.458  36.172  0.00  0.00    +0.030 A 
ATOM     12  C   UNL A   1     -10.120   1.107  35.140  0.00  0.00    +0.140 A 
ATOM     13  F   UNL A   1     -10.865   1.992  34.481  0.00  0.00    -0.204 F 
BRANCH   9  14
ATOM     14  C   UNL A   1      -6.689  -0.404  34.985  0.00  0.00    +0.000 A 
ATOM     15  C   UNL A   1      -5.750   0.431  34.940  0.00  0.00    +0.000 A 
ATOM     16  C   UNL A   1      -4.432   0.032  34.611  0.00  0.00    +0.000 A 
ATOM     17  C   UNL A   1      -4.204  -1.329  34.218  0.00  0.00    +0.000 A 
ATOM     18  C   UNL A   1      -5.266  -2.223  34.182  0.00  0.00    +0.000 A 
ATOM     19  C   UNL A   1      -6.541  -1.808  34.594  0.00  0.00    +0.000 A 
ENDBRANCH   9  14
ENDBRANCH   2   7
BRANCH   6  20
ATOM     20  C   UNL A   1     -10.772  -1.975  41.648  0.00  0.00    +0.269 C 
ATOM     21  N   UNL A   1     -10.029  -2.921  42.188  0.00  0.00    -0.175 NA
ATOM     22  O   UNL A   1     -11.312  -1.145  42.422  0.00  0.00    -0.268 OA
BRANCH  21  23
ATOM     23  C   UNL A   1      -9.791  -3.105  43.609  0.00  0.00    +0.074 A 
ATOM     24  C   UNL A   1     -10.690  -3.875  44.241  0.00  0.00    +0.017 A 
ATOM     25  C   UNL A   1     -10.294  -4.516  45.362  0.00  0.00    +0.001 A 
ATOM     26  C   UNL A   1      -9.010  -4.255  45.958  0.00  0.00    +0.000 A 
ATOM     27  C   UNL A   1      -8.109  -3.438  45.257  0.00  0.00    +0.001 A 
ATOM     28  C   UNL A   1      -8.575  -2.483  43.969  0.00  0.00    +0.017 A 
ENDBRANCH  21  23
ENDBRANCH   6  20
TORSDOF 4
ENDMDL
ENDMDL
