MODEL 310
MODEL 1
REMARK VINA RESULT:    -6.884      0.000      0.000
REMARK INTER + INTRA:          -9.384
REMARK INTER:                  -8.896
REMARK INTRA:                  -0.488
REMARK UNBOUND:                -0.488
REMARK  Name = No_310-gen_results/8p0m/2024-11-27-11-27-31/
REMARK  5 active torsions:
REMARK  status: ('A' for Active; 'I' for Inactive)
REMARK    1  A    between atoms: C_1  and  C_2
REMARK    2  A    between atoms: C_5  and  C_9
REMARK    3  A    between atoms: N_8  and  C_14
REMARK    4  A    between atoms: C_17  and  O_21
REMARK    5  A    between atoms: O_21  and  C_22
REMARK                            x       y       z     vdW  Elec       q    Type
REMARK                         _______ _______ _______ _____ _____    ______ ____
ROOT
ATOM      1  C   UNL A   1     -25.968   0.671  25.018  0.00  0.00    +0.253 C 
ATOM      2  N   UNL A   1     -25.779   0.811  26.461  0.00  0.00    -0.253 N 
ATOM      3  O   UNL A   1     -25.055  -0.037  24.493  0.00  0.00    -0.270 OA
ATOM      4  C   UNL A   1     -26.802   1.491  27.289  0.00  0.00    +0.120 C 
ENDROOT
BRANCH   1   5
ATOM      5  C   UNL A   1     -27.081   0.791  24.561  0.00  0.00    +0.054 A 
ATOM      6  C   UNL A   1     -27.599   1.968  24.127  0.00  0.00    +0.004 A 
ATOM      7  C   UNL A   1     -28.958   2.133  23.564  0.00  0.00    +0.004 A 
ATOM      8  C   UNL A   1     -29.763   0.951  23.456  0.00  0.00    +0.071 A 
ATOM      9  C   UNL A   1     -29.162  -0.265  23.851  0.00  0.00    +0.004 A 
ATOM     10  C   UNL A   1     -27.893  -0.341  24.366  0.00  0.00    +0.004 A 
BRANCH   8  11
ATOM     11  C   UNL A   1     -31.089   0.977  22.917  0.00  0.00    +0.419 C 
ATOM     12  F   UNL A   1     -31.261   1.568  21.952  0.00  0.00    -0.166 F 
ATOM     13  F   UNL A   1     -31.979   1.491  23.857  0.00  0.00    -0.166 F 
ATOM     14  F   UNL A   1     -31.540  -0.321  22.812  0.00  0.00    -0.166 F 
ENDBRANCH   8  11
ENDBRANCH   1   5
BRANCH   2  15
ATOM     15  C   UNL A   1     -24.503   0.692  27.173  0.00  0.00    +0.057 A 
ATOM     16  C   UNL A   1     -24.259  -0.056  27.791  0.00  0.00    +0.052 A 
ATOM     17  C   UNL A   1     -22.914  -0.154  28.511  0.00  0.00    +0.147 A 
ATOM     18  C   UNL A   1     -21.954   0.795  28.145  0.00  0.00    +0.038 A 
ATOM     19  C   UNL A   1     -22.278   1.788  27.252  0.00  0.00    +0.004 A 
ATOM     20  C   UNL A   1     -23.558   1.770  26.702  0.00  0.00    +0.015 A 
BRANCH  17  21
ATOM     21  O   UNL A   1     -22.658  -1.106  29.417  0.00  0.00    -0.447 OA
BRANCH  21  22
ATOM     22  C   UNL A   1     -23.516  -1.377  30.373  0.00  0.00    +0.225 C 
ATOM     23  C   UNL A   1     -23.299  -0.626  31.587  0.00  0.00    +0.275 C 
ATOM     24  O   UNL A   1     -22.379  -1.039  32.211  0.00  0.00    -0.280 OA
ENDBRANCH  21  22
ENDBRANCH  17  21
ENDBRANCH   2  15
TORSDOF 5
ENDMDL
ENDMDL
