REMARK  Name = outputs/IAG933/test6/raw/output_311_IAG933_linker_design_.xyz
REMARK  13 active torsions:
REMARK  status: ('A' for Active; 'I' for Inactive)
REMARK    1  A    between atoms: C_1  and  C_2
REMARK    2  A    between atoms: C_1  and  C_8
REMARK    3  A    between atoms: C_1  and  C_43
REMARK    4  A    between atoms: C_13  and  C_28
REMARK    5  A    between atoms: C_14  and  C_15
REMARK    6  A    between atoms: C_21  and  O_22
REMARK    7  A    between atoms: O_22  and  C_23
REMARK    8  A    between atoms: C_23  and  C_24
REMARK    9  A    between atoms: C_28  and  C_39
REMARK   10  A    between atoms: C_34  and  N_38
REMARK   11  A    between atoms: C_39  and  C_42
REMARK   12  A    between atoms: N_40  and  C_43
REMARK   13  A    between atoms: C_42  and  C_43
REMARK                            x       y       z     vdW  Elec       q    Type
REMARK                         _______ _______ _______ _____ _____    ______ ____
ROOT
ATOM      1  C   UNL A   1     -24.879  -0.027  28.921  0.00  0.00    +0.120 C 
ENDROOT
BRANCH   1   4
ATOM      2  C   UNL A   1     -27.144   0.983  29.346  0.00  0.00    +0.344 C 
ATOM      3  N   UNL A   1     -28.109   1.960  29.796  0.00  0.00    -0.161 NA
ATOM      4  N   UNL A   1     -25.732   1.143  29.171  0.00  0.00    -0.187 NA
ATOM      5  O   UNL A   1     -27.596  -0.153  29.171  0.00  0.00    -0.249 OA
BRANCH   3   9
ATOM      6  C   UNL A   1     -27.064   4.128  30.318  0.00  0.00    +0.017 C 
ATOM      7  C   UNL A   1     -29.369   4.097  29.653  0.00  0.00    +0.017 C 
ATOM      8  C   UNL A   1     -29.363   5.511  29.568  0.00  0.00    +0.001 C 
ATOM      9  C   UNL A   1     -28.192   3.382  29.919  0.00  0.00    +0.075 C 
ATOM     10  C   UNL A   1     -27.015   5.520  30.169  0.00  0.00    +0.001 C 
ATOM     11  C   UNL A   1     -28.173   6.185  29.745  0.00  0.00    +0.000 C 
ENDBRANCH   3   9
ENDBRANCH   1   4
BRANCH   1  13
ATOM     12  N   UNL A   1     -22.706   0.501  29.888  0.00  0.00    -0.131 NA
ATOM     13  C   UNL A   1     -23.445   0.347  28.644  0.00  0.00    +0.112 C 
BRANCH  13  15
ATOM     14  C   UNL A   1     -21.896   1.947  27.478  0.00  0.00    +0.002 C 
ATOM     15  C   UNL A   1     -23.351   1.642  27.819  0.00  0.00    +0.020 C 
BRANCH  15  16
ATOM     16  C   UNL A   1     -24.206   1.456  26.666  0.00  0.00    +0.009 C 
BRANCH  16  17
ATOM     17  C   UNL A   1     -25.688   1.614  26.461  0.00  0.00    +0.070 C 
ATOM     18  C   UNL A   1     -26.250   2.920  26.395  0.00  0.00    +0.055 C 
ATOM     19  C   UNL A   1     -27.438   3.091  25.645  0.00  0.00    +0.102 C 
ATOM     20  N   UNL A   1     -28.075   2.089  25.003  0.00  0.00    -0.212 NA
ATOM     21  C   UNL A   1     -27.543   0.849  25.079  0.00  0.00    +0.234 C 
ATOM     22  C   UNL A   1     -26.354   0.576  25.777  0.00  0.00    +0.240 C 
ATOM     23  F   UNL A   1     -25.860  -0.681  25.795  0.00  0.00    -0.227 F 
BRANCH  18  24
ATOM     24  C   UNL A   1     -25.642   4.093  27.123  0.00  0.00    +0.262 C 
ATOM     25  N   UNL A   1     -25.614   5.252  26.449  0.00  0.00    -0.200 NA
ATOM     26  C   UNL A   1     -25.026   6.479  26.963  0.00  0.00    +0.139 C 
ATOM     27  O   UNL A   1     -25.143   3.966  28.243  0.00  0.00    -0.269 OA
ENDBRANCH  18  24
BRANCH  21  28
ATOM     28  O   UNL A   1     -28.193  -0.208  24.477  0.00  0.00    -0.459 OA
BRANCH  28  29
ATOM     29  C   UNL A   1     -29.460   0.005  23.866  0.00  0.00    +0.242 C 
BRANCH  29  30
ATOM     30  C   UNL A   1     -30.065  -1.377  23.573  0.00  0.00    +0.229 C 
ATOM     31  O   UNL A   1     -30.729  -1.878  24.721  0.00  0.00    -0.216 OA
ENDBRANCH  29  30
ENDBRANCH  28  29
ENDBRANCH  21  28
ENDBRANCH  16  17
ENDBRANCH  15  16
ENDBRANCH  13  15
ENDBRANCH   1  13
BRANCH   1  32
ATOM     32  C   UNL A   1     -24.855  -1.012  30.143  0.00  0.00    +0.060 C 
BRANCH  32  33
ATOM     33  C   UNL A   1     -24.973  -2.505  29.788  0.00  0.00    -0.019 C 
ATOM     34  C   UNL A   1     -23.906  -3.173  29.146  0.00  0.00    -0.004 C 
ATOM     35  C   UNL A   1     -23.989  -4.549  28.853  0.00  0.00    -0.000 C 
ATOM     36  C   UNL A   1     -25.137  -5.280  29.205  0.00  0.00    -0.000 C 
ATOM     37  C   UNL A   1     -26.232  -4.611  29.784  0.00  0.00    -0.000 C 
ATOM     38  C   UNL A   1     -26.155  -3.232  30.065  0.00  0.00    -0.004 C 
ENDBRANCH  32  33
BRANCH  32  39
ATOM     39  C   UNL A   1     -25.387  -0.679  31.571  0.00  0.00    +0.079 C 
ATOM     40  C   UNL A   1     -25.189   0.773  32.028  0.00  0.00    +0.019 C 
ATOM     41  C   UNL A   1     -25.336   0.684  33.544  0.00  0.00    +0.020 C 
ATOM     42  C   UNL A   1     -24.829  -0.715  33.905  0.00  0.00    +0.089 C 
ATOM     43  N   UNL A   1     -24.758  -1.481  32.646  0.00  0.00    -0.219 NA
ENDBRANCH  32  39
ENDBRANCH   1  32
TORSDOF 13
