REMARK  Name = outputs/IAG933/test6/raw/output_3110_IAG933_linker_design_.xyz
REMARK  17 active torsions:
REMARK  status: ('A' for Active; 'I' for Inactive)
REMARK    1  A    between atoms: C_1  and  C_2
REMARK    2  A    between atoms: C_1  and  C_8
REMARK    3  A    between atoms: C_1  and  C_36
REMARK    4  A    between atoms: C_13  and  C_35
REMARK    5  A    between atoms: C_14  and  C_15
REMARK    6  A    between atoms: C_21  and  O_22
REMARK    7  A    between atoms: O_22  and  C_23
REMARK    8  A    between atoms: C_23  and  C_24
REMARK    9  A    between atoms: C_28  and  C_36
REMARK   10  A    between atoms: C_28  and  C_37
REMARK   11  A    between atoms: C_29  and  C_38
REMARK   12  A    between atoms: N_31  and  CA_33
REMARK   13  A    between atoms: N_31  and  C_35
REMARK   14  A    between atoms: C_35  and  C_36
REMARK   15  A    between atoms: C_37  and  C_40
REMARK   16  A    between atoms: C_38  and  O_39
REMARK   17  A    between atoms: O_39  and  C_40
REMARK                            x       y       z     vdW  Elec       q    Type
REMARK                         _______ _______ _______ _____ _____    ______ ____
ROOT
ATOM      1  C   UNK     1     -24.963   1.111  27.724  0.00  0.00    +0.107 C 
ENDROOT
BRANCH   1   2
ATOM      2  C   UNK     1     -25.688   1.614  26.461  0.00  0.00    +0.090 C 
ATOM      3  C   UNK     1     -26.250   2.920  26.395  0.00  0.00    +0.057 C 
ATOM      4  C   UNK     1     -27.438   3.091  25.645  0.00  0.00    +0.102 C 
ATOM      5  N   UNK     1     -28.075   2.089  25.003  0.00  0.00    -0.212 NA
ATOM      6  C   UNK     1     -27.543   0.849  25.079  0.00  0.00    +0.234 C 
ATOM      7  C   UNK     1     -26.354   0.576  25.777  0.00  0.00    +0.242 C 
ATOM      8  F   UNK     1     -25.860  -0.681  25.795  0.00  0.00    -0.227 F 
BRANCH   3   9
ATOM      9  C   UNK     1     -25.642   4.093  27.123  0.00  0.00    +0.263 C 
ATOM     10  N   UNK     1     -25.614   5.252  26.449  0.00  0.00    -0.200 NA
ATOM     11  C   UNK     1     -25.026   6.479  26.963  0.00  0.00    +0.139 C 
ATOM     12  O   UNK     1     -25.143   3.966  28.243  0.00  0.00    -0.269 OA
ENDBRANCH   3   9
BRANCH   6  13
ATOM     13  O   UNK     1     -28.193  -0.208  24.477  0.00  0.00    -0.459 OA
BRANCH  13  14
ATOM     14  C   UNK     1     -29.460   0.005  23.866  0.00  0.00    +0.242 C 
BRANCH  14  15
ATOM     15  C   UNK     1     -30.065  -1.377  23.573  0.00  0.00    +0.229 C 
ATOM     16  O   UNK     1     -30.729  -1.878  24.721  0.00  0.00    -0.216 OA
ENDBRANCH  14  15
ENDBRANCH  13  14
ENDBRANCH   6  13
ENDBRANCH   1   2
BRANCH   1  17
ATOM     17  N   ALA A   1     -23.621   1.342  27.223  0.00  0.00    -0.232 NA
BRANCH  17  19
ATOM     18  O   ALA A   1     -22.407  -0.329  29.741  0.00  0.00    -0.230 OA
ATOM     19  CA  ALA A   1     -22.707   1.060  27.917  0.00  0.00    +0.118 C 
ATOM     20  CB  ALA A   1     -21.216   1.424  27.545  0.00  0.00    +0.061 C 
ATOM     21  C   ALA A   1     -22.736   0.243  28.914  0.00  0.00    +0.145 C 
ENDBRANCH  17  19
ENDBRANCH   1  17
BRANCH   1  22
ATOM     22  C   UNK     1     -25.327   0.074  28.950  0.00  0.00    +0.083 C 
BRANCH  22  23
ATOM     23  C   UNK     1     -26.881   0.118  28.848  0.00  0.00    +0.155 C 
ATOM     24  O   UNK     1     -27.447  -0.909  28.662  0.00  0.00    -0.296 OA
BRANCH  23  25
ATOM     25  C   UNK     1     -27.663   1.391  28.943  0.00  0.00    +0.097 C 
BRANCH  25  26
ATOM     26  C   UNK     1     -29.238   1.095  29.112  0.00  0.00    +0.150 C 
BRANCH  26  27
ATOM     27  O   UNK     1     -29.568   0.355  27.908  0.00  0.00    -0.350 OA
BRANCH  27  28
ATOM     28  C   UNK     1     -30.641   1.008  27.238  0.00  0.00    +0.178 C 
BRANCH  28  29
ATOM     29  C   UNK     1     -31.832   1.300  28.162  0.00  0.00    +0.214 C 
ATOM     30  O   UNK     1     -32.453   0.229  28.657  0.00  0.00    -0.218 OA
ENDBRANCH  28  29
ENDBRANCH  27  28
ENDBRANCH  26  27
ENDBRANCH  25  26
ENDBRANCH  23  25
ENDBRANCH  22  23
BRANCH  22  31
ATOM     31  C   UNK     1     -24.855  -1.012  30.143  0.00  0.00    +0.047 C 
BRANCH  31  32
ATOM     32  C   UNK     1     -24.973  -2.505  29.788  0.00  0.00    -0.021 C 
ATOM     33  C   UNK     1     -23.906  -3.173  29.146  0.00  0.00    -0.004 C 
ATOM     34  C   UNK     1     -23.989  -4.549  28.853  0.00  0.00    -0.000 C 
ATOM     35  C   UNK     1     -25.137  -5.280  29.205  0.00  0.00    -0.000 C 
ATOM     36  C   UNK     1     -26.232  -4.611  29.784  0.00  0.00    -0.000 C 
ATOM     37  C   UNK     1     -26.155  -3.232  30.065  0.00  0.00    -0.004 C 
ENDBRANCH  31  32
BRANCH  31  38
ATOM     38  C   UNK     1     -25.387  -0.679  31.571  0.00  0.00    +0.077 C 
ATOM     39  C   UNK     1     -25.189   0.773  32.028  0.00  0.00    +0.019 C 
ATOM     40  C   UNK     1     -25.336   0.684  33.544  0.00  0.00    +0.020 C 
ATOM     41  C   UNK     1     -24.829  -0.715  33.905  0.00  0.00    +0.089 C 
ATOM     42  N   UNK     1     -24.758  -1.481  32.646  0.00  0.00    -0.219 NA
ENDBRANCH  31  38
ENDBRANCH  22  31
ENDBRANCH   1  22
TORSDOF 17
