MODEL 3110
MODEL 1
REMARK VINA RESULT:    -7.645      0.000      0.000
REMARK INTER + INTRA:         -13.806
REMARK INTER:                 -10.327
REMARK INTRA:                  -3.479
REMARK UNBOUND:                -3.479
REMARK  Name = No_3110-gen_results/8p0m/2024-11-27-11-27-31/
REMARK  6 active torsions:
REMARK  status: ('A' for Active; 'I' for Inactive)
REMARK    1  A    between atoms: C_2  and  C_24
REMARK    2  A    between atoms: C_3  and  C_4
REMARK    3  A    between atoms: C_5  and  C_6
REMARK    4  A    between atoms: C_6  and  C_7
REMARK    5  A    between atoms: C_14  and  C_20
REMARK    6  A    between atoms: N_22  and  C_23
REMARK                            x       y       z     vdW  Elec       q    Type
REMARK                         _______ _______ _______ _____ _____    ______ ____
ROOT
ATOM      1  C   UNL A   1     -24.204  -0.162  27.781  0.00  0.00    -0.003 C 
ATOM      2  C   UNL A   1     -23.248   0.241  28.054  0.00  0.00    -0.036 C 
ATOM      3  C   UNL A   1     -24.896   0.344  26.556  0.00  0.00    +0.051 C 
ATOM      4  C   UNL A   1     -23.948   1.226  26.032  0.00  0.00    -0.017 C 
ATOM      5  C   UNL A   1     -22.879   1.314  27.051  0.00  0.00    +0.048 C 
ENDROOT
BRANCH   1   8
ATOM      6  C   UNL A   1     -24.607  -2.641  28.280  0.00  0.00    +0.007 A 
ATOM      7  C   UNL A   1     -25.175  -3.292  28.884  0.00  0.00    +0.080 A 
ATOM      8  C   UNL A   1     -25.011  -1.234  28.395  0.00  0.00    -0.000 A 
ATOM      9  C   UNL A   1     -26.406  -3.142  29.640  0.00  0.00    +0.007 A 
ATOM     10  C   UNL A   1     -26.130  -0.942  29.099  0.00  0.00    -0.000 A 
ATOM     11  C   UNL A   1     -26.832  -1.872  29.726  0.00  0.00    +0.000 A 
BRANCH   7  12
ATOM     12  C   UNL A   1     -24.710  -4.897  28.913  0.00  0.00    +0.388 C 
ATOM     13  O   UNL A   1     -25.267  -5.598  29.623  0.00  0.00    -0.241 OA
ATOM     14  O   UNL A   1     -23.775  -5.269  28.148  0.00  0.00    -0.241 OA
ENDBRANCH   7  12
ENDBRANCH   1   8
BRANCH   3  15
ATOM     15  C   UNL A   1     -26.095  -0.027  25.879  0.00  0.00    +0.265 C 
ATOM     16  O   UNL A   1     -26.166  -0.954  25.043  0.00  0.00    -0.268 OA
ATOM     17  N   UNL A   1     -27.226   0.680  26.156  0.00  0.00    -0.202 NA
BRANCH  17  18
ATOM     18  C   UNL A   1     -28.471   0.414  25.531  0.00  0.00    +0.116 C 
ATOM     19  C   UNL A   1     -28.715   1.364  24.439  0.00  0.00    +0.025 C 
ENDBRANCH  17  18
ENDBRANCH   3  15
BRANCH   2  20
ATOM     20  C   UNL A   1     -22.546   0.297  29.177  0.00  0.00    +0.041 C 
ATOM     21  C   UNL A   1     -20.959   0.160  28.867  0.00  0.00    +0.009 C 
BRANCH  20  22
ATOM     22  C   UNL A   1     -22.700   0.364  30.302  0.00  0.00    -0.019 A 
ATOM     23  C   UNL A   1     -22.661  -0.696  31.211  0.00  0.00    -0.004 A 
ATOM     24  C   UNL A   1     -23.429  -1.230  31.704  0.00  0.00    -0.000 A 
ATOM     25  C   UNL A   1     -24.348  -0.383  32.573  0.00  0.00    -0.000 A 
ATOM     26  C   UNL A   1     -24.497   0.864  32.050  0.00  0.00    -0.000 A 
ATOM     27  C   UNL A   1     -23.794   1.344  30.916  0.00  0.00    -0.004 A 
ENDBRANCH  20  22
ENDBRANCH   2  20
TORSDOF 6
ENDMDL
ENDMDL
