MODEL 3111
MODEL 1
REMARK VINA RESULT:    -4.558      0.000      0.000
REMARK INTER + INTRA:          -4.558
REMARK INTER:                  -4.558
REMARK INTRA:                   0.000
REMARK UNBOUND:                 0.000
REMARK  Name = No_3111-gen_results/8p0m/2024-11-27-11-27-31/
REMARK  0 active torsions:
REMARK  status: ('A' for Active; 'I' for Inactive)
REMARK                            x       y       z     vdW  Elec       q    Type
REMARK                         _______ _______ _______ _____ _____    ______ ____
ROOT
ATOM      1  C   UNL A   1     -10.214  -9.784  18.321  0.00  0.00    +0.030 A 
ATOM      2  C   UNL A   1      -9.243 -10.434  18.009  0.00  0.00    +0.140 A 
ATOM      3  C   UNL A   1      -8.118 -10.525  18.762  0.00  0.00    +0.030 A 
ATOM      4  C   UNL A   1      -8.071  -9.823  19.982  0.00  0.00    +0.002 A 
ATOM      5  C   UNL A   1     -10.273  -9.119  19.598  0.00  0.00    +0.002 A 
ATOM      6  C   UNL A   1      -9.157  -9.156  20.379  0.00  0.00    +0.000 A 
ATOM      7  F   UNL A   1      -9.215 -11.137  16.847  0.00  0.00    -0.204 F 
ENDROOT
TORSDOF 0
ENDMDL
ENDMDL
