REMARK  Name = outputs/IAG933/test6/raw/output_3111_IAG933_linker_design_.xyz
REMARK  11 active torsions:
REMARK  status: ('A' for Active; 'I' for Inactive)
REMARK    1  A    between atoms: C_1  and  C_2
REMARK    2  A    between atoms: C_1  and  C_8
REMARK    3  A    between atoms: C_1  and  C_29
REMARK    4  A    between atoms: C_13  and  C_34
REMARK    5  A    between atoms: C_14  and  C_15
REMARK    6  A    between atoms: C_21  and  O_22
REMARK    7  A    between atoms: O_22  and  C_23
REMARK    8  A    between atoms: C_23  and  C_24
REMARK    9  A    between atoms: C_29  and  C_33
REMARK   10  A    between atoms: C_32  and  C_41
REMARK   11  A    between atoms: C_36  and  C_42
REMARK                            x       y       z     vdW  Elec       q    Type
REMARK                         _______ _______ _______ _____ _____    ______ ____
ROOT
ATOM      1  C   UNL A   1     -21.744   1.010  27.889  0.00  0.00    +0.166 A 
ATOM      2  C   UNL A   1     -24.236   0.671  28.236  0.00  0.00    +0.036 A 
ATOM      3  C   UNL A   1     -24.404   1.329  27.095  0.00  0.00    +0.008 A 
ATOM      4  F   UNL A   1     -20.375   1.040  28.343  0.00  0.00    -0.202 F 
ATOM      5  C   UNL A   1     -21.990   1.673  26.734  0.00  0.00    +0.168 A 
ATOM      6  F   UNL A   1     -20.903   2.051  26.057  0.00  0.00    -0.202 F 
ATOM      7  C   UNL A   1     -22.898   0.385  28.511  0.00  0.00    +0.043 A 
ATOM      8  C   UNL A   1     -23.304   1.841  26.292  0.00  0.00    +0.071 A 
ENDROOT
BRANCH   3   9
ATOM      9  C   UNL A   1     -25.688   1.614  26.461  0.00  0.00    +0.038 C 
ATOM     10  C   UNL A   1     -26.250   2.920  26.395  0.00  0.00    +0.076 C 
ATOM     11  C   UNL A   1     -27.438   3.091  25.645  0.00  0.00    +0.107 C 
ATOM     12  N   UNL A   1     -28.075   2.089  25.003  0.00  0.00    -0.208 NA
ATOM     13  C   UNL A   1     -27.543   0.849  25.079  0.00  0.00    +0.253 C 
ATOM     14  C   UNL A   1     -26.354   0.576  25.777  0.00  0.00    +0.193 C 
ATOM     15  F   UNL A   1     -25.860  -0.681  25.795  0.00  0.00    -0.199 F 
BRANCH  10  16
ATOM     16  C   UNL A   1     -25.642   4.093  27.123  0.00  0.00    +0.266 C 
ATOM     17  N   UNL A   1     -25.614   5.252  26.449  0.00  0.00    -0.200 NA
ATOM     18  C   UNL A   1     -25.026   6.479  26.963  0.00  0.00    +0.139 C 
ATOM     19  O   UNL A   1     -25.143   3.966  28.243  0.00  0.00    -0.268 OA
ENDBRANCH  10  16
BRANCH  13  20
ATOM     20  O   UNL A   1     -28.193  -0.208  24.477  0.00  0.00    -0.456 OA
BRANCH  20  21
ATOM     21  C   UNL A   1     -29.460   0.005  23.866  0.00  0.00    +0.243 C 
BRANCH  21  22
ATOM     22  C   UNL A   1     -30.065  -1.377  23.573  0.00  0.00    +0.229 C 
ATOM     23  O   UNL A   1     -30.729  -1.878  24.721  0.00  0.00    -0.216 OA
ENDBRANCH  21  22
ENDBRANCH  20  21
ENDBRANCH  13  20
ENDBRANCH   3   9
BRANCH   8  25
ATOM     24  O   UNL A   1     -24.317   3.360  24.987  0.00  0.00    -0.179 OA
ATOM     25  C   UNL A   1     -23.258   2.613  25.038  0.00  0.00    +0.334 C 
ATOM     26  F   UNL A   1     -22.420   2.494  24.353  0.00  0.00    -0.196 F 
ENDBRANCH   8  25
BRANCH   7  28
ATOM     27  O   UNL A   1     -21.416  -1.211  28.755  0.00  0.00    -0.215 OA
ATOM     28  C   UNL A   1     -22.377  -0.549  29.484  0.00  0.00    +0.211 C 
ENDBRANCH   7  28
BRANCH   2  29
ATOM     29  C   UNL A   1     -25.304  -0.006  29.061  0.00  0.00    +0.178 C 
ATOM     30  O   UNL A   1     -26.536   0.205  28.867  0.00  0.00    -0.291 OA
BRANCH  29  31
ATOM     31  C   UNL A   1     -24.855  -1.012  30.143  0.00  0.00    +0.100 C 
BRANCH  31  32
ATOM     32  C   UNL A   1     -24.973  -2.505  29.788  0.00  0.00    -0.014 C 
ATOM     33  C   UNL A   1     -23.906  -3.173  29.146  0.00  0.00    -0.004 C 
ATOM     34  C   UNL A   1     -23.989  -4.549  28.853  0.00  0.00    -0.000 C 
ATOM     35  C   UNL A   1     -25.137  -5.280  29.205  0.00  0.00    -0.000 C 
ATOM     36  C   UNL A   1     -26.232  -4.611  29.784  0.00  0.00    -0.000 C 
ATOM     37  C   UNL A   1     -26.155  -3.232  30.065  0.00  0.00    -0.004 C 
ENDBRANCH  31  32
BRANCH  31  38
ATOM     38  C   UNL A   1     -25.387  -0.679  31.571  0.00  0.00    +0.084 C 
ATOM     39  C   UNL A   1     -25.189   0.773  32.028  0.00  0.00    +0.020 C 
ATOM     40  C   UNL A   1     -25.336   0.684  33.544  0.00  0.00    +0.020 C 
ATOM     41  C   UNL A   1     -24.829  -0.715  33.905  0.00  0.00    +0.089 C 
ATOM     42  N   UNL A   1     -24.758  -1.481  32.646  0.00  0.00    -0.219 NA
ENDBRANCH  31  38
ENDBRANCH  29  31
ENDBRANCH   2  29
TORSDOF 11
