MODEL 3112
MODEL 1
REMARK VINA RESULT:    -4.282      0.000      0.000
REMARK INTER + INTRA:          -4.282
REMARK INTER:                  -4.282
REMARK INTRA:                   0.000
REMARK UNBOUND:                 0.000
REMARK  Name = No_3112-gen_results/8p0m/2024-11-27-11-27-31/
REMARK  0 active torsions:
REMARK  status: ('A' for Active; 'I' for Inactive)
REMARK                            x       y       z     vdW  Elec       q    Type
REMARK                         _______ _______ _______ _____ _____    ______ ____
ROOT
ATOM      1  C   UNL A   1     -24.960  -5.355  28.962  0.00  0.00    +0.000 A 
ATOM      2  C   UNL A   1     -24.185  -4.677  28.740  0.00  0.00    +0.000 A 
ATOM      3  C   UNL A   1     -26.115  -4.732  29.610  0.00  0.00    +0.000 A 
ATOM      4  C   UNL A   1     -26.166  -3.386  29.873  0.00  0.00    +0.000 A 
ATOM      5  C   UNL A   1     -23.967  -3.239  28.894  0.00  0.00    +0.000 A 
ATOM      6  C   UNL A   1     -25.080  -2.627  29.520  0.00  0.00    +0.000 A 
ENDROOT
TORSDOF 0
ENDMDL
ENDMDL
