MODEL 3113
MODEL 1
REMARK VINA RESULT:    -7.887      0.000      0.000
REMARK INTER + INTRA:          -9.092
REMARK INTER:                  -8.809
REMARK INTRA:                  -0.282
REMARK UNBOUND:                -0.282
REMARK  Name = No_3113-gen_results/8p0m/2024-11-27-11-27-31/
REMARK  2 active torsions:
REMARK  status: ('A' for Active; 'I' for Inactive)
REMARK    1  A    between atoms: C_1  and  C_2
REMARK    2  A    between atoms: C_5  and  C_10
REMARK                            x       y       z     vdW  Elec       q    Type
REMARK                         _______ _______ _______ _____ _____    ______ ____
ROOT
ATOM      1  C   UNL A   1     -25.112  -1.462  29.396  0.00  0.00    +0.098 C 
ATOM      2  N   UNL A   1     -25.214  -2.683  29.056  0.00  0.00    -0.269 NA
ATOM      3  C   UNL A   1     -26.187  -3.514  29.622  0.00  0.00    +0.075 C 
ATOM      4  C   UNL A   1     -26.002  -4.882  29.685  0.00  0.00    +0.018 C 
ATOM      5  C   UNL A   1     -27.413  -2.963  30.197  0.00  0.00    +0.105 C 
ATOM      6  N   UNL A   1     -27.691  -1.695  30.089  0.00  0.00    -0.215 NA
ATOM      7  C   UNL A   1     -26.436  -0.826  29.977  0.00  0.00    +0.109 C 
ATOM      8  C   UNL A   1     -24.142  -3.353  28.464  0.00  0.00    +0.072 C 
ATOM      9  C   UNL A   1     -23.968  -4.694  28.543  0.00  0.00    +0.017 C 
ATOM     10  C   UNL A   1     -24.972  -5.454  29.020  0.00  0.00    +0.003 C 
ENDROOT
BRANCH   1  11
ATOM     11  C   UNL A   1     -24.617  -0.658  28.641  0.00  0.00    -0.006 A 
ATOM     12  C   UNL A   1     -23.408  -0.073  28.843  0.00  0.00    -0.003 A 
ATOM     13  C   UNL A   1     -22.787   0.911  27.928  0.00  0.00    +0.004 A 
ATOM     14  C   UNL A   1     -23.517   1.242  26.739  0.00  0.00    +0.071 A 
ATOM     15  C   UNL A   1     -24.736   0.559  26.531  0.00  0.00    +0.004 A 
ATOM     16  C   UNL A   1     -25.251  -0.343  27.425  0.00  0.00    -0.003 A 
BRANCH  14  17
ATOM     17  C   UNL A   1     -23.002   2.152  25.750  0.00  0.00    +0.419 C 
ATOM     18  F   UNL A   1     -23.399   3.223  25.758  0.00  0.00    -0.166 F 
ATOM     19  F   UNL A   1     -21.598   2.208  25.948  0.00  0.00    -0.166 F 
ATOM     20  F   UNL A   1     -23.111   1.615  24.483  0.00  0.00    -0.166 F 
ENDBRANCH  14  17
ENDBRANCH   1  11
TORSDOF 2
ENDMDL
ENDMDL
