REMARK  Name = outputs/IAG933/test6/raw/output_3114_IAG933_linker_design_.xyz
REMARK  12 active torsions:
REMARK  status: ('A' for Active; 'I' for Inactive)
REMARK    1  A    between atoms: C_1  and  C_2
REMARK    2  A    between atoms: C_1  and  C_8
REMARK    3  A    between atoms: C_1  and  C_32
REMARK    4  A    between atoms: C_13  and  C_36
REMARK    5  A    between atoms: C_14  and  C_15
REMARK    6  A    between atoms: C_21  and  O_22
REMARK    7  A    between atoms: O_22  and  C_23
REMARK    8  A    between atoms: C_23  and  C_24
REMARK    9  A    between atoms: N_31  and  C_32
REMARK   10  A    between atoms: C_32  and  N_42
REMARK   11  A    between atoms: C_33  and  N_42
REMARK   12  A    between atoms: C_39  and  C_45
REMARK                            x       y       z     vdW  Elec       q    Type
REMARK                         _______ _______ _______ _____ _____    ______ ____
ROOT
ATOM      1  C   UNL A   1     -22.830   1.011  28.320  0.00  0.00    +0.164 C 
ATOM      2  C   UNL A   1     -24.098   0.644  27.894  0.00  0.00    +0.145 C 
ATOM      3  F   UNL A   1     -22.381   0.685  29.414  0.00  0.00    -0.205 F 
ATOM      4  C   UNL A   1     -24.379   1.393  26.838  0.00  0.00    -0.011 C 
ATOM      5  C   UNL A   1     -23.185   1.726  26.261  0.00  0.00    +0.067 C 
ATOM      6  C   UNL A   1     -22.247   1.633  27.300  0.00  0.00    +0.166 C 
ATOM      7  F   UNL A   1     -20.991   1.966  27.429  0.00  0.00    -0.202 F 
ENDROOT
BRANCH   4   8
ATOM      8  C   UNL A   1     -25.688   1.614  26.461  0.00  0.00    +0.090 C 
ATOM      9  C   UNL A   1     -26.250   2.920  26.395  0.00  0.00    +0.059 C 
ATOM     10  C   UNL A   1     -27.438   3.091  25.645  0.00  0.00    +0.102 C 
ATOM     11  N   UNL A   1     -28.075   2.089  25.003  0.00  0.00    -0.212 NA
ATOM     12  C   UNL A   1     -27.543   0.849  25.079  0.00  0.00    +0.234 C 
ATOM     13  C   UNL A   1     -26.354   0.576  25.777  0.00  0.00    +0.244 C 
ATOM     14  F   UNL A   1     -25.860  -0.681  25.795  0.00  0.00    -0.227 F 
BRANCH   9  15
ATOM     15  C   UNL A   1     -25.642   4.093  27.123  0.00  0.00    +0.263 C 
ATOM     16  N   UNL A   1     -25.614   5.252  26.449  0.00  0.00    -0.200 NA
ATOM     17  C   UNL A   1     -25.026   6.479  26.963  0.00  0.00    +0.139 C 
ATOM     18  O   UNL A   1     -25.143   3.966  28.243  0.00  0.00    -0.269 OA
ENDBRANCH   9  15
BRANCH  12  19
ATOM     19  O   UNL A   1     -28.193  -0.208  24.477  0.00  0.00    -0.459 OA
BRANCH  19  20
ATOM     20  C   UNL A   1     -29.460   0.005  23.866  0.00  0.00    +0.242 C 
BRANCH  20  21
ATOM     21  C   UNL A   1     -30.065  -1.377  23.573  0.00  0.00    +0.229 C 
ATOM     22  O   UNL A   1     -30.729  -1.878  24.721  0.00  0.00    -0.216 OA
ENDBRANCH  20  21
ENDBRANCH  19  20
ENDBRANCH  12  19
ENDBRANCH   4   8
BRANCH   5  25
ATOM     23  F   UNL A   1     -22.221   2.563  24.434  0.00  0.00    -0.193 F 
ATOM     24  F   UNL A   1     -23.693   0.931  24.155  0.00  0.00    -0.193 F 
ATOM     25  C   UNL A   1     -22.996   1.773  24.881  0.00  0.00    +0.343 C 
ENDBRANCH   5  25
BRANCH   2  26
ATOM     26  N   UNL A   1     -25.104  -0.300  27.984  0.00  0.00    -0.194 NA
BRANCH  26  27
ATOM     27  C   UNL A   1     -25.701  -0.261  29.112  0.00  0.00    +0.140 C 
BRANCH  27  29
ATOM     28  C   UNL A   1     -28.198  -0.668  29.067  0.00  0.00    +0.076 C 
ATOM     29  N   UNL A   1     -27.094   0.267  29.433  0.00  0.00    -0.235 NA
ATOM     30  O   UNL A   1     -27.381   2.697  30.085  0.00  0.00    -0.205 OA
ATOM     31  C   UNL A   1     -29.353   1.380  29.781  0.00  0.00    +0.052 C 
ATOM     32  C   UNL A   1     -29.613  -0.081  29.310  0.00  0.00    +0.021 C 
ATOM     33  C   UNL A   1     -27.847   1.352  30.266  0.00  0.00    +0.214 C 
ENDBRANCH  27  29
BRANCH  27  34
ATOM     34  C   UNL A   1     -24.855  -1.012  30.143  0.00  0.00    +0.070 C 
BRANCH  34  35
ATOM     35  C   UNL A   1     -24.973  -2.505  29.788  0.00  0.00    -0.018 C 
ATOM     36  C   UNL A   1     -23.906  -3.173  29.146  0.00  0.00    -0.004 C 
ATOM     37  C   UNL A   1     -23.989  -4.549  28.853  0.00  0.00    -0.000 C 
ATOM     38  C   UNL A   1     -25.137  -5.280  29.205  0.00  0.00    -0.000 C 
ATOM     39  C   UNL A   1     -26.232  -4.611  29.784  0.00  0.00    -0.000 C 
ATOM     40  C   UNL A   1     -26.155  -3.232  30.065  0.00  0.00    -0.004 C 
ENDBRANCH  34  35
BRANCH  34  41
ATOM     41  C   UNL A   1     -25.387  -0.679  31.571  0.00  0.00    +0.080 C 
ATOM     42  C   UNL A   1     -25.189   0.773  32.028  0.00  0.00    +0.019 C 
ATOM     43  C   UNL A   1     -25.336   0.684  33.544  0.00  0.00    +0.020 C 
ATOM     44  C   UNL A   1     -24.829  -0.715  33.905  0.00  0.00    +0.089 C 
ATOM     45  N   UNL A   1     -24.758  -1.481  32.646  0.00  0.00    -0.219 NA
ENDBRANCH  34  41
ENDBRANCH  27  34
ENDBRANCH  26  27
ENDBRANCH   2  26
TORSDOF 12
