MODEL 3115
MODEL 1
REMARK VINA RESULT:    -6.803      0.000      0.000
REMARK INTER + INTRA:         -16.515
REMARK INTER:                 -10.780
REMARK INTRA:                  -5.735
REMARK UNBOUND:                -5.735
REMARK  Name = No_3115-gen_results/8p0m/2024-11-27-11-27-31/
REMARK  10 active torsions:
REMARK  status: ('A' for Active; 'I' for Inactive)
REMARK    1  A    between atoms: C_2  and  C_25
REMARK    2  A    between atoms: C_3  and  C_4
REMARK    3  A    between atoms: C_4  and  C_15
REMARK    4  A    between atoms: C_8  and  C_9
REMARK    5  A    between atoms: C_10  and  C_11
REMARK    6  A    between atoms: N_14  and  C_28
REMARK    7  A    between atoms: C_15  and  C_16
REMARK    8  A    between atoms: C_16  and  C_17
REMARK    9  A    between atoms: C_28  and  C_29
REMARK   10  A    between atoms: C_29  and  C_30
REMARK                            x       y       z     vdW  Elec       q    Type
REMARK                         _______ _______ _______ _____ _____    ______ ____
ROOT
ATOM      1  C   UNL A   1     -28.553 -12.371   7.608  0.00  0.00    -0.022 C 
ATOM      2  C   UNL A   1     -27.845 -13.241   7.309  0.00  0.00    -0.004 C 
ENDROOT
BRANCH   1   5
ATOM      3  C   UNL A   1     -29.445 -12.260  10.042  0.00  0.00    +0.006 A 
ATOM      4  C   UNL A   1     -30.320 -12.063  10.595  0.00  0.00    +0.080 A 
ATOM      5  C   UNL A   1     -29.648 -12.229   8.594  0.00  0.00    -0.004 A 
ATOM      6  C   UNL A   1     -31.705 -11.761  10.258  0.00  0.00    +0.007 A 
ATOM      7  C   UNL A   1     -31.939 -11.735   8.898  0.00  0.00    +0.000 A 
ATOM      8  C   UNL A   1     -30.917 -11.914   8.042  0.00  0.00    -0.000 A 
BRANCH   4   9
ATOM      9  C   UNL A   1     -30.223 -12.040  12.223  0.00  0.00    +0.388 C 
ATOM     10  O   UNL A   1     -30.949 -11.291  12.806  0.00  0.00    -0.241 OA
ATOM     11  O   UNL A   1     -29.440 -12.882  12.783  0.00  0.00    -0.241 OA
ENDBRANCH   4   9
ENDBRANCH   1   5
BRANCH   2  12
ATOM     12  C   UNL A   1     -26.989 -13.745   7.049  0.00  0.00    +0.003 C 
ATOM     13  C   UNL A   1     -26.013 -14.889   7.013  0.00  0.00    +0.069 C 
ATOM     14  C   UNL A   1     -24.704 -14.514   6.755  0.00  0.00    +0.039 C 
BRANCH  13  15
ATOM     15  C   UNL A   1     -26.267 -16.155   7.395  0.00  0.00    +0.409 C 
ATOM     16  N   UNL A   1     -26.509 -17.004   6.399  0.00  0.00    +0.197 NA
ATOM     17  N   UNL A   1     -26.822 -16.495   8.636  0.00  0.00    -0.028 NA
BRANCH  17  18
ATOM     18  C   UNL A   1     -28.071 -16.834   8.756  0.00  0.00    +0.256 C 
BRANCH  18  19
ATOM     19  C   UNL A   1     -28.824 -16.052   9.821  0.00  0.00    +0.082 C 
BRANCH  19  20
ATOM     20  C   UNL A   1     -29.990 -15.765   9.399  0.00  0.00    -0.018 A 
ATOM     21  C   UNL A   1     -31.025 -15.579  10.484  0.00  0.00    -0.004 A 
ATOM     22  C   UNL A   1     -32.304 -15.229  10.256  0.00  0.00    -0.000 A 
ATOM     23  C   UNL A   1     -32.814 -15.431   8.877  0.00  0.00    -0.000 A 
ATOM     24  C   UNL A   1     -31.838 -15.611   7.810  0.00  0.00    -0.000 A 
ATOM     25  C   UNL A   1     -30.539 -15.860   8.140  0.00  0.00    -0.004 A 
ENDBRANCH  19  20
ENDBRANCH  18  19
ENDBRANCH  17  18
ENDBRANCH  13  15
ENDBRANCH   2  12
BRANCH   1  26
ATOM     26  C   UNL A   1     -28.498 -11.046   6.817  0.00  0.00    +0.030 C 
BRANCH  26  27
ATOM     27  C   UNL A   1     -27.614 -10.081   7.459  0.00  0.00    +0.023 C 
ATOM     28  C   UNL A   1     -26.654  -9.596   6.372  0.00  0.00    +0.005 C 
ATOM     29  C   UNL A   1     -26.616 -10.667   8.588  0.00  0.00    +0.005 C 
BRANCH  27  30
ATOM     30  C   UNL A   1     -28.243  -8.990   8.022  0.00  0.00    -0.022 A 
ATOM     31  C   UNL A   1     -27.548  -8.263   8.891  0.00  0.00    -0.004 A 
ATOM     32  C   UNL A   1     -28.075  -7.202   9.634  0.00  0.00    -0.000 A 
ATOM     33  C   UNL A   1     -29.378  -6.831   9.375  0.00  0.00    -0.000 A 
ATOM     34  C   UNL A   1     -30.140  -7.560   8.531  0.00  0.00    -0.000 A 
ATOM     35  C   UNL A   1     -29.645  -8.639   7.883  0.00  0.00    -0.004 A 
ENDBRANCH  27  30
ENDBRANCH  26  27
ENDBRANCH   1  26
TORSDOF 10
ENDMDL
ENDMDL
