REMARK  Name = outputs/IAG933/test6/raw/output_3115_IAG933_linker_design_.xyz
REMARK  18 active torsions:
REMARK  status: ('A' for Active; 'I' for Inactive)
REMARK    1  A    between atoms: C_1  and  C_2
REMARK    2  A    between atoms: C_1  and  C_8
REMARK    3  A    between atoms: C_9  and  C_43
REMARK    4  A    between atoms: C_13  and  C_39
REMARK    5  A    between atoms: C_14  and  C_15
REMARK    6  A    between atoms: C_21  and  O_22
REMARK    7  A    between atoms: O_22  and  C_23
REMARK    8  A    between atoms: C_23  and  C_24
REMARK    9  A    between atoms: C_29  and  C_30
REMARK   10  A    between atoms: C_29  and  N_32
REMARK   11  A    between atoms: C_30  and  C_39
REMARK   12  A    between atoms: C_30  and  C_46
REMARK   13  A    between atoms: N_31  and  C_42
REMARK   14  A    between atoms: C_33  and  C_42
REMARK   15  A    between atoms: C_37  and  C_48
REMARK   16  A    between atoms: C_41  and  C_46
REMARK   17  A    between atoms: C_42  and  O_47
REMARK   18  A    between atoms: C_43  and  C_48
REMARK                            x       y       z     vdW  Elec       q    Type
REMARK                         _______ _______ _______ _____ _____    ______ ____
ROOT
ATOM      1  N   UNL A   1     -25.457   1.599  29.047  0.00  0.00    -0.275 NA
ATOM      2  C   UNL A   1     -26.239   1.933  30.311  0.00  0.00    +0.055 C 
ENDROOT
BRANCH   2   6
ATOM      3  N   UNL A   1     -28.733   3.334  32.456  0.00  0.00    -0.256 N 
ATOM      4  C   UNL A   1     -28.632   2.147  30.359  0.00  0.00    +0.019 C 
ATOM      5  C   UNL A   1     -29.418   2.732  31.351  0.00  0.00    +0.068 C 
ATOM      6  C   UNL A   1     -27.337   2.271  30.821  0.00  0.00    +0.029 C 
ATOM      7  C   UNL A   1     -27.404   2.888  32.145  0.00  0.00    +0.069 C 
BRANCH   3   8
ATOM      8  C   UNL A   1     -29.049   3.783  33.698  0.00  0.00    +0.283 C 
BRANCH   8   9
ATOM      9  C   UNL A   1     -30.011   4.863  33.748  0.00  0.00    +0.394 C 
ATOM     10  O   UNL A   1     -31.282   4.188  33.719  0.00  0.00    -0.271 OA
ATOM     11  C   UNL A   1     -29.925   5.775  34.992  0.00  0.00    +0.104 C 
ATOM     12  O   UNL A   1     -30.144   5.492  32.539  0.00  0.00    -0.271 OA
ENDBRANCH   8   9
BRANCH   8  14
ATOM     13  C   UNL A   1     -29.302   2.989  36.020  0.00  0.00    +0.176 C 
ATOM     14  O   UNL A   1     -28.480   3.490  34.911  0.00  0.00    -0.329 OA
ENDBRANCH   8  14
ENDBRANCH   3   8
ENDBRANCH   2   6
BRANCH   2  15
ATOM     15  C   UNL A   1     -25.039   2.160  31.367  0.00  0.00    +0.047 C 
BRANCH  15  17
ATOM     16  C   UNL A   1     -25.387  -0.679  31.571  0.00  0.00    +0.077 C 
ATOM     17  C   UNL A   1     -25.189   0.773  32.028  0.00  0.00    +0.024 C 
ATOM     18  C   UNL A   1     -25.336   0.684  33.544  0.00  0.00    +0.021 C 
ATOM     19  C   UNL A   1     -24.829  -0.715  33.905  0.00  0.00    +0.089 C 
ATOM     20  N   UNL A   1     -24.758  -1.481  32.646  0.00  0.00    -0.219 NA
BRANCH  16  21
ATOM     21  C   UNL A   1     -24.855  -1.012  30.143  0.00  0.00    +0.044 C 
BRANCH  21  22
ATOM     22  C   UNL A   1     -24.973  -2.505  29.788  0.00  0.00    -0.021 C 
ATOM     23  C   UNL A   1     -23.906  -3.173  29.146  0.00  0.00    -0.004 C 
ATOM     24  C   UNL A   1     -23.989  -4.549  28.853  0.00  0.00    -0.000 C 
ATOM     25  C   UNL A   1     -25.137  -5.280  29.205  0.00  0.00    -0.000 C 
ATOM     26  C   UNL A   1     -26.232  -4.611  29.784  0.00  0.00    -0.000 C 
ATOM     27  C   UNL A   1     -26.155  -3.232  30.065  0.00  0.00    -0.004 C 
ENDBRANCH  21  22
ENDBRANCH  16  21
ENDBRANCH  15  17
ENDBRANCH   2  15
BRANCH   1  28
ATOM     28  C   UNL A   1     -23.949   1.542  28.884  0.00  0.00    +0.125 C 
BRANCH  28  29
ATOM     29  C   UNL A   1     -23.322   1.786  27.555  0.00  0.00    +0.027 C 
BRANCH  29  30
ATOM     30  C   UNL A   1     -21.870   1.811  27.077  0.00  0.00    +0.037 C 
BRANCH  30  31
ATOM     31  C   UNL A   1     -21.093   0.994  28.112  0.00  0.00    +0.182 C 
ATOM     32  O   UNL A   1     -21.953   0.028  28.724  0.00  0.00    -0.220 OA
ENDBRANCH  30  31
ENDBRANCH  29  30
BRANCH  29  33
ATOM     33  C   UNL A   1     -24.368   1.295  26.564  0.00  0.00    +0.010 C 
BRANCH  33  34
ATOM     34  C   UNL A   1     -25.688   1.614  26.461  0.00  0.00    +0.070 C 
ATOM     35  C   UNL A   1     -26.250   2.920  26.395  0.00  0.00    +0.055 C 
ATOM     36  C   UNL A   1     -27.438   3.091  25.645  0.00  0.00    +0.102 C 
ATOM     37  N   UNL A   1     -28.075   2.089  25.003  0.00  0.00    -0.212 NA
ATOM     38  C   UNL A   1     -27.543   0.849  25.079  0.00  0.00    +0.234 C 
ATOM     39  C   UNL A   1     -26.354   0.576  25.777  0.00  0.00    +0.240 C 
ATOM     40  F   UNL A   1     -25.860  -0.681  25.795  0.00  0.00    -0.227 F 
BRANCH  35  41
ATOM     41  C   UNL A   1     -25.642   4.093  27.123  0.00  0.00    +0.262 C 
ATOM     42  N   UNL A   1     -25.614   5.252  26.449  0.00  0.00    -0.200 NA
ATOM     43  C   UNL A   1     -25.026   6.479  26.963  0.00  0.00    +0.139 C 
ATOM     44  O   UNL A   1     -25.143   3.966  28.243  0.00  0.00    -0.269 OA
ENDBRANCH  35  41
BRANCH  38  45
ATOM     45  O   UNL A   1     -28.193  -0.208  24.477  0.00  0.00    -0.459 OA
BRANCH  45  46
ATOM     46  C   UNL A   1     -29.460   0.005  23.866  0.00  0.00    +0.242 C 
BRANCH  46  47
ATOM     47  C   UNL A   1     -30.065  -1.377  23.573  0.00  0.00    +0.229 C 
ATOM     48  O   UNL A   1     -30.729  -1.878  24.721  0.00  0.00    -0.216 OA
ENDBRANCH  46  47
ENDBRANCH  45  46
ENDBRANCH  38  45
ENDBRANCH  33  34
ENDBRANCH  29  33
ENDBRANCH  28  29
ENDBRANCH   1  28
TORSDOF 18
