MODEL 3116
MODEL 1
REMARK VINA RESULT:    -8.525      0.000      0.000
REMARK INTER + INTRA:         -13.288
REMARK INTER:                 -12.014
REMARK INTRA:                  -1.274
REMARK UNBOUND:                -1.274
REMARK  Name = No_3116-gen_results/8p0m/2024-11-27-11-27-31/
REMARK  7 active torsions:
REMARK  status: ('A' for Active; 'I' for Inactive)
REMARK    1  A    between atoms: C_1  and  C_2
REMARK    2  A    between atoms: C_1  and  C_8
REMARK    3  A    between atoms: C_5  and  C_11
REMARK    4  A    between atoms: C_7  and  C_18
REMARK    5  A    between atoms: N_20  and  C_21
REMARK    6  A    between atoms: N_27  and  C_28
REMARK    7  A    between atoms: C_28  and  C_29
REMARK                            x       y       z     vdW  Elec       q    Type
REMARK                         _______ _______ _______ _____ _____    ______ ____
ROOT
ATOM      1  C   UNL A   1     -26.799   0.492  25.131  0.00  0.00    +0.269 C 
ATOM      2  O   UNL A   1     -26.304  -0.069  24.410  0.00  0.00    -0.268 OA
ATOM      3  N   UNL A   1     -26.366   0.647  26.436  0.00  0.00    -0.174 NA
ENDROOT
BRANCH   1   9
ATOM      4  C   UNL A   1     -28.948   1.182  23.932  0.00  0.00    +0.026 A 
ATOM      5  C   UNL A   1     -29.858   2.233  23.828  0.00  0.00    +0.192 A 
ATOM      6  C   UNL A   1     -29.718   3.593  24.384  0.00  0.00    +0.046 A 
ATOM      7  C   UNL A   1     -28.631   3.784  25.291  0.00  0.00    +0.060 A 
ATOM      8  C   UNL A   1     -27.717   2.738  25.461  0.00  0.00    +0.009 A 
ATOM      9  C   UNL A   1     -27.850   1.534  24.860  0.00  0.00    +0.055 A 
ATOM     10  O   UNL A   1     -31.042   2.315  23.149  0.00  0.00    -0.287 OA
BRANCH   7  11
ATOM     11  C   UNL A   1     -28.511   5.107  25.898  0.00  0.00    +0.284 C 
ATOM     12  O   UNL A   1     -29.211   6.010  25.482  0.00  0.00    -0.267 OA
ATOM     13  N   UNL A   1     -27.760   5.338  26.998  0.00  0.00    -0.084 NA
ENDBRANCH   7  11
BRANCH   4  14
ATOM     14  C   UNL A   1     -29.126   0.092  23.440  0.00  0.00    +0.056 C 
BRANCH  14  15
ATOM     15  C   UNL A   1     -30.215  -0.686  24.141  0.00  0.00    -0.018 A 
ATOM     16  C   UNL A   1     -30.857  -1.477  23.568  0.00  0.00    -0.004 A 
ATOM     17  C   UNL A   1     -31.960  -2.268  24.309  0.00  0.00    -0.000 A 
ATOM     18  C   UNL A   1     -32.176  -1.942  25.621  0.00  0.00    -0.000 A 
ATOM     19  C   UNL A   1     -30.495  -0.225  25.566  0.00  0.00    -0.004 A 
ATOM     20  C   UNL A   1     -31.480  -0.933  26.272  0.00  0.00    -0.000 A 
ENDBRANCH  14  15
ENDBRANCH   4  14
ENDBRANCH   1   9
BRANCH   3  21
ATOM     21  C   UNL A   1     -25.396  -0.287  26.956  0.00  0.00    +0.098 C 
ATOM     22  C   UNL A   1     -24.365   0.410  27.609  0.00  0.00    +0.128 C 
ATOM     23  C   UNL A   1     -24.381   1.766  27.795  0.00  0.00    +0.158 C 
ATOM     24  N   UNL A   1     -23.341   2.286  28.595  0.00  0.00    -0.032 NA
ATOM     25  N   UNL A   1     -22.694   1.150  28.890  0.00  0.00    +0.084 NA
ATOM     26  C   UNL A   1     -23.229   0.077  28.413  0.00  0.00    +0.392 C 
ATOM     27  N   UNL A   1     -22.891  -1.216  28.673  0.00  0.00    -0.011 NA
BRANCH  27  28
ATOM     28  C   UNL A   1     -23.584  -1.998  29.520  0.00  0.00    +0.306 C 
ATOM     29 CL   UNL A   1     -23.471  -1.224  31.089  0.00  0.00    -0.056 Cl
BRANCH  28  30
ATOM     30  C   UNL A   1     -24.119  -2.858  29.514  0.00  0.00    +0.040 A 
ATOM     31  C   UNL A   1     -24.166  -3.960  29.181  0.00  0.00    +0.001 A 
ATOM     32  C   UNL A   1     -25.209  -5.037  29.145  0.00  0.00    -0.000 A 
ATOM     33  C   UNL A   1     -26.425  -4.645  29.647  0.00  0.00    -0.000 A 
ATOM     34  C   UNL A   1     -26.619  -3.358  30.099  0.00  0.00    -0.000 A 
ATOM     35  C   UNL A   1     -25.634  -2.447  30.019  0.00  0.00    +0.001 A 
ENDBRANCH  28  30
ENDBRANCH  27  28
ENDBRANCH   3  21
TORSDOF 7
ENDMDL
ENDMDL
