REMARK  Name = No_3116-gen_results/8p0m/2024-11-27-11-27-31/
REMARK  7 active torsions:
REMARK  status: ('A' for Active; 'I' for Inactive)
REMARK    1  A    between atoms: C_1  and  C_2
REMARK    2  A    between atoms: C_1  and  C_8
REMARK    3  A    between atoms: C_5  and  C_11
REMARK    4  A    between atoms: C_7  and  C_18
REMARK    5  A    between atoms: N_20  and  C_21
REMARK    6  A    between atoms: N_27  and  C_28
REMARK    7  A    between atoms: C_28  and  C_29
REMARK                            x       y       z     vdW  Elec       q    Type
REMARK                         _______ _______ _______ _____ _____    ______ ____
ROOT
ATOM      1  C   UNL A   1     -28.391   1.412  27.050  0.00  0.00    +0.269 C 
ATOM      2  O   UNL A   1     -29.148   1.930  27.539  0.00  0.00    -0.268 OA
ATOM      3  N   UNL A   1     -28.292   1.283  25.676  0.00  0.00    -0.174 NA
ENDROOT
BRANCH   1   9
ATOM      4  C   UNL A   1     -27.064  -0.119  28.608  0.00  0.00    +0.026 A 
ATOM      5  C   UNL A   1     -25.765  -0.390  29.036  0.00  0.00    +0.192 A 
ATOM      6  C   UNL A   1     -24.552   0.406  28.765  0.00  0.00    +0.046 A 
ATOM      7  C   UNL A   1     -24.696   1.448  27.799  0.00  0.00    +0.060 A 
ATOM      8  C   UNL A   1     -25.976   1.725  27.308  0.00  0.00    +0.009 A 
ATOM      9  C   UNL A   1     -27.072   1.013  27.654  0.00  0.00    +0.055 A 
ATOM     10  O   UNL A   1     -25.290  -1.381  29.850  0.00  0.00    -0.287 OA
BRANCH   7  11
ATOM     11  C   UNL A   1     -23.492   2.208  27.474  0.00  0.00    +0.284 C 
ATOM     12  O   UNL A   1     -23.588   3.181  26.751  0.00  0.00    -0.267 OA
ATOM     13  N   UNL A   1     -22.297   1.963  28.058  0.00  0.00    -0.084 NA
ENDBRANCH   7  11
BRANCH   4  14
ATOM     14  C   UNL A   1     -28.016  -0.814  28.878  0.00  0.00    +0.056 C 
BRANCH  14  15
ATOM     15  C   UNL A   1     -28.618  -0.469  30.221  0.00  0.00    -0.018 A 
ATOM     16  C   UNL A   1     -28.311   0.506  30.787  0.00  0.00    -0.004 A 
ATOM     17  C   UNL A   1     -28.947   0.843  32.156  0.00  0.00    -0.000 A 
ATOM     18  C   UNL A   1     -29.814  -0.080  32.677  0.00  0.00    -0.000 A 
ATOM     19  C   UNL A   1     -29.495  -1.565  30.814  0.00  0.00    -0.004 A 
ATOM     20  C   UNL A   1     -30.100  -1.284  32.048  0.00  0.00    -0.000 A 
ENDBRANCH  14  15
ENDBRANCH   4  14
ENDBRANCH   1   9
BRANCH   3  21
ATOM     21  C   UNL A   1     -29.461   1.548  24.872  0.00  0.00    +0.098 C 
ATOM     22  C   UNL A   1     -29.871   0.371  24.224  0.00  0.00    +0.128 C 
ATOM     23  C   UNL A   1     -29.284  -0.846  24.443  0.00  0.00    +0.158 C 
ATOM     24  N   UNL A   1     -29.910  -1.948  23.822  0.00  0.00    -0.032 NA
ATOM     25  N   UNL A   1     -30.926  -1.318  23.215  0.00  0.00    +0.084 NA
ATOM     26  C   UNL A   1     -30.986  -0.047  23.430  0.00  0.00    +0.392 C 
ATOM     27  N   UNL A   1     -31.979   0.817  23.081  0.00  0.00    -0.011 NA
BRANCH  27  28
ATOM     28  C   UNL A   1     -32.904   1.260  23.951  0.00  0.00    +0.306 C 
ATOM     29 CL   UNL A   1     -33.139   2.957  23.579  0.00  0.00    -0.056 Cl
BRANCH  28  30
ATOM     30  C   UNL A   1     -33.470   0.916  24.718  0.00  0.00    +0.040 A 
ATOM     31  C   UNL A   1     -34.218   1.177  25.554  0.00  0.00    +0.001 A 
ATOM     32  C   UNL A   1     -34.809   0.471  26.737  0.00  0.00    -0.000 A 
ATOM     33  C   UNL A   1     -34.382  -0.826  26.876  0.00  0.00    -0.000 A 
ATOM     34  C   UNL A   1     -33.468  -1.365  25.997  0.00  0.00    -0.000 A 
ATOM     35  C   UNL A   1     -32.945  -0.619  25.009  0.00  0.00    +0.001 A 
ENDBRANCH  28  30
ENDBRANCH  27  28
ENDBRANCH   3  21
TORSDOF 7
