MODEL 3117
MODEL 1
REMARK VINA RESULT:    -5.245      0.000      0.000
REMARK INTER + INTRA:          -5.659
REMARK INTER:                  -5.552
REMARK INTRA:                  -0.107
REMARK UNBOUND:                -0.107
REMARK  Name = No_3117-gen_results/8p0m/2024-11-27-11-27-31/
REMARK  1 active torsions:
REMARK  status: ('A' for Active; 'I' for Inactive)
REMARK    1  A    between atoms: C_2  and  C_3
REMARK                            x       y       z     vdW  Elec       q    Type
REMARK                         _______ _______ _______ _____ _____    ______ ____
ROOT
ATOM      1  C   UNL A   1      -8.206  -9.863  20.019  0.00  0.00    +0.044 A 
ATOM      2  C   UNL A   1      -8.085 -10.685  18.792  0.00  0.00    +0.001 A 
ATOM      3  C   UNL A   1      -9.037 -10.862  17.721  0.00  0.00    -0.000 A 
ATOM      4  C   UNL A   1     -10.235 -10.123  17.919  0.00  0.00    -0.000 A 
ATOM      5  C   UNL A   1     -10.421  -9.329  18.998  0.00  0.00    -0.000 A 
ATOM      6  C   UNL A   1      -9.459  -9.164  19.947  0.00  0.00    +0.001 A 
ENDROOT
BRANCH   1   8
ATOM      7  F   UNL A   1      -6.934 -10.669  21.428  0.00  0.00    -0.193 F 
ATOM      8  C   UNL A   1      -7.277  -9.713  20.898  0.00  0.00    +0.341 C 
ATOM      9  F   UNL A   1      -6.244  -9.044  20.249  0.00  0.00    -0.193 F 
ENDBRANCH   1   8
TORSDOF 1
ENDMDL
ENDMDL
