MODEL 3118
MODEL 1
REMARK VINA RESULT:    -4.326      0.000      0.000
REMARK INTER + INTRA:          -4.326
REMARK INTER:                  -4.326
REMARK INTRA:                   0.000
REMARK UNBOUND:                 0.000
REMARK  Name = No_3118-gen_results/8p0m/2024-11-27-11-27-31/
REMARK  0 active torsions:
REMARK  status: ('A' for Active; 'I' for Inactive)
REMARK                            x       y       z     vdW  Elec       q    Type
REMARK                         _______ _______ _______ _____ _____    ______ ____
ROOT
ATOM      1  C   UNL A   1     -24.955  -5.367  29.017  0.00  0.00    +0.000 A 
ATOM      2  C   UNL A   1     -24.194  -4.691  28.745  0.00  0.00    +0.000 A 
ATOM      3  C   UNL A   1     -26.149  -4.713  29.567  0.00  0.00    +0.000 A 
ATOM      4  C   UNL A   1     -26.182  -3.412  29.860  0.00  0.00    +0.000 A 
ATOM      5  C   UNL A   1     -23.997  -3.281  28.976  0.00  0.00    +0.000 A 
ATOM      6  C   UNL A   1     -25.107  -2.696  29.510  0.00  0.00    +0.000 A 
ENDROOT
TORSDOF 0
ENDMDL
ENDMDL
