REMARK  Name = No_3119-gen_results/8p0m/2024-11-27-11-27-31/
REMARK  3 active torsions:
REMARK  status: ('A' for Active; 'I' for Inactive)
REMARK    1  A    between atoms: N_3  and  C_4
REMARK    2  A    between atoms: C_10  and  C_15
REMARK    3  A    between atoms: N_17  and  C_19
REMARK                            x       y       z     vdW  Elec       q    Type
REMARK                         _______ _______ _______ _____ _____    ______ ____
ROOT
ATOM      1  C   UNL A   1     -28.016  -0.814  28.878  0.00  0.00    +0.067 C 
ATOM      2  C   UNL A   1     -27.064  -0.119  28.608  0.00  0.00    +0.244 C 
ATOM      3  N   UNL A   1     -25.818  -0.343  29.049  0.00  0.00    -0.232 N 
ATOM      4  C   UNL A   1     -27.875  -1.675  30.058  0.00  0.00    +0.091 C 
ATOM      5  C   UNL A   1     -26.653  -2.086  30.518  0.00  0.00    +0.095 C 
ATOM      6  C   UNL A   1     -25.527  -1.357  30.061  0.00  0.00    +0.232 C 
ATOM      7  F   UNL A   1     -27.092   0.719  27.595  0.00  0.00    -0.214 F 
ATOM      8  O   UNL A   1     -24.407  -1.562  30.524  0.00  0.00    -0.275 OA
ENDROOT
BRANCH   3   9
ATOM      9  C   UNL A   1     -24.676   0.381  28.750  0.00  0.00    +0.056 A 
ATOM     10  C   UNL A   1     -24.076   1.190  29.476  0.00  0.00    +0.015 A 
ATOM     11  C   UNL A   1     -22.893   1.897  29.017  0.00  0.00    +0.001 A 
ATOM     12  C   UNL A   1     -22.366   1.605  27.697  0.00  0.00    +0.000 A 
ATOM     13  C   UNL A   1     -23.120   0.751  26.951  0.00  0.00    +0.001 A 
ATOM     14  C   UNL A   1     -24.214   0.165  27.384  0.00  0.00    +0.015 A 
ENDBRANCH   3   9
BRANCH   4  15
ATOM     15  C   UNL A   1     -29.098  -2.475  30.516  0.00  0.00    +0.230 C 
ATOM     16  O   UNL A   1     -29.075  -3.659  30.435  0.00  0.00    -0.275 OA
ATOM     17  N   UNL A   1     -29.908  -1.817  31.327  0.00  0.00    -0.257 N 
ATOM     18  C   UNL A   1     -31.052  -2.532  31.969  0.00  0.00    +0.120 C 
BRANCH  17  19
ATOM     19  C   UNL A   1     -29.931  -0.393  31.534  0.00  0.00    +0.054 A 
ATOM     20  C   UNL A   1     -31.073   0.229  31.171  0.00  0.00    +0.015 A 
ATOM     21  C   UNL A   1     -31.185   1.459  31.563  0.00  0.00    +0.001 A 
ATOM     22  C   UNL A   1     -30.109   2.226  32.145  0.00  0.00    +0.000 A 
ATOM     23  C   UNL A   1     -28.944   1.483  32.502  0.00  0.00    +0.001 A 
ATOM     24  C   UNL A   1     -28.898   0.227  32.279  0.00  0.00    +0.015 A 
ENDBRANCH  17  19
ENDBRANCH   4  15
TORSDOF 3
