MODEL 3119
MODEL 1
REMARK VINA RESULT:    -7.439      0.000      0.000
REMARK INTER + INTRA:          -9.742
REMARK INTER:                  -8.743
REMARK INTRA:                  -0.998
REMARK UNBOUND:                -0.998
REMARK  Name = No_3119-gen_results/8p0m/2024-11-27-11-27-31/
REMARK  3 active torsions:
REMARK  status: ('A' for Active; 'I' for Inactive)
REMARK    1  A    between atoms: N_3  and  C_4
REMARK    2  A    between atoms: C_10  and  C_15
REMARK    3  A    between atoms: N_17  and  C_19
REMARK                            x       y       z     vdW  Elec       q    Type
REMARK                         _______ _______ _______ _____ _____    ______ ____
ROOT
ATOM      1  C   UNL A   1     -24.155   0.417  27.052  0.00  0.00    +0.067 C 
ATOM      2  C   UNL A   1     -24.958   0.410  26.148  0.00  0.00    +0.244 C 
ATOM      3  N   UNL A   1     -26.235   0.798  26.270  0.00  0.00    -0.232 N 
ATOM      4  C   UNL A   1     -24.711   0.450  28.410  0.00  0.00    +0.091 C 
ATOM      5  C   UNL A   1     -25.954   0.958  28.676  0.00  0.00    +0.095 C 
ATOM      6  C   UNL A   1     -26.831   1.095  27.572  0.00  0.00    +0.232 C 
ATOM      7  F   UNL A   1     -24.575   0.343  24.891  0.00  0.00    -0.214 F 
ATOM      8  O   UNL A   1     -28.008   1.410  27.731  0.00  0.00    -0.275 OA
ENDROOT
BRANCH   3   9
ATOM      9  C   UNL A   1     -27.196   0.858  25.275  0.00  0.00    +0.056 A 
ATOM     10  C   UNL A   1     -27.815  -0.086  24.757  0.00  0.00    +0.015 A 
ATOM     11  C   UNL A   1     -28.788   0.126  23.700  0.00  0.00    +0.001 A 
ATOM     12  C   UNL A   1     -29.086   1.483  23.280  0.00  0.00    +0.000 A 
ATOM     13  C   UNL A   1     -28.320   2.448  23.859  0.00  0.00    +0.001 A 
ATOM     14  C   UNL A   1     -27.413   2.212  24.781  0.00  0.00    +0.015 A 
ENDBRANCH   3   9
BRANCH   4  15
ATOM     15  C   UNL A   1     -23.740   0.329  29.588  0.00  0.00    +0.230 C 
ATOM     16  O   UNL A   1     -23.232   1.311  30.020  0.00  0.00    -0.275 OA
ATOM     17  N   UNL A   1     -23.857  -0.793  30.278  0.00  0.00    -0.257 N 
ATOM     18  C   UNL A   1     -23.079  -0.968  31.541  0.00  0.00    +0.120 C 
BRANCH  17  19
ATOM     19  C   UNL A   1     -24.531  -1.989  29.847  0.00  0.00    +0.054 A 
ATOM     20  C   UNL A   1     -23.787  -2.845  29.114  0.00  0.00    +0.015 A 
ATOM     21  C   UNL A   1     -24.312  -4.014  28.922  0.00  0.00    +0.001 A 
ATOM     22  C   UNL A   1     -25.678  -4.353  29.244  0.00  0.00    +0.000 A 
ATOM     23  C   UNL A   1     -26.384  -3.391  30.027  0.00  0.00    +0.001 A 
ATOM     24  C   UNL A   1     -25.807  -2.306  30.373  0.00  0.00    +0.015 A 
ENDBRANCH  17  19
ENDBRANCH   4  15
TORSDOF 3
ENDMDL
ENDMDL
