MODEL 311
MODEL 1
REMARK VINA RESULT:    -6.141      0.000      0.000
REMARK INTER + INTRA:          -6.567
REMARK INTER:                  -6.500
REMARK INTRA:                  -0.067
REMARK UNBOUND:                -0.067
REMARK  Name = No_311-gen_results/8p0m/2024-11-27-11-27-31/
REMARK  1 active torsions:
REMARK  status: ('A' for Active; 'I' for Inactive)
REMARK    1  A    between atoms: C_13  and  C_15
REMARK                            x       y       z     vdW  Elec       q    Type
REMARK                         _______ _______ _______ _____ _____    ______ ____
ROOT
ATOM      1  O   UNL A   1     -32.086 -10.967  10.001  0.00  0.00    -0.268 OA
ATOM      2  C   UNL A   1     -31.439 -11.757  10.697  0.00  0.00    +0.266 C 
ATOM      3  C   UNL A   1     -31.197 -12.766  10.758  0.00  0.00    +0.066 A 
ATOM      4  N   UNL A   1     -31.229 -11.137  12.144  0.00  0.00    -0.201 NA
ATOM      5  C   UNL A   1     -31.181 -13.630   9.563  0.00  0.00    +0.066 A 
ATOM      6  C   UNL A   1     -30.714 -11.827  13.180  0.00  0.00    +0.120 C 
ATOM      7  C   UNL A   1     -30.509 -13.508  11.922  0.00  0.00    -0.012 A 
ATOM      8  C   UNL A   1     -30.282 -13.038  13.038  0.00  0.00    +0.050 C 
ATOM      9  N   UNL A   1     -31.691 -13.482   8.701  0.00  0.00    -0.237 NA
ATOM     10  C   UNL A   1     -31.833 -14.326   7.604  0.00  0.00    +0.117 C 
ATOM     11  C   UNL A   1     -30.927 -15.070   9.752  0.00  0.00    -0.005 A 
ATOM     12  C   UNL A   1     -30.322 -15.688  10.995  0.00  0.00    +0.000 A 
ATOM     13  C   UNL A   1     -30.141 -14.983  11.885  0.00  0.00    +0.038 A 
ATOM     14  C   UNL A   1     -31.106 -15.808   8.499  0.00  0.00    +0.051 C 
ENDROOT
BRANCH  13  15
ATOM     15  C   UNL A   1     -29.556 -15.501  13.186  0.00  0.00    +0.234 C 
ATOM     16  O   UNL A   1     -28.398 -15.971  13.402  0.00  0.00    -0.283 OA
ENDBRANCH  13  15
TORSDOF 1
ENDMDL
ENDMDL
