REMARK  Name = outputs/IAG933/test6/raw/output_312_IAG933_linker_design_.xyz
REMARK  15 active torsions:
REMARK  status: ('A' for Active; 'I' for Inactive)
REMARK    1  A    between atoms: C_1  and  C_2
REMARK    2  A    between atoms: C_1  and  C_8
REMARK    3  A    between atoms: C_1  and  C_28
REMARK    4  A    between atoms: C_9  and  N_30
REMARK    5  A    between atoms: C_13  and  N_34
REMARK    6  A    between atoms: C_14  and  C_15
REMARK    7  A    between atoms: C_21  and  O_22
REMARK    8  A    between atoms: O_22  and  C_23
REMARK    9  A    between atoms: C_23  and  C_24
REMARK   10  A    between atoms: C_28  and  N_37
REMARK   11  A    between atoms: C_29  and  N_30
REMARK   12  A    between atoms: C_29  and  O_42
REMARK   13  A    between atoms: C_31  and  O_42
REMARK   14  A    between atoms: N_34  and  C_35
REMARK   15  A    between atoms: N_34  and  N_37
REMARK                            x       y       z     vdW  Elec       q    Type
REMARK                         _______ _______ _______ _____ _____    ______ ____
ROOT
ATOM      1  N   UNL A   1     -24.731   1.132  27.290  0.00  0.00    -0.213 N 
ENDROOT
BRANCH   1   2
ATOM      2  C   UNL A   1     -25.688   1.614  26.461  0.00  0.00    +0.106 C 
ATOM      3  C   UNL A   1     -26.250   2.920  26.395  0.00  0.00    +0.092 C 
ATOM      4  C   UNL A   1     -27.438   3.091  25.645  0.00  0.00    +0.108 C 
ATOM      5  N   UNL A   1     -28.075   2.089  25.003  0.00  0.00    -0.208 NA
ATOM      6  C   UNL A   1     -27.543   0.849  25.079  0.00  0.00    +0.255 C 
ATOM      7  C   UNL A   1     -26.354   0.576  25.777  0.00  0.00    +0.208 C 
ATOM      8  F   UNL A   1     -25.860  -0.681  25.795  0.00  0.00    -0.198 F 
BRANCH   3   9
ATOM      9  C   UNL A   1     -25.642   4.093  27.123  0.00  0.00    +0.268 C 
ATOM     10  N   UNL A   1     -25.614   5.252  26.449  0.00  0.00    -0.200 NA
ATOM     11  C   UNL A   1     -25.026   6.479  26.963  0.00  0.00    +0.139 C 
ATOM     12  O   UNL A   1     -25.143   3.966  28.243  0.00  0.00    -0.268 OA
ENDBRANCH   3   9
BRANCH   6  13
ATOM     13  O   UNL A   1     -28.193  -0.208  24.477  0.00  0.00    -0.456 OA
BRANCH  13  14
ATOM     14  C   UNL A   1     -29.460   0.005  23.866  0.00  0.00    +0.243 C 
BRANCH  14  15
ATOM     15  C   UNL A   1     -30.065  -1.377  23.573  0.00  0.00    +0.229 C 
ATOM     16  O   UNL A   1     -30.729  -1.878  24.721  0.00  0.00    -0.216 OA
ENDBRANCH  14  15
ENDBRANCH  13  14
ENDBRANCH   6  13
ENDBRANCH   1   2
BRANCH   1  18
ATOM     17  C   UNL A   1     -20.677   1.654  27.021  0.00  0.00    +0.000 C 
ATOM     18  C   UNL A   1     -23.436   1.446  27.378  0.00  0.00    +0.068 C 
ATOM     19  C   UNL A   1     -21.541   2.176  26.049  0.00  0.00    +0.001 C 
ATOM     20  C   UNL A   1     -21.177   1.093  28.196  0.00  0.00    +0.001 C 
ATOM     21  C   UNL A   1     -22.568   1.043  28.378  0.00  0.00    +0.016 C 
ATOM     22  C   UNL A   1     -22.918   2.091  26.234  0.00  0.00    +0.016 C 
ENDBRANCH   1  18
BRANCH   1  23
ATOM     23  N   UNL A   1     -24.936   0.128  27.973  0.00  0.00    -0.126 NA
BRANCH  23  24
ATOM     24  C   UNL A   1     -25.733  -0.292  29.103  0.00  0.00    +0.118 C 
BRANCH  24  25
ATOM     25  C   UNL A   1     -24.855  -1.012  30.143  0.00  0.00    +0.059 C 
BRANCH  25  26
ATOM     26  C   UNL A   1     -24.973  -2.505  29.788  0.00  0.00    -0.020 C 
ATOM     27  C   UNL A   1     -23.906  -3.173  29.146  0.00  0.00    -0.004 C 
ATOM     28  C   UNL A   1     -23.989  -4.549  28.853  0.00  0.00    -0.000 C 
ATOM     29  C   UNL A   1     -25.137  -5.280  29.205  0.00  0.00    -0.000 C 
ATOM     30  C   UNL A   1     -26.232  -4.611  29.784  0.00  0.00    -0.000 C 
ATOM     31  C   UNL A   1     -26.155  -3.232  30.065  0.00  0.00    -0.004 C 
ENDBRANCH  25  26
BRANCH  25  32
ATOM     32  C   UNL A   1     -25.387  -0.679  31.571  0.00  0.00    +0.094 C 
ATOM     33  C   UNL A   1     -25.189   0.773  32.028  0.00  0.00    +0.094 C 
ATOM     34  C   UNL A   1     -25.336   0.684  33.544  0.00  0.00    +0.038 C 
ATOM     35  C   UNL A   1     -24.829  -0.715  33.905  0.00  0.00    +0.090 C 
ATOM     36  N   UNL A   1     -24.758  -1.481  32.646  0.00  0.00    -0.218 NA
BRANCH  33  37
ATOM     37  N   UNL A   1     -24.928   1.607  30.891  0.00  0.00    -0.176 NA
BRANCH  37  38
ATOM     38  C   UNL A   1     -24.819   3.016  31.190  0.00  0.00    +0.302 C 
BRANCH  38  39
ATOM     39  O   UNL A   1     -25.784   3.358  32.198  0.00  0.00    -0.429 OA
BRANCH  39  40
ATOM     40  C   UNL A   1     -25.341   4.425  32.855  0.00  0.00    +0.319 C 
ATOM     41  C   UNL A   1     -25.884   5.730  32.492  0.00  0.00    +0.121 C 
ATOM     42  O   UNL A   1     -24.418   4.336  33.684  0.00  0.00    -0.250 OA
ENDBRANCH  39  40
ENDBRANCH  38  39
ENDBRANCH  37  38
ENDBRANCH  33  37
ENDBRANCH  25  32
ENDBRANCH  24  25
ENDBRANCH  23  24
ENDBRANCH   1  23
TORSDOF 15
