MODEL 3121
MODEL 1
REMARK VINA RESULT:    -7.122      0.000      0.000
REMARK INTER + INTRA:         -11.465
REMARK INTER:                  -9.620
REMARK INTRA:                  -1.845
REMARK UNBOUND:                -1.845
REMARK  Name = No_3121-gen_results/8p0m/2024-11-27-11-27-31/
REMARK  6 active torsions:
REMARK  status: ('A' for Active; 'I' for Inactive)
REMARK    1  A    between atoms: C_2  and  C_7
REMARK    2  A    between atoms: C_7  and  C_8
REMARK    3  A    between atoms: C_9  and  C_10
REMARK    4  A    between atoms: C_11  and  C_12
REMARK    5  A    between atoms: C_12  and  C_13
REMARK    6  A    between atoms: C_14  and  C_15
REMARK                            x       y       z     vdW  Elec       q    Type
REMARK                         _______ _______ _______ _____ _____    ______ ____
ROOT
ATOM      1  C   UNL A   1     -25.094  -0.334  31.764  0.00  0.00    -0.005 C 
ATOM      2  C   UNL A   1     -23.905  -1.106  32.122  0.00  0.00    -0.021 C 
ENDROOT
BRANCH   1   4
ATOM      3  C   UNL A   1     -27.130  -1.474  31.286  0.00  0.00    -0.021 C 
ATOM      4  C   UNL A   1     -26.373  -0.850  32.110  0.00  0.00    -0.005 C 
BRANCH   3   5
ATOM      5  C   UNL A   1     -26.752  -1.624  29.842  0.00  0.00    +0.052 C 
BRANCH   5   7
ATOM      6  C   UNL A   1     -26.389  -3.993  29.859  0.00  0.00    -0.004 A 
ATOM      7  C   UNL A   1     -25.983  -2.900  29.541  0.00  0.00    -0.018 A 
ATOM      8  C   UNL A   1     -24.816  -2.687  28.881  0.00  0.00    -0.004 A 
ATOM      9  C   UNL A   1     -24.026  -3.802  28.544  0.00  0.00    -0.000 A 
ATOM     10  C   UNL A   1     -25.681  -5.183  29.462  0.00  0.00    -0.000 A 
ATOM     11  C   UNL A   1     -24.488  -5.023  28.823  0.00  0.00    -0.000 A 
ENDBRANCH   5   7
ENDBRANCH   3   5
ENDBRANCH   1   4
BRANCH   2  12
ATOM     12  C   UNL A   1     -22.714  -0.636  31.554  0.00  0.00    +0.052 C 
BRANCH  12  13
ATOM     13  C   UNL A   1     -22.797  -0.242  30.165  0.00  0.00    -0.021 C 
ATOM     14  C   UNL A   1     -22.866   0.704  29.545  0.00  0.00    -0.004 C 
BRANCH  14  15
ATOM     15  C   UNL A   1     -23.112   0.843  28.075  0.00  0.00    -0.000 A 
ATOM     16  C   UNL A   1     -24.153   0.282  27.422  0.00  0.00    -0.000 A 
ATOM     17  C   UNL A   1     -22.187   1.628  27.337  0.00  0.00    -0.000 A 
ATOM     18  C   UNL A   1     -22.572   2.279  26.195  0.00  0.00    -0.000 A 
ATOM     19  C   UNL A   1     -24.499   0.732  26.112  0.00  0.00    -0.000 A 
ATOM     20  C   UNL A   1     -23.672   1.683  25.492  0.00  0.00    -0.000 A 
ENDBRANCH  14  15
ENDBRANCH  12  13
ENDBRANCH   2  12
TORSDOF 6
ENDMDL
ENDMDL
