REMARK  Name = No_3121-gen_results/8p0m/2024-11-27-11-27-31/
REMARK  6 active torsions:
REMARK  status: ('A' for Active; 'I' for Inactive)
REMARK    1  A    between atoms: C_2  and  C_7
REMARK    2  A    between atoms: C_7  and  C_8
REMARK    3  A    between atoms: C_9  and  C_10
REMARK    4  A    between atoms: C_11  and  C_12
REMARK    5  A    between atoms: C_12  and  C_13
REMARK    6  A    between atoms: C_14  and  C_15
REMARK                            x       y       z     vdW  Elec       q    Type
REMARK                         _______ _______ _______ _____ _____    ______ ____
ROOT
ATOM      1  C   UNL A   1     -25.681  -3.213  28.957  0.00  0.00    -0.005 C 
ATOM      2  C   UNL A   1     -25.423  -4.586  29.387  0.00  0.00    -0.021 C 
ENDROOT
BRANCH   1   4
ATOM      3  C   UNL A   1     -24.718  -1.061  28.613  0.00  0.00    -0.021 C 
ATOM      4  C   UNL A   1     -24.643  -2.249  29.088  0.00  0.00    -0.005 C 
BRANCH   3   5
ATOM      5  C   UNL A   1     -25.891  -0.626  27.786  0.00  0.00    +0.052 C 
BRANCH   5   7
ATOM      6  C   UNL A   1     -28.016  -0.814  28.878  0.00  0.00    -0.004 A 
ATOM      7  C   UNL A   1     -27.064  -0.119  28.608  0.00  0.00    -0.018 A 
ATOM      8  C   UNL A   1     -26.929   1.171  29.008  0.00  0.00    -0.004 A 
ATOM      9  C   UNL A   1     -27.956   1.741  29.784  0.00  0.00    -0.000 A 
ATOM     10  C   UNL A   1     -29.057  -0.327  29.747  0.00  0.00    -0.000 A 
ATOM     11  C   UNL A   1     -28.983   0.972  30.152  0.00  0.00    -0.000 A 
ENDBRANCH   5   7
ENDBRANCH   3   5
ENDBRANCH   1   4
BRANCH   2  12
ATOM     12  C   UNL A   1     -26.558  -5.406  29.427  0.00  0.00    +0.052 C 
BRANCH  12  13
ATOM     13  C   UNL A   1     -27.737  -4.813  30.018  0.00  0.00    -0.021 C 
ATOM     14  C   UNL A   1     -28.079  -4.394  31.014  0.00  0.00    -0.004 C 
BRANCH  14  15
ATOM     15  C   UNL A   1     -29.454  -3.972  31.429  0.00  0.00    -0.000 A 
ATOM     16  C   UNL A   1     -29.725  -3.244  32.534  0.00  0.00    -0.000 A 
ATOM     17  C   UNL A   1     -30.530  -4.362  30.588  0.00  0.00    -0.000 A 
ATOM     18  C   UNL A   1     -31.676  -3.615  30.522  0.00  0.00    -0.000 A 
ATOM     19  C   UNL A   1     -30.995  -2.608  32.675  0.00  0.00    -0.000 A 
ATOM     20  C   UNL A   1     -31.974  -2.847  31.697  0.00  0.00    -0.000 A 
ENDBRANCH  14  15
ENDBRANCH  12  13
ENDBRANCH   2  12
TORSDOF 6
