MODEL 3122
MODEL 1
REMARK VINA RESULT:    -6.517      0.000      0.000
REMARK INTER + INTRA:          -6.966
REMARK INTER:                  -6.898
REMARK INTRA:                  -0.068
REMARK UNBOUND:                -0.068
REMARK  Name = No_3122-gen_results/8p0m/2024-11-27-11-27-31/
REMARK  1 active torsions:
REMARK  status: ('A' for Active; 'I' for Inactive)
REMARK    1  A    between atoms: C_8  and  C_11
REMARK                            x       y       z     vdW  Elec       q    Type
REMARK                         _______ _______ _______ _____ _____    ______ ____
ROOT
ATOM      1  C   UNL A   1     -29.809 -11.752  28.143  0.00  0.00    +0.000 A 
ATOM      2  C   UNL A   1     -29.054 -12.105  29.019  0.00  0.00    +0.000 A 
ATOM      3  C   UNL A   1     -28.970 -11.481  30.263  0.00  0.00    +0.000 A 
ATOM      4  C   UNL A   1     -29.782 -10.308  30.521  0.00  0.00    +0.000 A 
ATOM      5  C   UNL A   1     -30.632  -9.949  29.449  0.00  0.00    +0.000 A 
ATOM      6  C   UNL A   1     -30.636 -10.594  28.311  0.00  0.00    +0.000 A 
ATOM      7  C   UNL A   1     -28.077 -11.867  31.387  0.00  0.00    +0.005 A 
ATOM      8  C   UNL A   1     -28.126 -11.325  32.581  0.00  0.00    +0.057 A 
ATOM      9  C   UNL A   1     -29.111 -10.246  32.763  0.00  0.00    +0.005 A 
ATOM     10  C   UNL A   1     -29.876  -9.744  31.798  0.00  0.00    +0.000 A 
ENDROOT
BRANCH   8  11
ATOM     11  C   UNL A   1     -27.312 -11.712  33.715  0.00  0.00    +0.284 C 
ATOM     12  N   UNL A   1     -27.018 -10.834  34.667  0.00  0.00    -0.084 NA
ATOM     13  O   UNL A   1     -26.685 -12.853  33.714  0.00  0.00    -0.267 OA
ENDBRANCH   8  11
TORSDOF 1
ENDMDL
ENDMDL
