REMARK  Name = outputs/IAG933/test6/raw/output_3122_IAG933_linker_design_.xyz
REMARK  12 active torsions:
REMARK  status: ('A' for Active; 'I' for Inactive)
REMARK    1  A    between atoms: C_1  and  C_2
REMARK    2  A    between atoms: C_1  and  C_8
REMARK    3  A    between atoms: C_1  and  N_42
REMARK    4  A    between atoms: C_13  and  C_44
REMARK    5  A    between atoms: C_14  and  C_15
REMARK    6  A    between atoms: C_21  and  O_22
REMARK    7  A    between atoms: O_22  and  C_23
REMARK    8  A    between atoms: C_23  and  C_24
REMARK    9  A    between atoms: C_30  and  C_32
REMARK   10  A    between atoms: C_30  and  C_34
REMARK   11  A    between atoms: C_34  and  N_40
REMARK   12  A    between atoms: C_36  and  N_42
REMARK                            x       y       z     vdW  Elec       q    Type
REMARK                         _______ _______ _______ _____ _____    ______ ____
ROOT
ATOM      1  C   UNL A   1     -22.946   0.686  28.913  0.00  0.00    +0.154 C 
ATOM      2  C   UNL A   1     -23.344   1.420  26.288  0.00  0.00    +0.141 C 
ATOM      3  C   UNL A   1     -24.299   0.657  28.370  0.00  0.00    +0.085 C 
ATOM      4  C   UNL A   1     -21.890   1.165  28.128  0.00  0.00    +0.033 C 
ATOM      5  C   UNL A   1     -22.069   1.535  26.813  0.00  0.00    +0.032 C 
ATOM      6  F   UNL A   1     -23.545   1.357  24.982  0.00  0.00    -0.204 F 
ATOM      7  F   UNL A   1     -22.597   0.257  30.111  0.00  0.00    -0.203 F 
ATOM      8  C   UNL A   1     -24.422   1.199  27.140  0.00  0.00    +0.046 C 
ENDROOT
BRANCH   8   9
ATOM      9  C   UNL A   1     -25.688   1.614  26.461  0.00  0.00    +0.042 C 
ATOM     10  C   UNL A   1     -26.250   2.920  26.395  0.00  0.00    +0.077 C 
ATOM     11  C   UNL A   1     -27.438   3.091  25.645  0.00  0.00    +0.107 C 
ATOM     12  N   UNL A   1     -28.075   2.089  25.003  0.00  0.00    -0.208 NA
ATOM     13  C   UNL A   1     -27.543   0.849  25.079  0.00  0.00    +0.253 C 
ATOM     14  C   UNL A   1     -26.354   0.576  25.777  0.00  0.00    +0.193 C 
ATOM     15  F   UNL A   1     -25.860  -0.681  25.795  0.00  0.00    -0.199 F 
BRANCH  10  16
ATOM     16  C   UNL A   1     -25.642   4.093  27.123  0.00  0.00    +0.266 C 
ATOM     17  N   UNL A   1     -25.614   5.252  26.449  0.00  0.00    -0.200 NA
ATOM     18  C   UNL A   1     -25.026   6.479  26.963  0.00  0.00    +0.139 C 
ATOM     19  O   UNL A   1     -25.143   3.966  28.243  0.00  0.00    -0.268 OA
ENDBRANCH  10  16
BRANCH  13  20
ATOM     20  O   UNL A   1     -28.193  -0.208  24.477  0.00  0.00    -0.456 OA
BRANCH  20  21
ATOM     21  C   UNL A   1     -29.460   0.005  23.866  0.00  0.00    +0.243 C 
BRANCH  21  22
ATOM     22  C   UNL A   1     -30.065  -1.377  23.573  0.00  0.00    +0.229 C 
ATOM     23  O   UNL A   1     -30.729  -1.878  24.721  0.00  0.00    -0.216 OA
ENDBRANCH  21  22
ENDBRANCH  20  21
ENDBRANCH  13  20
ENDBRANCH   8   9
BRANCH   3  27
ATOM     24  C   UNL A   1     -26.813   0.072  29.034  0.00  0.00    +0.327 C 
ATOM     25  O   UNL A   1     -27.243   1.206  28.981  0.00  0.00    -0.250 OA
ATOM     26  N   UNL A   1     -27.800  -0.907  29.081  0.00  0.00    -0.185 NA
ATOM     27  N   UNL A   1     -25.323  -0.060  29.145  0.00  0.00    -0.236 N 
BRANCH  27  28
ATOM     28  C   UNL A   1     -24.855  -1.012  30.143  0.00  0.00    +0.120 C 
BRANCH  28  29
ATOM     29  C   UNL A   1     -24.973  -2.505  29.788  0.00  0.00    -0.003 C 
ATOM     30  C   UNL A   1     -23.906  -3.173  29.146  0.00  0.00    -0.003 C 
ATOM     31  C   UNL A   1     -23.989  -4.549  28.853  0.00  0.00    -0.000 C 
ATOM     32  C   UNL A   1     -25.137  -5.280  29.205  0.00  0.00    -0.000 C 
ATOM     33  C   UNL A   1     -26.232  -4.611  29.784  0.00  0.00    -0.000 C 
ATOM     34  C   UNL A   1     -26.155  -3.232  30.065  0.00  0.00    -0.003 C 
ENDBRANCH  28  29
BRANCH  28  35
ATOM     35  C   UNL A   1     -25.387  -0.679  31.571  0.00  0.00    +0.096 C 
ATOM     36  C   UNL A   1     -25.189   0.773  32.028  0.00  0.00    +0.021 C 
ATOM     37  C   UNL A   1     -25.336   0.684  33.544  0.00  0.00    +0.020 C 
ATOM     38  C   UNL A   1     -24.829  -0.715  33.905  0.00  0.00    +0.089 C 
ATOM     39  N   UNL A   1     -24.758  -1.481  32.646  0.00  0.00    -0.217 NA
ENDBRANCH  28  35
ENDBRANCH  27  28
BRANCH  26  40
ATOM     40  C   UNL A   1     -29.089  -0.636  29.846  0.00  0.00    +0.149 C 
BRANCH  40  42
ATOM     41  O   UNL A   1     -30.024  -0.267  27.676  0.00  0.00    -0.221 OA
ATOM     42  C   UNL A   1     -30.180  -0.706  29.005  0.00  0.00    +0.174 C 
BRANCH  42  43
ATOM     43  C   UNL A   1     -31.494  -1.450  29.370  0.00  0.00    +0.035 C 
ATOM     44  C   UNL A   1     -31.971  -1.172  30.805  0.00  0.00    +0.003 C 
ENDBRANCH  42  43
ENDBRANCH  40  42
ENDBRANCH  26  40
ENDBRANCH   3  27
TORSDOF 12
