MODEL 3123
MODEL 1
REMARK VINA RESULT:    -7.301      0.000      0.000
REMARK INTER + INTRA:         -10.746
REMARK INTER:                  -9.861
REMARK INTRA:                  -0.885
REMARK UNBOUND:                -0.885
REMARK  Name = No_3123-gen_results/8p0m/2024-11-27-11-27-31/
REMARK  6 active torsions:
REMARK  status: ('A' for Active; 'I' for Inactive)
REMARK    1  A    between atoms: C_3  and  C_7
REMARK    2  A    between atoms: C_6  and  C_13
REMARK    3  A    between atoms: N_17  and  C_19
REMARK    4  A    between atoms: C_19  and  C_20
REMARK    5  A    between atoms: C_21  and  C_22
REMARK    6  A    between atoms: C_23  and  C_24
REMARK                            x       y       z     vdW  Elec       q    Type
REMARK                         _______ _______ _______ _____ _____    ______ ____
ROOT
ATOM      1  C   UNL A   1     -25.148   1.123  26.358  0.00  0.00    +0.111 C 
ATOM      2  N   UNL A   1     -24.050   1.800  25.979  0.00  0.00    -0.212 NA
ATOM      3  C   UNL A   1     -23.095   2.215  26.830  0.00  0.00    +0.106 C 
ATOM      4  C   UNL A   1     -22.527   1.316  27.613  0.00  0.00    +0.091 C 
ATOM      5  N   UNL A   1     -23.410   0.415  28.224  0.00  0.00    -0.266 NA
ATOM      6  C   UNL A   1     -24.877   0.363  27.624  0.00  0.00    +0.095 C 
ENDROOT
BRANCH   1  12
ATOM      7  C   UNL A   1     -26.709  -0.008  24.662  0.00  0.00    -0.003 A 
ATOM      8  C   UNL A   1     -27.743  -0.006  24.036  0.00  0.00    -0.000 A 
ATOM      9  C   UNL A   1     -28.622   1.075  24.001  0.00  0.00    -0.000 A 
ATOM     10  C   UNL A   1     -28.328   2.250  24.798  0.00  0.00    -0.000 A 
ATOM     11  C   UNL A   1     -27.136   2.198  25.519  0.00  0.00    -0.003 A 
ATOM     12  C   UNL A   1     -26.367   1.127  25.504  0.00  0.00    -0.005 A 
BRANCH   9  13
ATOM     13  C   UNL A   1     -29.915   1.160  23.250  0.00  0.00    -0.000 A 
ATOM     14  C   UNL A   1     -30.949   0.364  23.444  0.00  0.00    -0.000 A 
ATOM     15  C   UNL A   1     -32.169   0.535  22.729  0.00  0.00    +0.000 A 
ATOM     16  C   UNL A   1     -32.399   1.873  22.368  0.00  0.00    +0.000 A 
ATOM     17  C   UNL A   1     -30.326   2.418  22.607  0.00  0.00    -0.000 A 
ATOM     18  C   UNL A   1     -31.480   2.695  22.123  0.00  0.00    +0.000 A 
ENDBRANCH   9  13
ENDBRANCH   1  12
BRANCH   5  19
ATOM     19  C   UNL A   1     -23.226  -0.483  29.258  0.00  0.00    +0.099 C 
BRANCH  19  20
ATOM     20  C   UNL A   1     -23.162  -1.751  28.941  0.00  0.00    -0.009 C 
ATOM     21  C   UNL A   1     -23.891  -2.620  29.389  0.00  0.00    -0.003 C 
BRANCH  21  22
ATOM     22  C   UNL A   1     -24.205  -3.784  29.071  0.00  0.00    -0.000 C 
ATOM     23  C   UNL A   1     -25.418  -4.594  29.302  0.00  0.00    -0.000 C 
BRANCH  23  24
ATOM     24  C   UNL A   1     -26.487  -3.850  29.860  0.00  0.00    -0.000 C 
ATOM     25  C   UNL A   1     -27.681  -4.507  30.181  0.00  0.00    -0.000 C 
ENDBRANCH  23  24
ENDBRANCH  21  22
ENDBRANCH  19  20
ENDBRANCH   5  19
TORSDOF 6
ENDMDL
ENDMDL
