REMARK  Name = No_3123-gen_results/8p0m/2024-11-27-11-27-31/
REMARK  6 active torsions:
REMARK  status: ('A' for Active; 'I' for Inactive)
REMARK    1  A    between atoms: C_3  and  C_7
REMARK    2  A    between atoms: C_6  and  C_13
REMARK    3  A    between atoms: N_17  and  C_19
REMARK    4  A    between atoms: C_19  and  C_20
REMARK    5  A    between atoms: C_21  and  C_22
REMARK    6  A    between atoms: C_23  and  C_24
REMARK                            x       y       z     vdW  Elec       q    Type
REMARK                         _______ _______ _______ _____ _____    ______ ____
ROOT
ATOM      1  C   UNL A   1     -29.019  -2.780  30.189  0.00  0.00    +0.111 C 
ATOM      2  N   UNL A   1     -28.873  -4.096  30.417  0.00  0.00    -0.212 NA
ATOM      3  C   UNL A   1     -29.700  -4.819  31.193  0.00  0.00    +0.106 C 
ATOM      4  C   UNL A   1     -30.991  -4.796  30.914  0.00  0.00    +0.091 C 
ATOM      5  N   UNL A   1     -31.518  -3.528  30.634  0.00  0.00    -0.266 NA
ATOM      6  C   UNL A   1     -30.460  -2.385  30.335  0.00  0.00    +0.095 C 
ENDROOT
BRANCH   1  12
ATOM      7  C   UNL A   1     -28.016  -0.814  28.878  0.00  0.00    -0.003 A 
ATOM      8  C   UNL A   1     -27.064  -0.119  28.608  0.00  0.00    -0.000 A 
ATOM      9  C   UNL A   1     -25.765  -0.390  29.036  0.00  0.00    -0.000 A 
ATOM     10  C   UNL A   1     -25.530  -1.530  29.901  0.00  0.00    -0.000 A 
ATOM     11  C   UNL A   1     -26.658  -2.292  30.203  0.00  0.00    -0.003 A 
ATOM     12  C   UNL A   1     -27.855  -1.956  29.763  0.00  0.00    -0.005 A 
BRANCH   9  13
ATOM     13  C   UNL A   1     -24.535   0.413  28.743  0.00  0.00    -0.000 A 
ATOM     14  C   UNL A   1     -23.306   0.037  29.039  0.00  0.00    -0.000 A 
ATOM     15  C   UNL A   1     -22.176   0.828  28.684  0.00  0.00    +0.000 A 
ATOM     16  C   UNL A   1     -22.394   1.588  27.522  0.00  0.00    +0.000 A 
ATOM     17  C   UNL A   1     -24.539   1.425  27.675  0.00  0.00    -0.000 A 
ATOM     18  C   UNL A   1     -23.521   2.025  27.179  0.00  0.00    +0.000 A 
ENDBRANCH   9  13
ENDBRANCH   1  12
BRANCH   5  19
ATOM     19  C   UNL A   1     -32.823  -3.084  30.536  0.00  0.00    +0.099 C 
BRANCH  19  20
ATOM     20  C   UNL A   1     -33.168  -2.079  31.299  0.00  0.00    -0.009 C 
ATOM     21  C   UNL A   1     -32.496  -1.636  32.215  0.00  0.00    -0.003 C 
BRANCH  21  22
ATOM     22  C   UNL A   1     -32.464  -0.582  32.881  0.00  0.00    -0.000 C 
ATOM     23  C   UNL A   1     -31.616  -0.129  34.002  0.00  0.00    -0.000 C 
BRANCH  23  24
ATOM     24  C   UNL A   1     -30.532  -1.002  34.269  0.00  0.00    -0.000 C 
ATOM     25  C   UNL A   1     -30.388  -2.165  33.503  0.00  0.00    -0.000 C 
ENDBRANCH  23  24
ENDBRANCH  21  22
ENDBRANCH  19  20
ENDBRANCH   5  19
TORSDOF 6
