REMARK  Name = No_3124-gen_results/8p0m/2024-11-27-11-27-31/
REMARK  5 active torsions:
REMARK  status: ('A' for Active; 'I' for Inactive)
REMARK    1  A    between atoms: C_3  and  O_14
REMARK    2  A    between atoms: C_4  and  C_8
REMARK    3  A    between atoms: O_14  and  C_15
REMARK    4  A    between atoms: C_25  and  C_26
REMARK    5  A    between atoms: C_26  and  C_27
REMARK                            x       y       z     vdW  Elec       q    Type
REMARK                         _______ _______ _______ _____ _____    ______ ____
ROOT
ATOM      1  C   UNL A   1     -27.911   0.512  26.346  0.00  0.00    +0.146 A 
ATOM      2  C   UNL A   1     -28.529   1.349  27.021  0.00  0.00    +0.041 A 
ATOM      3  C   UNL A   1     -29.388   2.038  26.853  0.00  0.00    +0.006 A 
ATOM      4  C   UNL A   1     -30.041   3.080  27.737  0.00  0.00    +0.000 A 
ATOM      5  C   UNL A   1     -29.556   3.193  29.039  0.00  0.00    +0.001 A 
ATOM      6  C   UNL A   1     -28.524   2.348  29.431  0.00  0.00    +0.007 A 
ATOM      7  C   UNL A   1     -27.985   1.510  28.521  0.00  0.00    +0.037 A 
ATOM      8 BR   UNL A   1     -26.684   1.561  29.000  0.00  0.00    -0.049 Br
ATOM      9  C   UNL A   1     -28.414   0.127  25.063  0.00  0.00    +0.038 A 
ATOM     10  C   UNL A   1     -29.656   0.469  24.662  0.00  0.00    +0.006 A 
ATOM     11  C   UNL A   1     -30.179   1.649  25.528  0.00  0.00    +0.039 A 
ENDROOT
BRANCH  11  12
ATOM     12  C   UNL A   1     -31.490   2.236  25.122  0.00  0.00    +0.196 C 
ATOM     13  O   UNL A   1     -31.212   3.172  24.271  0.00  0.00    -0.287 OA
BRANCH  12  14
ATOM     14  C   UNL A   1     -32.488   1.837  25.732  0.00  0.00    +0.039 A 
ATOM     15  C   UNL A   1     -32.783   0.971  26.390  0.00  0.00    +0.003 A 
ATOM     16  C   UNL A   1     -34.030   0.590  27.055  0.00  0.00    +0.000 A 
ATOM     17  C   UNL A   1     -35.079   1.457  26.777  0.00  0.00    +0.000 A 
ATOM     18  C   UNL A   1     -34.912   2.543  25.989  0.00  0.00    +0.000 A 
ATOM     19  C   UNL A   1     -33.691   2.868  25.451  0.00  0.00    +0.003 A 
ENDBRANCH  12  14
ENDBRANCH  11  12
BRANCH   1  20
ATOM     20  O   UNL A   1     -26.738  -0.002  26.730  0.00  0.00    -0.451 OA
BRANCH  20  23
ATOM     21  F   UNL A   1     -28.073  -1.254  28.532  0.00  0.00    -0.201 F 
ATOM     22  C   UNL A   1     -27.061  -0.629  28.872  0.00  0.00    +0.174 A 
ATOM     23  C   UNL A   1     -26.358  -0.071  28.012  0.00  0.00    +0.172 A 
ATOM     24  C   UNL A   1     -25.072   0.553  28.256  0.00  0.00    +0.037 A 
ATOM     25  C   UNL A   1     -24.577   0.480  29.570  0.00  0.00    +0.003 A 
ATOM     26  C   UNL A   1     -25.332  -0.203  30.506  0.00  0.00    +0.003 A 
ATOM     27  C   UNL A   1     -26.496  -0.736  30.161  0.00  0.00    +0.033 A 
BRANCH  24  28
ATOM     28  C   UNL A   1     -24.257   1.252  27.262  0.00  0.00    +0.003 A 
ATOM     29  C   UNL A   1     -24.584   1.852  26.265  0.00  0.00    +0.000 A 
ATOM     30  C   UNL A   1     -22.780   1.377  27.627  0.00  0.00    +0.000 A 
ATOM     31  C   UNL A   1     -21.944   2.059  26.722  0.00  0.00    +0.000 A 
ATOM     32  C   UNL A   1     -23.724   2.577  25.366  0.00  0.00    +0.000 A 
ATOM     33  C   UNL A   1     -22.410   2.675  25.671  0.00  0.00    +0.000 A 
ENDBRANCH  24  28
ENDBRANCH  20  23
ENDBRANCH   1  20
TORSDOF 5
