MODEL 3125
MODEL 1
REMARK VINA RESULT:    -7.355      0.000      0.000
REMARK INTER + INTRA:         -10.523
REMARK INTER:                  -9.505
REMARK INTRA:                  -1.018
REMARK UNBOUND:                -1.018
REMARK  Name = No_3125-gen_results/8p0m/2024-11-27-11-27-31/
REMARK  5 active torsions:
REMARK  status: ('A' for Active; 'I' for Inactive)
REMARK    1  A    between atoms: C_2  and  O_16
REMARK    2  A    between atoms: C_9  and  C_10
REMARK    3  A    between atoms: C_10  and  C_11
REMARK    4  A    between atoms: O_16  and  C_17
REMARK    5  A    between atoms: C_17  and  C_18
REMARK                            x       y       z     vdW  Elec       q    Type
REMARK                         _______ _______ _______ _____ _____    ______ ____
ROOT
ATOM      1  C   UNL A   1     -23.570   0.901  29.564  0.00  0.00    +0.038 A 
ATOM      2  C   UNL A   1     -22.729   0.268  29.620  0.00  0.00    +0.149 A 
ATOM      3  C   UNL A   1     -23.519   1.844  28.447  0.00  0.00    +0.003 A 
ATOM      4  C   UNL A   1     -24.626   2.763  28.096  0.00  0.00    -0.000 A 
ATOM      5  C   UNL A   1     -21.510   0.104  28.841  0.00  0.00    +0.038 A 
ATOM      6  C   UNL A   1     -21.419   0.987  27.784  0.00  0.00    +0.003 A 
ATOM      7  C   UNL A   1     -22.434   1.833  27.533  0.00  0.00    -0.000 A 
ATOM      8  C   UNL A   1     -25.138   3.065  27.100  0.00  0.00    -0.004 A 
ATOM      9  C   UNL A   1     -24.665   2.346  25.901  0.00  0.00    -0.014 A 
ATOM     10  C   UNL A   1     -23.115   2.217  25.821  0.00  0.00    -0.004 A 
ENDROOT
BRANCH   9  11
ATOM     11  C   UNL A   1     -25.325   1.825  25.178  0.00  0.00    +0.130 C 
BRANCH  11  12
ATOM     12  C   UNL A   1     -25.515   0.321  25.021  0.00  0.00    +0.402 C 
ATOM     13  F   UNL A   1     -26.612  -0.155  24.603  0.00  0.00    -0.170 F 
ATOM     14  F   UNL A   1     -25.249   0.041  26.119  0.00  0.00    -0.170 F 
ATOM     15  F   UNL A   1     -24.530  -0.064  24.202  0.00  0.00    -0.170 F 
ENDBRANCH  11  12
ENDBRANCH   9  11
BRANCH   2  16
ATOM     16  O   UNL A   1     -22.601  -0.604  30.838  0.00  0.00    -0.421 OA
BRANCH  16  17
ATOM     17  C   UNL A   1     -23.696  -1.166  31.416  0.00  0.00    +0.346 C 
ATOM     18  O   UNL A   1     -23.980  -0.772  32.626  0.00  0.00    -0.244 OA
BRANCH  17  19
ATOM     19  C   UNL A   1     -24.369  -2.037  30.548  0.00  0.00    +0.076 A 
ATOM     20  C   UNL A   1     -23.794  -2.878  29.832  0.00  0.00    +0.006 A 
ATOM     21  C   UNL A   1     -24.588  -3.943  29.161  0.00  0.00    +0.000 A 
ATOM     22  C   UNL A   1     -25.961  -3.939  29.333  0.00  0.00    +0.000 A 
ATOM     23  C   UNL A   1     -26.619  -3.039  30.122  0.00  0.00    +0.000 A 
ATOM     24  C   UNL A   1     -25.852  -2.046  30.859  0.00  0.00    +0.006 A 
ENDBRANCH  17  19
ENDBRANCH  16  17
ENDBRANCH   2  16
TORSDOF 5
ENDMDL
ENDMDL
