REMARK  Name = outputs/IAG933/test6/raw/output_3126_IAG933_linker_design_.xyz
REMARK  8 active torsions:
REMARK  status: ('A' for Active; 'I' for Inactive)
REMARK    1  A    between atoms: C_1  and  C_2
REMARK    2  A    between atoms: C_1  and  C_8
REMARK    3  A    between atoms: C_1  and  N_32
REMARK    4  A    between atoms: C_13  and  N_38
REMARK    5  A    between atoms: C_14  and  C_15
REMARK    6  A    between atoms: C_21  and  O_22
REMARK    7  A    between atoms: O_22  and  C_23
REMARK    8  A    between atoms: C_23  and  C_24
REMARK                            x       y       z     vdW  Elec       q    Type
REMARK                         _______ _______ _______ _____ _____    ______ ____
ROOT
ATOM      1  C   UNL A   1     -22.158   1.971  26.795  0.00  0.00    +0.081 C 
ATOM      2  C   UNL A   1     -21.807   0.244  28.630  0.00  0.00    +0.186 C 
ATOM      3  C   UNL A   1     -23.389   1.588  26.327  0.00  0.00    +0.325 C 
ATOM      4  C   UNL A   1     -24.399   0.401  28.216  0.00  0.00    +0.415 C 
ATOM      5  N   UNL A   1     -25.304  -0.102  29.078  0.00  0.00    -0.063 NA
ATOM      6  C   UNL A   1     -21.434   1.375  27.836  0.00  0.00    +0.176 C 
ATOM      7  F   UNL A   1     -23.507   1.591  24.997  0.00  0.00    -0.190 F 
ATOM      8  N   UNL A   1     -23.153  -0.083  28.774  0.00  0.00    -0.070 NA
ATOM      9  F   UNL A   1     -20.255   1.937  28.113  0.00  0.00    -0.201 F 
ATOM     10  C   UNL A   1     -20.817  -0.488  29.124  0.00  0.00    +0.043 C 
ATOM     11  N   UNL A   1     -24.468   1.234  27.071  0.00  0.00    -0.143 N 
ENDROOT
BRANCH  11  12
ATOM     12  C   UNL A   1     -25.688   1.614  26.461  0.00  0.00    +0.153 C 
ATOM     13  C   UNL A   1     -26.250   2.920  26.395  0.00  0.00    +0.105 C 
ATOM     14  C   UNL A   1     -27.438   3.091  25.645  0.00  0.00    +0.109 C 
ATOM     15  N   UNL A   1     -28.075   2.089  25.003  0.00  0.00    -0.208 NA
ATOM     16  C   UNL A   1     -27.543   0.849  25.079  0.00  0.00    +0.256 C 
ATOM     17  C   UNL A   1     -26.354   0.576  25.777  0.00  0.00    +0.222 C 
ATOM     18  F   UNL A   1     -25.860  -0.681  25.795  0.00  0.00    -0.196 F 
BRANCH  13  19
ATOM     19  C   UNL A   1     -25.642   4.093  27.123  0.00  0.00    +0.269 C 
ATOM     20  N   UNL A   1     -25.614   5.252  26.449  0.00  0.00    -0.200 NA
ATOM     21  C   UNL A   1     -25.026   6.479  26.963  0.00  0.00    +0.139 C 
ATOM     22  O   UNL A   1     -25.143   3.966  28.243  0.00  0.00    -0.268 OA
ENDBRANCH  13  19
BRANCH  16  23
ATOM     23  O   UNL A   1     -28.193  -0.208  24.477  0.00  0.00    -0.456 OA
BRANCH  23  24
ATOM     24  C   UNL A   1     -29.460   0.005  23.866  0.00  0.00    +0.243 C 
BRANCH  24  25
ATOM     25  C   UNL A   1     -30.065  -1.377  23.573  0.00  0.00    +0.229 C 
ATOM     26  O   UNL A   1     -30.729  -1.878  24.721  0.00  0.00    -0.216 OA
ENDBRANCH  24  25
ENDBRANCH  23  24
ENDBRANCH  16  23
ENDBRANCH  11  12
BRANCH   5  27
ATOM     27  C   UNL A   1     -24.855  -1.012  30.143  0.00  0.00    +0.208 C 
BRANCH  27  28
ATOM     28  C   UNL A   1     -24.973  -2.505  29.788  0.00  0.00    +0.016 C 
ATOM     29  C   UNL A   1     -23.906  -3.173  29.146  0.00  0.00    -0.001 C 
ATOM     30  C   UNL A   1     -23.989  -4.549  28.853  0.00  0.00    -0.000 C 
ATOM     31  C   UNL A   1     -25.137  -5.280  29.205  0.00  0.00    -0.000 C 
ATOM     32  C   UNL A   1     -26.232  -4.611  29.784  0.00  0.00    -0.000 C 
ATOM     33  C   UNL A   1     -26.155  -3.232  30.065  0.00  0.00    -0.001 C 
ENDBRANCH  27  28
BRANCH  27  34
ATOM     34  C   UNL A   1     -25.387  -0.679  31.571  0.00  0.00    +0.114 C 
ATOM     35  C   UNL A   1     -25.189   0.773  32.028  0.00  0.00    +0.023 C 
ATOM     36  C   UNL A   1     -25.336   0.684  33.544  0.00  0.00    +0.020 C 
ATOM     37  C   UNL A   1     -24.829  -0.715  33.905  0.00  0.00    +0.089 C 
ATOM     38  N   UNL A   1     -24.758  -1.481  32.646  0.00  0.00    -0.216 NA
ENDBRANCH  27  34
ENDBRANCH   5  27
TORSDOF 8
