MODEL 3127
MODEL 1
REMARK VINA RESULT:    -6.437      0.000      0.000
REMARK INTER + INTRA:          -7.702
REMARK INTER:                  -7.190
REMARK INTRA:                  -0.512
REMARK UNBOUND:                -0.512
REMARK  Name = No_3127-gen_results/8p0m/2024-11-27-11-27-31/
REMARK  2 active torsions:
REMARK  status: ('A' for Active; 'I' for Inactive)
REMARK    1  A    between atoms: C_3  and  C_5
REMARK    2  A    between atoms: C_5  and  C_9
REMARK                            x       y       z     vdW  Elec       q    Type
REMARK                         _______ _______ _______ _____ _____    ______ ____
ROOT
ATOM      1  C   UNL A   1     -24.035  -1.221  29.766  0.00  0.00    +0.035 C 
ENDROOT
BRANCH   1   4
ATOM      2  O   UNL A   1     -26.624  -1.939  30.696  0.00  0.00    -0.273 OA
ATOM      3  C   UNL A   1     -25.841  -2.512  30.074  0.00  0.00    +0.241 C 
ATOM      4  C   UNL A   1     -24.845  -2.400  29.661  0.00  0.00    +0.083 C 
ATOM      5  N   UNL A   1     -26.326  -3.962  29.828  0.00  0.00    -0.205 NA
ATOM      6  C   UNL A   1     -25.552  -4.916  29.213  0.00  0.00    +0.115 C 
ATOM      7  C   UNL A   1     -24.310  -4.522  28.771  0.00  0.00    +0.024 C 
ATOM      8  C   UNL A   1     -23.856  -3.361  28.988  0.00  0.00    +0.011 C 
ENDBRANCH   1   4
BRANCH   1   9
ATOM      9  C   UNL A   1     -23.980  -0.516  28.768  0.00  0.00    -0.026 A 
ATOM     10  C   UNL A   1     -24.561  -0.352  27.646  0.00  0.00    -0.005 A 
ATOM     11  C   UNL A   1     -24.330   0.672  26.692  0.00  0.00    -0.000 A 
ATOM     12  C   UNL A   1     -23.248   1.538  26.871  0.00  0.00    -0.000 A 
ATOM     13  C   UNL A   1     -22.439   1.383  27.984  0.00  0.00    -0.005 A 
ATOM     14  C   UNL A   1     -22.622   0.606  28.663  0.00  0.00    -0.026 A 
ATOM     15  C   UNL A   1     -21.315  -0.386  28.807  0.00  0.00    +0.031 C 
ENDBRANCH   1   9
TORSDOF 2
ENDMDL
ENDMDL
