REMARK  Name = outputs/IAG933/test6/raw/output_3128_IAG933_linker_design_.xyz
REMARK  15 active torsions:
REMARK  status: ('A' for Active; 'I' for Inactive)
REMARK    1  A    between atoms: C_1  and  C_2
REMARK    2  A    between atoms: C_1  and  C_8
REMARK    3  A    between atoms: C_1  and  N_41
REMARK    4  A    between atoms: C_14  and  C_15
REMARK    5  A    between atoms: C_15  and  O_18
REMARK    6  A    between atoms: O_18  and  C_32
REMARK    7  A    between atoms: C_21  and  O_22
REMARK    8  A    between atoms: O_22  and  C_23
REMARK    9  A    between atoms: C_23  and  C_24
REMARK   10  A    between atoms: C_28  and  C_29
REMARK   11  A    between atoms: C_30  and  C_40
REMARK   12  A    between atoms: C_30  and  N_41
REMARK   13  A    between atoms: C_32  and  C_40
REMARK   14  A    between atoms: C_32  and  N_42
REMARK   15  A    between atoms: N_42  and  C_45
REMARK                            x       y       z     vdW  Elec       q    Type
REMARK                         _______ _______ _______ _____ _____    ______ ____
ROOT
ATOM      1  C   UNL A   1     -25.142   3.205  29.327  0.00  0.00    +0.264 C 
ENDROOT
BRANCH   1   2
ATOM      2  O   UNL A   1     -25.143   3.966  28.243  0.00  0.00    -0.443 OA
BRANCH   2   3
ATOM      3  C   UNL A   1     -25.642   4.093  27.123  0.00  0.00    +0.223 C 
ATOM      4  N   UNL A   1     -25.614   5.252  26.449  0.00  0.00    -0.236 NA
ATOM      5  C   UNL A   1     -25.026   6.479  26.963  0.00  0.00    +0.155 C 
BRANCH   3   7
ATOM      6  C   UNL A   1     -25.688   1.614  26.461  0.00  0.00    +0.041 C 
ATOM      7  C   UNL A   1     -26.250   2.920  26.395  0.00  0.00    +0.074 C 
ATOM      8  C   UNL A   1     -27.438   3.091  25.645  0.00  0.00    +0.107 C 
ATOM      9  N   UNL A   1     -28.075   2.089  25.003  0.00  0.00    -0.208 NA
ATOM     10  C   UNL A   1     -27.543   0.849  25.079  0.00  0.00    +0.253 C 
ATOM     11  C   UNL A   1     -26.354   0.576  25.777  0.00  0.00    +0.193 C 
ATOM     12  F   UNL A   1     -25.860  -0.681  25.795  0.00  0.00    -0.199 F 
BRANCH  10  13
ATOM     13  O   UNL A   1     -28.193  -0.208  24.477  0.00  0.00    -0.456 OA
BRANCH  13  14
ATOM     14  C   UNL A   1     -29.460   0.005  23.866  0.00  0.00    +0.243 C 
BRANCH  14  15
ATOM     15  C   UNL A   1     -30.065  -1.377  23.573  0.00  0.00    +0.229 C 
ATOM     16  O   UNL A   1     -30.729  -1.878  24.721  0.00  0.00    -0.216 OA
ENDBRANCH  14  15
ENDBRANCH  13  14
ENDBRANCH  10  13
ENDBRANCH   3   7
ENDBRANCH   2   3
ENDBRANCH   1   2
BRANCH   1  17
ATOM     17  C   UNL A   1     -25.087   1.756  28.747  0.00  0.00    +0.087 C 
BRANCH  17  18
ATOM     18  C   UNL A   1     -24.924   1.083  28.402  0.00  0.00    +0.082 C 
ATOM     19  C   UNL A   1     -24.659   1.534  27.558  0.00  0.00    +0.022 C 
BRANCH  18  22
ATOM     20  C   UNL A   1     -22.995   0.329  29.029  0.00  0.00    +0.277 C 
ATOM     21  O   UNL A   1     -22.220  -0.150  29.946  0.00  0.00    -0.267 OA
ATOM     22  N   UNL A   1     -24.309   0.024  29.358  0.00  0.00    -0.272 N 
BRANCH  20  23
ATOM     23  C   UNL A   1     -22.456   1.127  27.828  0.00  0.00    +0.189 C 
ATOM     24  C   UNL A   1     -23.402   1.798  26.870  0.00  0.00    +0.009 C 
ATOM     25  F   UNL A   1     -21.161   1.230  27.689  0.00  0.00    -0.200 F 
ATOM     26  C   UNL A   1     -22.970   2.436  25.533  0.00  0.00    +0.033 C 
ENDBRANCH  20  23
BRANCH  22  27
ATOM     27  C   UNL A   1     -24.855  -1.012  30.143  0.00  0.00    +0.114 C 
BRANCH  27  28
ATOM     28  C   UNL A   1     -24.973  -2.505  29.788  0.00  0.00    -0.003 C 
ATOM     29  C   UNL A   1     -23.906  -3.173  29.146  0.00  0.00    -0.003 C 
ATOM     30  C   UNL A   1     -23.989  -4.549  28.853  0.00  0.00    -0.000 C 
ATOM     31  C   UNL A   1     -25.137  -5.280  29.205  0.00  0.00    -0.000 C 
ATOM     32  C   UNL A   1     -26.232  -4.611  29.784  0.00  0.00    -0.000 C 
ATOM     33  C   UNL A   1     -26.155  -3.232  30.065  0.00  0.00    -0.003 C 
ENDBRANCH  27  28
BRANCH  27  34
ATOM     34  C   UNL A   1     -25.387  -0.679  31.571  0.00  0.00    +0.095 C 
ATOM     35  C   UNL A   1     -25.189   0.773  32.028  0.00  0.00    +0.021 C 
ATOM     36  C   UNL A   1     -25.336   0.684  33.544  0.00  0.00    +0.020 C 
ATOM     37  C   UNL A   1     -24.829  -0.715  33.905  0.00  0.00    +0.089 C 
ATOM     38  N   UNL A   1     -24.758  -1.481  32.646  0.00  0.00    -0.217 NA
ENDBRANCH  27  34
ENDBRANCH  22  27
ENDBRANCH  18  22
ENDBRANCH  17  18
ENDBRANCH   1  17
BRANCH   1  39
ATOM     39  N   UNL A   1     -25.251   3.667  30.748  0.00  0.00    -0.200 NA
BRANCH  39  46
ATOM     40  C   UNL A   1     -28.692   2.458  32.334  0.00  0.00    -0.000 C 
ATOM     41  C   UNL A   1     -27.572   3.606  30.579  0.00  0.00    -0.007 C 
ATOM     42  C   UNL A   1     -27.839   4.375  29.334  0.00  0.00    +0.032 C 
ATOM     43  C   UNL A   1     -28.608   2.769  30.984  0.00  0.00    -0.003 C 
ATOM     44  C   UNL A   1     -27.737   2.887  33.228  0.00  0.00    +0.001 C 
ATOM     45  C   UNL A   1     -26.599   3.552  32.743  0.00  0.00    +0.016 C 
ATOM     46  C   UNL A   1     -26.483   3.654  31.384  0.00  0.00    +0.065 C 
ENDBRANCH  39  46
ENDBRANCH   1  39
TORSDOF 15
