MODEL 3128
MODEL 1
REMARK VINA RESULT:    -4.527      0.000      0.000
REMARK INTER + INTRA:          -4.527
REMARK INTER:                  -4.527
REMARK INTRA:                   0.000
REMARK UNBOUND:                 0.000
REMARK  Name = No_3128-gen_results/8p0m/2024-11-27-11-27-31/
REMARK  0 active torsions:
REMARK  status: ('A' for Active; 'I' for Inactive)
REMARK                            x       y       z     vdW  Elec       q    Type
REMARK                         _______ _______ _______ _____ _____    ______ ____
ROOT
ATOM      1  C   UNL A   1     -25.300  -2.625  29.736  0.00  0.00    +0.042 A 
ATOM      2  C   UNL A   1     -26.254  -3.343  29.928  0.00  0.00    +0.003 A 
ATOM      3  C   UNL A   1     -26.212  -4.694  29.605  0.00  0.00    +0.000 A 
ATOM      4  C   UNL A   1     -25.046  -5.273  28.988  0.00  0.00    +0.003 A 
ATOM      5  C   UNL A   1     -23.999  -4.366  28.780  0.00  0.00    +0.042 A 
ATOM      6  C   UNL A   1     -24.095  -3.093  29.088  0.00  0.00    +0.196 A 
ATOM      7  O   UNL A   1     -23.044  -2.271  28.817  0.00  0.00    -0.287 OA
ENDROOT
TORSDOF 0
ENDMDL
ENDMDL
