REMARK  Name = outputs/IAG933/test6/raw/output_3129_IAG933_linker_design_.xyz
REMARK  12 active torsions:
REMARK  status: ('A' for Active; 'I' for Inactive)
REMARK    1  A    between atoms: C_1  and  C_2
REMARK    2  A    between atoms: C_1  and  C_8
REMARK    3  A    between atoms: C_1  and  N_33
REMARK    4  A    between atoms: C_13  and  N_41
REMARK    5  A    between atoms: C_14  and  C_15
REMARK    6  A    between atoms: C_21  and  O_22
REMARK    7  A    between atoms: O_22  and  C_23
REMARK    8  A    between atoms: C_23  and  C_24
REMARK    9  A    between atoms: N_32  and  C_34
REMARK   10  A    between atoms: C_34  and  C_38
REMARK   11  A    between atoms: C_35  and  N_41
REMARK   12  A    between atoms: C_38  and  C_39
REMARK                            x       y       z     vdW  Elec       q    Type
REMARK                         _______ _______ _______ _____ _____    ______ ____
ROOT
ATOM      1  N   UNL A   1     -24.801   0.023  29.166  0.00  0.00    -0.061 NA
ATOM      2  C   UNL A   1     -25.635   0.689  28.613  0.00  0.00    +0.360 C 
ATOM      3  N   UNL A   1     -24.823   1.177  27.404  0.00  0.00    -0.162 N 
ENDROOT
BRANCH   3   4
ATOM      4  C   UNL A   1     -25.688   1.614  26.461  0.00  0.00    +0.235 C 
ATOM      5  C   UNL A   1     -26.250   2.920  26.395  0.00  0.00    +0.098 C 
ATOM      6  C   UNL A   1     -27.438   3.091  25.645  0.00  0.00    +0.106 C 
ATOM      7  N   UNL A   1     -28.075   2.089  25.003  0.00  0.00    -0.212 NA
ATOM      8  C   UNL A   1     -27.543   0.849  25.079  0.00  0.00    +0.238 C 
ATOM      9  C   UNL A   1     -26.354   0.576  25.777  0.00  0.00    +0.283 C 
ATOM     10  F   UNL A   1     -25.860  -0.681  25.795  0.00  0.00    -0.222 F 
BRANCH   5  11
ATOM     11  C   UNL A   1     -25.642   4.093  27.123  0.00  0.00    +0.266 C 
ATOM     12  N   UNL A   1     -25.614   5.252  26.449  0.00  0.00    -0.200 NA
ATOM     13  C   UNL A   1     -25.026   6.479  26.963  0.00  0.00    +0.139 C 
ATOM     14  O   UNL A   1     -25.143   3.966  28.243  0.00  0.00    -0.269 OA
ENDBRANCH   5  11
BRANCH   8  15
ATOM     15  O   UNL A   1     -28.193  -0.208  24.477  0.00  0.00    -0.458 OA
BRANCH  15  16
ATOM     16  C   UNL A   1     -29.460   0.005  23.866  0.00  0.00    +0.242 C 
BRANCH  16  17
ATOM     17  C   UNL A   1     -30.065  -1.377  23.573  0.00  0.00    +0.229 C 
ATOM     18  O   UNL A   1     -30.729  -1.878  24.721  0.00  0.00    -0.216 OA
ENDBRANCH  16  17
ENDBRANCH  15  16
ENDBRANCH   8  15
ENDBRANCH   3   4
BRANCH   3  19
ATOM     19  C   UNL A   1     -23.463   1.459  27.254  0.00  0.00    +0.180 C 
ATOM     20  C   UNL A   1     -22.535   1.410  28.199  0.00  0.00    +0.220 C 
ATOM     21  C   UNL A   1     -21.569   1.973  26.205  0.00  0.00    +0.183 C 
ATOM     22  C   UNL A   1     -22.870   1.778  25.970  0.00  0.00    +0.084 C 
ATOM     23  O   UNL A   1     -21.400   1.636  27.504  0.00  0.00    -0.444 OA
ENDBRANCH   3  19
BRANCH   2  25
ATOM     24  O   UNL A   1     -27.450  -0.759  28.341  0.00  0.00    -0.282 OA
ATOM     25  C   UNL A   1     -27.331   0.015  28.901  0.00  0.00    +0.270 C 
BRANCH  25  26
ATOM     26  C   UNL A   1     -28.629   0.409  30.019  0.00  0.00    +0.150 C 
BRANCH  26  30
ATOM     27  C   UNL A   1     -30.852   1.711  31.115  0.00  0.00    +0.017 C 
ATOM     28  C   UNL A   1     -28.894  -0.178  32.431  0.00  0.00    +0.072 C 
ATOM     29  C   UNL A   1     -29.762   2.185  32.103  0.00  0.00    +0.003 C 
ATOM     30  N   UNL A   1     -29.375  -0.225  31.043  0.00  0.00    -0.266 NA
ATOM     31  C   UNL A   1     -29.315   1.119  33.120  0.00  0.00    +0.017 C 
ATOM     32  C   UNL A   1     -30.831   0.160  31.067  0.00  0.00    +0.072 C 
ENDBRANCH  26  30
ENDBRANCH  25  26
ENDBRANCH   2  25
BRANCH   1  33
ATOM     33  C   UNL A   1     -24.855  -1.012  30.143  0.00  0.00    +0.253 C 
BRANCH  33  34
ATOM     34  C   UNL A   1     -24.973  -2.505  29.788  0.00  0.00    +0.028 C 
ATOM     35  C   UNL A   1     -23.906  -3.173  29.146  0.00  0.00    -0.000 C 
ATOM     36  C   UNL A   1     -23.989  -4.549  28.853  0.00  0.00    -0.000 C 
ATOM     37  C   UNL A   1     -25.137  -5.280  29.205  0.00  0.00    -0.000 C 
ATOM     38  C   UNL A   1     -26.232  -4.611  29.784  0.00  0.00    -0.000 C 
ATOM     39  C   UNL A   1     -26.155  -3.232  30.065  0.00  0.00    -0.000 C 
ENDBRANCH  33  34
BRANCH  33  40
ATOM     40  C   UNL A   1     -25.387  -0.679  31.571  0.00  0.00    +0.126 C 
ATOM     41  C   UNL A   1     -25.189   0.773  32.028  0.00  0.00    +0.024 C 
ATOM     42  C   UNL A   1     -25.336   0.684  33.544  0.00  0.00    +0.020 C 
ATOM     43  C   UNL A   1     -24.829  -0.715  33.905  0.00  0.00    +0.089 C 
ATOM     44  N   UNL A   1     -24.758  -1.481  32.646  0.00  0.00    -0.215 NA
ENDBRANCH  33  40
ENDBRANCH   1  33
TORSDOF 12
