MODEL 312
MODEL 1
REMARK VINA RESULT:    -7.757      0.000      0.000
REMARK INTER + INTRA:          -9.754
REMARK INTER:                  -8.664
REMARK INTRA:                  -1.091
REMARK UNBOUND:                -1.091
REMARK  Name = No_312-gen_results/8p0m/2024-11-27-11-27-31/
REMARK  2 active torsions:
REMARK  status: ('A' for Active; 'I' for Inactive)
REMARK    1  A    between atoms: C_14  and  C_16
REMARK    2  A    between atoms: C_16  and  C_17
REMARK                            x       y       z     vdW  Elec       q    Type
REMARK                         _______ _______ _______ _____ _____    ______ ____
ROOT
ATOM      1  C   UNL A   1     -26.480  -0.258  32.347  0.00  0.00    -0.002 A 
ATOM      2  C   UNL A   1     -25.440  -0.407  31.748  0.00  0.00    +0.003 A 
ATOM      3  C   UNL A   1     -24.215  -0.677  32.333  0.00  0.00    +0.067 A 
ATOM      4  C   UNL A   1     -24.191  -0.819  33.752  0.00  0.00    +0.016 A 
ATOM      5  C   UNL A   1     -25.380  -0.808  34.376  0.00  0.00    +0.001 A 
ATOM      6  C   UNL A   1     -26.492  -0.590  33.735  0.00  0.00    -0.000 A 
ATOM      7  N   UNL A   1     -23.004  -0.716  31.615  0.00  0.00    -0.213 NA
ATOM      8  C   UNL A   1     -22.944  -0.283  30.368  0.00  0.00    +0.067 A 
ATOM      9  C   UNL A   1     -23.737   0.424  29.663  0.00  0.00    +0.003 A 
ATOM     10  C   UNL A   1     -23.626   0.863  28.313  0.00  0.00    -0.002 A 
ATOM     11  C   UNL A   1     -22.351   0.698  27.835  0.00  0.00    -0.000 A 
ATOM     12  C   UNL A   1     -21.602  -0.341  29.652  0.00  0.00    +0.016 A 
ATOM     13  C   UNL A   1     -21.316   0.120  28.440  0.00  0.00    +0.001 A 
ATOM     14  C   UNL A   1     -25.294   0.122  30.229  0.00  0.00    +0.095 C 
ATOM     15  C   UNL A   1     -26.081   1.429  29.979  0.00  0.00    +0.017 C 
ENDROOT
BRANCH  14  16
ATOM     16  C   UNL A   1     -26.001  -0.999  29.349  0.00  0.00    +0.180 C 
ATOM     17  O   UNL A   1     -27.072  -0.473  28.714  0.00  0.00    -0.291 OA
BRANCH  16  18
ATOM     18  C   UNL A   1     -25.657  -2.127  29.246  0.00  0.00    +0.035 A 
ATOM     19  C   UNL A   1     -24.564  -2.699  28.713  0.00  0.00    +0.003 A 
ATOM     20  C   UNL A   1     -24.268  -4.062  28.777  0.00  0.00    +0.000 A 
ATOM     21  C   UNL A   1     -25.185  -4.949  29.239  0.00  0.00    +0.000 A 
ATOM     22  C   UNL A   1     -26.367  -4.489  29.864  0.00  0.00    +0.000 A 
ATOM     23  C   UNL A   1     -26.620  -3.129  29.828  0.00  0.00    +0.003 A 
ENDBRANCH  16  18
ENDBRANCH  14  16
TORSDOF 2
ENDMDL
ENDMDL
