REMARK  Name = No_3130-gen_results/8p0m/2024-11-27-11-27-31/
REMARK  6 active torsions:
REMARK  status: ('A' for Active; 'I' for Inactive)
REMARK    1  A    between atoms: C_3  and  C_4
REMARK    2  A    between atoms: C_4  and  C_5
REMARK    3  A    between atoms: C_6  and  C_7
REMARK    4  A    between atoms: C_7  and  C_8
REMARK    5  A    between atoms: C_8  and  C_14
REMARK    6  A    between atoms: C_16  and  C_17
REMARK                            x       y       z     vdW  Elec       q    Type
REMARK                         _______ _______ _______ _____ _____    ______ ____
ROOT
ATOM      1  C   UNL A   1     -27.442   0.510  26.795  0.00  0.00    +0.045 C 
ATOM      2  C   UNL A   1     -28.325  -0.013  25.657  0.00  0.00    +0.009 C 
ENDROOT
BRANCH   1   5
ATOM      3  C   UNL A   1     -28.016  -0.814  28.878  0.00  0.00    -0.003 A 
ATOM      4  C   UNL A   1     -28.469  -0.785  29.829  0.00  0.00    -0.000 A 
ATOM      5  C   UNL A   1     -28.196   0.348  28.055  0.00  0.00    -0.002 A 
ATOM      6  C   UNL A   1     -29.524   0.036  30.348  0.00  0.00    +0.001 A 
ATOM      7  C   UNL A   1     -29.003   1.383  28.471  0.00  0.00    +0.085 A 
ATOM      8  N   UNL A   1     -29.248   2.497  27.696  0.00  0.00    -0.128 NA
ATOM      9  C   UNL A   1     -29.702   1.261  29.670  0.00  0.00    +0.018 A 
ENDBRANCH   1   5
BRANCH   1  10
ATOM     10  C   UNL A   1     -26.439   0.833  26.614  0.00  0.00    -0.027 C 
ATOM     11  C   UNL A   1     -25.214   0.662  26.702  0.00  0.00    -0.030 C 
BRANCH  11  12
ATOM     12  C   UNL A   1     -23.908   0.805  27.131  0.00  0.00    +0.030 C 
BRANCH  12  13
ATOM     13  C   UNL A   1     -23.392   1.066  28.371  0.00  0.00    +0.026 C 
ATOM     14  C   UNL A   1     -22.036   0.945  28.593  0.00  0.00    +0.005 C 
BRANCH  13  15
ATOM     15  C   UNL A   1     -24.264   1.363  29.491  0.00  0.00    -0.026 C 
ATOM     16  C   UNL A   1     -24.593   2.592  29.894  0.00  0.00    -0.005 C 
BRANCH  16  17
ATOM     17  C   UNL A   1     -25.502   2.750  31.038  0.00  0.00    -0.000 C 
ATOM     18  C   UNL A   1     -26.000   1.560  31.595  0.00  0.00    -0.000 C 
ENDBRANCH  16  17
ENDBRANCH  13  15
ENDBRANCH  12  13
ENDBRANCH  11  12
ENDBRANCH   1  10
TORSDOF 6
