MODEL 3130
MODEL 1
REMARK VINA RESULT:    -6.878      0.000      0.000
REMARK INTER + INTRA:         -10.214
REMARK INTER:                  -9.290
REMARK INTRA:                  -0.924
REMARK UNBOUND:                -0.924
REMARK  Name = No_3130-gen_results/8p0m/2024-11-27-11-27-31/
REMARK  6 active torsions:
REMARK  status: ('A' for Active; 'I' for Inactive)
REMARK    1  A    between atoms: C_3  and  C_4
REMARK    2  A    between atoms: C_4  and  C_5
REMARK    3  A    between atoms: C_6  and  C_7
REMARK    4  A    between atoms: C_7  and  C_8
REMARK    5  A    between atoms: C_8  and  C_14
REMARK    6  A    between atoms: C_16  and  C_17
REMARK                            x       y       z     vdW  Elec       q    Type
REMARK                         _______ _______ _______ _____ _____    ______ ____
ROOT
ATOM      1  C   UNL A   1     -23.342   1.837  26.254  0.00  0.00    +0.045 C 
ATOM      2  C   UNL A   1     -22.563   2.488  25.106  0.00  0.00    +0.009 C 
ENDROOT
BRANCH   1   5
ATOM      3  C   UNL A   1     -24.796   0.138  25.062  0.00  0.00    -0.003 A 
ATOM      4  C   UNL A   1     -25.783  -0.163  24.847  0.00  0.00    -0.000 A 
ATOM      5  C   UNL A   1     -24.649   1.406  25.718  0.00  0.00    -0.002 A 
ATOM      6  C   UNL A   1     -27.002   0.589  24.761  0.00  0.00    +0.001 A 
ATOM      7  C   UNL A   1     -25.745   2.207  25.949  0.00  0.00    +0.085 A 
ATOM      8  N   UNL A   1     -25.650   3.454  26.529  0.00  0.00    -0.128 NA
ATOM      9  C   UNL A   1     -26.993   1.806  25.475  0.00  0.00    +0.018 A 
ENDBRANCH   1   5
BRANCH   1  10
ATOM     10  C   UNL A   1     -22.894   1.690  27.213  0.00  0.00    -0.027 C 
ATOM     11  C   UNL A   1     -22.433   0.944  28.090  0.00  0.00    -0.030 C 
BRANCH  11  12
ATOM     12  C   UNL A   1     -22.335   0.225  29.266  0.00  0.00    +0.030 C 
BRANCH  12  13
ATOM     13  C   UNL A   1     -23.120  -0.770  29.781  0.00  0.00    +0.026 C 
ATOM     14  C   UNL A   1     -23.671  -0.634  31.038  0.00  0.00    +0.005 C 
BRANCH  13  15
ATOM     15  C   UNL A   1     -23.295  -2.022  29.069  0.00  0.00    -0.026 C 
ATOM     16  C   UNL A   1     -24.124  -2.999  29.441  0.00  0.00    -0.005 C 
BRANCH  16  17
ATOM     17  C   UNL A   1     -24.215  -4.212  28.616  0.00  0.00    -0.000 C 
ATOM     18  C   UNL A   1     -24.954  -5.274  29.165  0.00  0.00    -0.000 C 
ENDBRANCH  16  17
ENDBRANCH  13  15
ENDBRANCH  12  13
ENDBRANCH  11  12
ENDBRANCH   1  10
TORSDOF 6
ENDMDL
ENDMDL
