MODEL 3131
MODEL 1
REMARK VINA RESULT:    -7.592      0.000      0.000
REMARK INTER + INTRA:          -8.314
REMARK INTER:                  -8.480
REMARK INTRA:                   0.166
REMARK UNBOUND:                 0.166
REMARK  Name = No_3131-gen_results/8p0m/2024-11-27-11-27-31/
REMARK  2 active torsions:
REMARK  status: ('A' for Active; 'I' for Inactive)
REMARK    1  A    between atoms: N_14  and  C_15
REMARK    2  A    between atoms: C_19  and  C_22
REMARK                            x       y       z     vdW  Elec       q    Type
REMARK                         _______ _______ _______ _____ _____    ______ ____
ROOT
ATOM      1  C   UNL A   1     -27.780   0.051  31.112  0.00  0.00    -0.003 A 
ATOM      2  C   UNL A   1     -27.488   1.060  31.190  0.00  0.00    -0.000 A 
ATOM      3  C   UNL A   1     -26.813  -0.884  30.681  0.00  0.00    -0.004 A 
ATOM      4  C   UNL A   1     -25.526  -0.505  30.354  0.00  0.00    +0.048 A 
ATOM      5  C   UNL A   1     -26.197   1.719  30.912  0.00  0.00    +0.001 A 
ATOM      6  C   UNL A   1     -25.242   0.859  30.494  0.00  0.00    +0.015 A 
ATOM      7  C   UNL A   1     -27.090  -2.355  30.561  0.00  0.00    +0.055 C 
ATOM      8  C   UNL A   1     -26.214  -3.112  29.755  0.00  0.00    -0.004 A 
ATOM      9  C   UNL A   1     -26.322  -4.503  29.787  0.00  0.00    -0.003 A 
ATOM     10  C   UNL A   1     -25.213  -5.262  29.321  0.00  0.00    -0.000 A 
ATOM     11  C   UNL A   1     -24.141  -4.543  28.643  0.00  0.00    +0.001 A 
ATOM     12  C   UNL A   1     -24.096  -3.180  28.632  0.00  0.00    +0.015 A 
ATOM     13  C   UNL A   1     -25.075  -2.450  29.266  0.00  0.00    +0.048 A 
ATOM     14  N   UNL A   1     -24.917  -1.080  29.318  0.00  0.00    -0.285 N 
ENDROOT
BRANCH  14  15
ATOM     15  C   UNL A   1     -23.849  -0.471  28.545  0.00  0.00    +0.102 C 
ATOM     16  C   UNL A   1     -22.584  -0.952  28.638  0.00  0.00    -0.006 C 
ATOM     17  C   UNL A   1     -21.605  -0.133  28.704  0.00  0.00    -0.003 C 
ATOM     18  C   UNL A   1     -21.647   1.171  28.196  0.00  0.00    -0.005 C 
ATOM     19  C   UNL A   1     -24.237  -0.194  27.132  0.00  0.00    +0.060 C 
ATOM     20  C   UNL A   1     -22.829   1.737  28.223  0.00  0.00    -0.026 C 
ATOM     21  C   UNL A   1     -23.786   1.354  27.107  0.00  0.00    +0.031 C 
BRANCH  19  22
ATOM     22  C   UNL A   1     -25.606  -0.401  26.841  0.00  0.00    +0.184 C 
ATOM     23  O   UNL A   1     -25.302  -0.014  25.754  0.00  0.00    -0.220 OA
ENDBRANCH  19  22
ENDBRANCH  14  15
TORSDOF 2
ENDMDL
ENDMDL
