MODEL 3132
MODEL 1
REMARK VINA RESULT:    -4.876      0.000      0.000
REMARK INTER + INTRA:          -5.209
REMARK INTER:                  -5.161
REMARK INTRA:                  -0.048
REMARK UNBOUND:                -0.048
REMARK  Name = No_3132-gen_results/8p0m/2024-11-27-11-27-31/
REMARK  1 active torsions:
REMARK  status: ('A' for Active; 'I' for Inactive)
REMARK    1  A    between atoms: C_1  and  C_8
REMARK                            x       y       z     vdW  Elec       q    Type
REMARK                         _______ _______ _______ _____ _____    ______ ____
ROOT
ATOM      1  C   UNL A   1     -23.376  -2.014  28.919  0.00  0.00    -0.014 C 
ATOM      2  C   UNL A   1     -24.237  -2.820  29.187  0.00  0.00    -0.047 C 
ATOM      3  C   UNL A   1     -25.500  -2.471  29.663  0.00  0.00    +0.022 C 
ATOM      4  C   UNL A   1     -26.601  -3.385  30.024  0.00  0.00    +0.004 C 
ATOM      5  C   UNL A   1     -26.419  -4.753  29.657  0.00  0.00    +0.001 C 
ATOM      6  C   UNL A   1     -25.181  -5.139  29.133  0.00  0.00    +0.004 C 
ATOM      7  C   UNL A   1     -24.172  -4.270  28.897  0.00  0.00    +0.022 C 
ENDROOT
BRANCH   1   8
ATOM      8  C   UNL A   1     -23.370  -0.713  29.655  0.00  0.00    +0.135 C 
ATOM      9  N   UNL A   1     -22.359  -0.358  30.427  0.00  0.00    -0.126 NA
ENDBRANCH   1   8
TORSDOF 1
ENDMDL
ENDMDL
