REMARK  Name = outputs/IAG933/test6/raw/output_3132_IAG933_linker_design_.xyz
REMARK  18 active torsions:
REMARK  status: ('A' for Active; 'I' for Inactive)
REMARK    1  A    between atoms: C_1  and  C_2
REMARK    2  A    between atoms: C_1  and  C_8
REMARK    3  A    between atoms: C_9  and  O_36
REMARK    4  A    between atoms: C_14  and  C_15
REMARK    5  A    between atoms: C_15  and  O_18
REMARK    6  A    between atoms: O_18  and  C_37
REMARK    7  A    between atoms: C_21  and  O_22
REMARK    8  A    between atoms: O_22  and  C_23
REMARK    9  A    between atoms: C_23  and  C_24
REMARK   10  A    between atoms: C_28  and  C_34
REMARK   11  A    between atoms: C_28  and  O_40
REMARK   12  A    between atoms: C_29  and  C_38
REMARK   13  A    between atoms: C_29  and  O_40
REMARK   14  A    between atoms: O_36  and  C_38
REMARK   15  A    between atoms: C_37  and  C_38
REMARK   16  A    between atoms: C_37  and  C_39
REMARK   17  A    between atoms: C_39  and  C_41
REMARK   18  A    between atoms: C_39  and  O_42
REMARK                            x       y       z     vdW  Elec       q    Type
REMARK                         _______ _______ _______ _____ _____    ______ ____
ROOT
ATOM      1  C   UNL A   1     -25.460   3.789  29.605  0.00  0.00    +0.233 C 
ENDROOT
BRANCH   1   2
ATOM      2  C   UNL A   1     -26.092   4.512  30.798  0.00  0.00    +0.237 C 
BRANCH   2   5
ATOM      3  N   UNL A   1     -27.374   6.565  31.319  0.00  0.00    -0.086 NA
ATOM      4  O   UNL A   1     -27.430   5.566  29.199  0.00  0.00    -0.269 OA
ATOM      5  C   UNL A   1     -27.012   5.620  30.325  0.00  0.00    +0.292 C 
ENDBRANCH   2   5
BRANCH   2   7
ATOM      6  C   UNL A   1     -25.659   4.510  33.375  0.00  0.00    +0.175 C 
ATOM      7  O   UNL A   1     -26.147   4.100  32.122  0.00  0.00    -0.341 OA
ENDBRANCH   2   7
ENDBRANCH   1   2
BRANCH   1   8
ATOM      8  C   UNL A   1     -24.903   2.735  30.512  0.00  0.00    +0.187 C 
BRANCH   8   9
ATOM      9  O   UNL A   1     -25.756   1.737  31.337  0.00  0.00    -0.351 OA
BRANCH   9  11
ATOM     10  C   UNL A   1     -25.387  -0.679  31.571  0.00  0.00    +0.104 C 
ATOM     11  C   UNL A   1     -25.189   0.773  32.028  0.00  0.00    +0.133 C 
ATOM     12  C   UNL A   1     -25.336   0.684  33.544  0.00  0.00    +0.050 C 
ATOM     13  C   UNL A   1     -24.829  -0.715  33.905  0.00  0.00    +0.091 C 
ATOM     14  N   UNL A   1     -24.758  -1.481  32.646  0.00  0.00    -0.217 NA
BRANCH  10  15
ATOM     15  C   UNL A   1     -24.855  -1.012  30.143  0.00  0.00    +0.046 C 
BRANCH  15  16
ATOM     16  C   UNL A   1     -24.973  -2.505  29.788  0.00  0.00    -0.021 C 
ATOM     17  C   UNL A   1     -23.906  -3.173  29.146  0.00  0.00    -0.004 C 
ATOM     18  C   UNL A   1     -23.989  -4.549  28.853  0.00  0.00    -0.000 C 
ATOM     19  C   UNL A   1     -25.137  -5.280  29.205  0.00  0.00    -0.000 C 
ATOM     20  C   UNL A   1     -26.232  -4.611  29.784  0.00  0.00    -0.000 C 
ATOM     21  C   UNL A   1     -26.155  -3.232  30.065  0.00  0.00    -0.004 C 
ENDBRANCH  15  16
ENDBRANCH  10  15
ENDBRANCH   9  11
ENDBRANCH   8   9
BRANCH   8  22
ATOM     22  C   UNL A   1     -23.609   2.163  30.245  0.00  0.00    +0.176 C 
BRANCH  22  23
ATOM     23  O   UNL A   1     -23.746   1.498  28.919  0.00  0.00    -0.340 OA
BRANCH  23  24
ATOM     24  C   UNL A   1     -22.627   0.573  28.548  0.00  0.00    +0.257 C 
BRANCH  24  27
ATOM     25  O   UNL A   1     -22.183   2.179  26.867  0.00  0.00    -0.243 OA
ATOM     26  O   UNL A   1     -20.439   1.222  27.711  0.00  0.00    -0.243 OA
ATOM     27  C   UNL A   1     -21.660   1.363  27.645  0.00  0.00    +0.394 C 
ENDBRANCH  24  27
ENDBRANCH  23  24
ENDBRANCH  22  23
ENDBRANCH   8  22
ENDBRANCH   1   8
BRANCH   1  28
ATOM     28  O   UNL A   1     -25.143   3.966  28.243  0.00  0.00    -0.459 OA
BRANCH  28  29
ATOM     29  C   UNL A   1     -25.642   4.093  27.123  0.00  0.00    +0.222 C 
ATOM     30  N   UNL A   1     -25.614   5.252  26.449  0.00  0.00    -0.236 NA
ATOM     31  C   UNL A   1     -25.026   6.479  26.963  0.00  0.00    +0.155 C 
BRANCH  29  33
ATOM     32  C   UNL A   1     -25.688   1.614  26.461  0.00  0.00    +0.041 C 
ATOM     33  C   UNL A   1     -26.250   2.920  26.395  0.00  0.00    +0.074 C 
ATOM     34  C   UNL A   1     -27.438   3.091  25.645  0.00  0.00    +0.107 C 
ATOM     35  N   UNL A   1     -28.075   2.089  25.003  0.00  0.00    -0.208 NA
ATOM     36  C   UNL A   1     -27.543   0.849  25.079  0.00  0.00    +0.253 C 
ATOM     37  C   UNL A   1     -26.354   0.576  25.777  0.00  0.00    +0.193 C 
ATOM     38  F   UNL A   1     -25.860  -0.681  25.795  0.00  0.00    -0.199 F 
BRANCH  36  39
ATOM     39  O   UNL A   1     -28.193  -0.208  24.477  0.00  0.00    -0.456 OA
BRANCH  39  40
ATOM     40  C   UNL A   1     -29.460   0.005  23.866  0.00  0.00    +0.243 C 
BRANCH  40  41
ATOM     41  C   UNL A   1     -30.065  -1.377  23.573  0.00  0.00    +0.229 C 
ATOM     42  O   UNL A   1     -30.729  -1.878  24.721  0.00  0.00    -0.216 OA
ENDBRANCH  40  41
ENDBRANCH  39  40
ENDBRANCH  36  39
ENDBRANCH  29  33
ENDBRANCH  28  29
ENDBRANCH   1  28
TORSDOF 18
