REMARK  Name = outputs/IAG933/test6/raw/output_3133_IAG933_linker_design_.xyz
REMARK  13 active torsions:
REMARK  status: ('A' for Active; 'I' for Inactive)
REMARK    1  A    between atoms: C_1  and  C_2
REMARK    2  A    between atoms: C_1  and  C_8
REMARK    3  A    between atoms: C_1  and  C_29
REMARK    4  A    between atoms: C_14  and  C_15
REMARK    5  A    between atoms: C_15  and  O_18
REMARK    6  A    between atoms: O_18  and  C_46
REMARK    7  A    between atoms: C_21  and  O_22
REMARK    8  A    between atoms: O_22  and  C_23
REMARK    9  A    between atoms: C_23  and  C_24
REMARK   10  A    between atoms: O_31  and  C_34
REMARK   11  A    between atoms: C_34  and  C_35
REMARK   12  A    between atoms: C_35  and  C_46
REMARK   13  A    between atoms: N_42  and  C_46
REMARK                            x       y       z     vdW  Elec       q    Type
REMARK                         _______ _______ _______ _____ _____    ______ ____
ROOT
ATOM      1  C   UNL A   1     -24.893   2.876  29.119  0.00  0.00    +0.380 C 
ENDROOT
BRANCH   1  10
ATOM      2  C   UNL A   1     -28.587   0.148  29.056  0.00  0.00    +0.376 C 
ATOM      3  O   UNL A   1     -29.011  -0.958  28.822  0.00  0.00    -0.238 OA
ATOM      4  C   UNL A   1     -27.306   1.827  29.665  0.00  0.00    +0.358 C 
ATOM      5  C   UNL A   1     -29.322   1.396  28.709  0.00  0.00    +0.089 C 
ATOM      6  C   UNL A   1     -31.061   2.924  28.029  0.00  0.00    +0.012 C 
ATOM      7 CL   UNL A   1     -30.679   5.607  28.009  0.00  0.00    -0.082 Cl
ATOM      8  C   UNL A   1     -30.576   1.618  28.181  0.00  0.00    +0.008 C 
ATOM      9  N   UNL A   1     -27.434   0.482  29.668  0.00  0.00    +0.034 NA
ATOM     10  N   UNL A   1     -26.040   2.392  29.939  0.00  0.00    +0.008 NA
ATOM     11  C   UNL A   1     -30.251   3.978  28.410  0.00  0.00    +0.058 C 
ATOM     12  C   UNL A   1     -29.082   3.733  29.121  0.00  0.00    +0.019 C 
ATOM     13  C   UNL A   1     -28.485   2.423  29.163  0.00  0.00    +0.092 C 
ENDBRANCH   1  10
BRANCH   1  14
ATOM     14  O   UNL A   1     -25.143   3.966  28.243  0.00  0.00    -0.422 OA
BRANCH  14  15
ATOM     15  C   UNL A   1     -25.642   4.093  27.123  0.00  0.00    +0.225 C 
ATOM     16  N   UNL A   1     -25.614   5.252  26.449  0.00  0.00    -0.236 NA
ATOM     17  C   UNL A   1     -25.026   6.479  26.963  0.00  0.00    +0.155 C 
BRANCH  15  19
ATOM     18  C   UNL A   1     -25.688   1.614  26.461  0.00  0.00    +0.041 C 
ATOM     19  C   UNL A   1     -26.250   2.920  26.395  0.00  0.00    +0.074 C 
ATOM     20  C   UNL A   1     -27.438   3.091  25.645  0.00  0.00    +0.107 C 
ATOM     21  N   UNL A   1     -28.075   2.089  25.003  0.00  0.00    -0.208 NA
ATOM     22  C   UNL A   1     -27.543   0.849  25.079  0.00  0.00    +0.253 C 
ATOM     23  C   UNL A   1     -26.354   0.576  25.777  0.00  0.00    +0.193 C 
ATOM     24  F   UNL A   1     -25.860  -0.681  25.795  0.00  0.00    -0.199 F 
BRANCH  22  25
ATOM     25  O   UNL A   1     -28.193  -0.208  24.477  0.00  0.00    -0.456 OA
BRANCH  25  26
ATOM     26  C   UNL A   1     -29.460   0.005  23.866  0.00  0.00    +0.243 C 
BRANCH  26  27
ATOM     27  C   UNL A   1     -30.065  -1.377  23.573  0.00  0.00    +0.229 C 
ATOM     28  O   UNL A   1     -30.729  -1.878  24.721  0.00  0.00    -0.216 OA
ENDBRANCH  26  27
ENDBRANCH  25  26
ENDBRANCH  22  25
ENDBRANCH  15  19
ENDBRANCH  14  15
ENDBRANCH   1  14
BRANCH   1  29
ATOM     29  C   UNL A   1     -23.822   2.020  28.670  0.00  0.00    +0.158 C 
BRANCH  29  31
ATOM     30  C   UNL A   1     -24.094  -0.092  29.574  0.00  0.00    +0.174 C 
ATOM     31  C   UNL A   1     -23.147   0.861  28.834  0.00  0.00    +0.221 C 
ATOM     32  O   UNL A   1     -22.827   0.061  29.882  0.00  0.00    -0.329 OA
BRANCH  31  33
ATOM     33  O   UNL A   1     -21.934   1.017  27.695  0.00  0.00    -0.329 OA
ATOM     34  C   UNL A   1     -21.177   1.941  27.226  0.00  0.00    +0.177 C 
ENDBRANCH  31  33
BRANCH  30  35
ATOM     35  C   UNL A   1     -24.855  -1.012  30.143  0.00  0.00    +0.070 C 
BRANCH  35  36
ATOM     36  C   UNL A   1     -24.973  -2.505  29.788  0.00  0.00    -0.019 C 
ATOM     37  C   UNL A   1     -23.906  -3.173  29.146  0.00  0.00    -0.004 C 
ATOM     38  C   UNL A   1     -23.989  -4.549  28.853  0.00  0.00    -0.000 C 
ATOM     39  C   UNL A   1     -25.137  -5.280  29.205  0.00  0.00    -0.000 C 
ATOM     40  C   UNL A   1     -26.232  -4.611  29.784  0.00  0.00    -0.000 C 
ATOM     41  C   UNL A   1     -26.155  -3.232  30.065  0.00  0.00    -0.004 C 
ENDBRANCH  35  36
BRANCH  35  42
ATOM     42  C   UNL A   1     -25.387  -0.679  31.571  0.00  0.00    +0.079 C 
ATOM     43  C   UNL A   1     -25.189   0.773  32.028  0.00  0.00    +0.019 C 
ATOM     44  C   UNL A   1     -25.336   0.684  33.544  0.00  0.00    +0.020 C 
ATOM     45  C   UNL A   1     -24.829  -0.715  33.905  0.00  0.00    +0.089 C 
ATOM     46  N   UNL A   1     -24.758  -1.481  32.646  0.00  0.00    -0.219 NA
ENDBRANCH  35  42
ENDBRANCH  30  35
ENDBRANCH  29  31
ENDBRANCH   1  29
TORSDOF 13
