MODEL 3133
MODEL 1
REMARK VINA RESULT:    -9.039      0.000      0.000
REMARK INTER + INTRA:         -14.742
REMARK INTER:                 -13.266
REMARK INTRA:                  -1.476
REMARK UNBOUND:                -1.476
REMARK  Name = No_3133-gen_results/8p0m/2024-11-27-11-27-31/
REMARK  8 active torsions:
REMARK  status: ('A' for Active; 'I' for Inactive)
REMARK    1  A    between atoms: C_2  and  C_7
REMARK    2  A    between atoms: C_4  and  C_21
REMARK    3  A    between atoms: C_5  and  C_15
REMARK    4  A    between atoms: C_7  and  C_8
REMARK    5  A    between atoms: C_9  and  C_14
REMARK    6  A    between atoms: C_15  and  O_16
REMARK    7  A    between atoms: O_16  and  C_25
REMARK    8  A    between atoms: C_25  and  C_26
REMARK                            x       y       z     vdW  Elec       q    Type
REMARK                         _______ _______ _______ _____ _____    ______ ____
ROOT
ATOM      1  C   UNL A   1     -25.849  -0.021  26.803  0.00  0.00    +0.003 A 
ATOM      2  C   UNL A   1     -25.753   0.090  25.603  0.00  0.00    -0.018 A 
ATOM      3  C   UNL A   1     -24.777   0.800  24.983  0.00  0.00    -0.000 A 
ATOM      4  C   UNL A   1     -23.814   1.450  25.779  0.00  0.00    +0.071 A 
ATOM      5  C   UNL A   1     -24.845   0.537  27.674  0.00  0.00    +0.075 A 
ATOM      6  C   UNL A   1     -23.860   1.284  27.102  0.00  0.00    +0.010 A 
ENDROOT
BRANCH   4   7
ATOM      7  C   UNL A   1     -22.712   2.250  25.111  0.00  0.00    +0.419 C 
ATOM      8  F   UNL A   1     -22.473   1.914  24.170  0.00  0.00    -0.166 F 
ATOM      9  F   UNL A   1     -21.630   2.221  25.968  0.00  0.00    -0.166 F 
ATOM     10  F   UNL A   1     -23.167   3.535  25.145  0.00  0.00    -0.166 F 
ENDBRANCH   4   7
BRANCH   5  11
ATOM     11  C   UNL A   1     -24.934   0.329  29.143  0.00  0.00    +0.342 C 
ATOM     12  O   UNL A   1     -24.065   0.907  29.935  0.00  0.00    -0.245 OA
BRANCH  11  13
ATOM     13  O   UNL A   1     -25.788  -0.395  29.555  0.00  0.00    -0.440 OA
BRANCH  13  14
ATOM     14  C   UNL A   1     -25.702  -1.443  30.327  0.00  0.00    +0.235 C 
BRANCH  14  15
ATOM     15  C   UNL A   1     -25.489  -2.581  29.911  0.00  0.00    +0.021 A 
ATOM     16  C   UNL A   1     -26.373  -3.569  30.068  0.00  0.00    -0.001 A 
ATOM     17  C   UNL A   1     -26.173  -4.938  29.506  0.00  0.00    -0.000 A 
ATOM     18  C   UNL A   1     -24.897  -5.151  28.932  0.00  0.00    -0.000 A 
ATOM     19  C   UNL A   1     -23.972  -4.172  28.771  0.00  0.00    -0.000 A 
ATOM     20  C   UNL A   1     -24.248  -2.861  29.211  0.00  0.00    -0.001 A 
ENDBRANCH  14  15
ENDBRANCH  13  14
ENDBRANCH  11  13
ENDBRANCH   5  11
BRANCH   2  21
ATOM     21  C   UNL A   1     -26.726  -0.573  24.642  0.00  0.00    +0.053 C 
BRANCH  21  22
ATOM     22  C   UNL A   1     -27.838   0.233  24.178  0.00  0.00    -0.014 A 
ATOM     23  C   UNL A   1     -28.916   0.033  23.793  0.00  0.00    +0.068 A 
ATOM     24  C   UNL A   1     -29.937   1.011  23.429  0.00  0.00    +0.004 A 
ATOM     25  C   UNL A   1     -29.545   2.351  23.688  0.00  0.00    -0.000 A 
ATOM     26  C   UNL A   1     -27.612   1.755  24.295  0.00  0.00    -0.004 A 
ATOM     27  C   UNL A   1     -28.433   2.690  24.052  0.00  0.00    -0.000 A 
BRANCH  23  28
ATOM     28  C   UNL A   1     -29.415  -1.392  23.572  0.00  0.00    +0.418 C 
ATOM     29  F   UNL A   1     -28.594  -2.188  23.230  0.00  0.00    -0.166 F 
ATOM     30  F   UNL A   1     -30.111  -1.879  24.678  0.00  0.00    -0.166 F 
ATOM     31  F   UNL A   1     -30.435  -1.333  22.648  0.00  0.00    -0.166 F 
ENDBRANCH  23  28
ENDBRANCH  21  22
ENDBRANCH   2  21
TORSDOF 8
ENDMDL
ENDMDL
