REMARK  Name = No_3134-gen_results/8p0m/2024-11-27-11-27-31/
REMARK  3 active torsions:
REMARK  status: ('A' for Active; 'I' for Inactive)
REMARK    1  A    between atoms: C_6  and  O_7
REMARK    2  A    between atoms: O_7  and  C_16
REMARK    3  A    between atoms: C_17  and  C_18
REMARK                            x       y       z     vdW  Elec       q    Type
REMARK                         _______ _______ _______ _____ _____    ______ ____
ROOT
ATOM      1  C   UNL A   1     -28.016  -0.814  28.878  0.00  0.00    +0.037 A 
ATOM      2  C   UNL A   1     -27.064  -0.119  28.608  0.00  0.00    +0.003 A 
ATOM      3  C   UNL A   1     -25.765  -0.390  29.036  0.00  0.00    +0.000 A 
ATOM      4  C   UNL A   1     -25.530  -1.530  29.901  0.00  0.00    +0.003 A 
ATOM      5  C   UNL A   1     -26.689  -2.289  30.181  0.00  0.00    +0.037 A 
ATOM      6  C   UNL A   1     -27.873  -1.951  29.737  0.00  0.00    +0.145 A 
ATOM      7  C   UNL A   1     -24.539   0.421  28.742  0.00  0.00    +0.003 A 
ATOM      8  C   UNL A   1     -23.346   0.114  29.169  0.00  0.00    +0.019 A 
ATOM      9  C   UNL A   1     -23.112  -1.015  29.917  0.00  0.00    +0.002 A 
ATOM     10  C   UNL A   1     -24.250  -1.880  30.324  0.00  0.00    +0.000 A 
ATOM     11  C   UNL A   1     -22.160   0.890  28.740  0.00  0.00    +0.099 A 
ATOM     12  N   UNL A   1     -22.335   1.859  27.744  0.00  0.00    -0.242 NA
ATOM     13  C   UNL A   1     -23.540   2.271  27.307  0.00  0.00    +0.099 A 
ATOM     14  C   UNL A   1     -24.650   1.514  27.762  0.00  0.00    +0.021 A 
ENDROOT
BRANCH   6  15
ATOM     15  O   UNL A   1     -28.930  -2.730  30.115  0.00  0.00    -0.450 OA
BRANCH  15  16
ATOM     16  C   UNL A   1     -30.048  -2.208  30.644  0.00  0.00    +0.179 C 
ATOM     17  C   UNL A   1     -31.092  -2.841  30.266  0.00  0.00    +0.040 C 
BRANCH  17  18
ATOM     18  C   UNL A   1     -31.046  -4.133  29.847  0.00  0.00    -0.001 C 
ATOM     19  C   UNL A   1     -29.879  -4.785  30.015  0.00  0.00    -0.026 C 
ATOM     20  C   UNL A   1     -29.704  -6.108  29.890  0.00  0.00    +0.031 C 
ENDBRANCH  17  18
ENDBRANCH  15  16
ENDBRANCH   6  15
TORSDOF 3
