MODEL 3134
MODEL 1
REMARK VINA RESULT:    -6.401      0.000      0.000
REMARK INTER + INTRA:          -8.001
REMARK INTER:                  -7.523
REMARK INTRA:                  -0.478
REMARK UNBOUND:                -0.478
REMARK  Name = No_3134-gen_results/8p0m/2024-11-27-11-27-31/
REMARK  3 active torsions:
REMARK  status: ('A' for Active; 'I' for Inactive)
REMARK    1  A    between atoms: C_6  and  O_7
REMARK    2  A    between atoms: O_7  and  C_16
REMARK    3  A    between atoms: C_17  and  C_18
REMARK                            x       y       z     vdW  Elec       q    Type
REMARK                         _______ _______ _______ _____ _____    ______ ____
ROOT
ATOM      1  C   UNL A   1     -29.100 -12.059  10.746  0.00  0.00    +0.037 A 
ATOM      2  C   UNL A   1     -28.810 -11.035  10.171  0.00  0.00    +0.003 A 
ATOM      3  C   UNL A   1     -29.655  -9.929  10.093  0.00  0.00    +0.000 A 
ATOM      4  C   UNL A   1     -30.980 -10.010  10.676  0.00  0.00    +0.003 A 
ATOM      5  C   UNL A   1     -31.251 -11.238  11.322  0.00  0.00    +0.037 A 
ATOM      6  C   UNL A   1     -30.393 -12.226  11.338  0.00  0.00    +0.145 A 
ATOM      7  C   UNL A   1     -29.367  -8.630   9.402  0.00  0.00    +0.003 A 
ATOM      8  C   UNL A   1     -30.199  -7.627   9.366  0.00  0.00    +0.019 A 
ATOM      9  C   UNL A   1     -31.420  -7.675   9.993  0.00  0.00    +0.002 A 
ATOM     10  C   UNL A   1     -31.853  -8.925  10.672  0.00  0.00    +0.000 A 
ATOM     11  C   UNL A   1     -29.802  -6.330   8.771  0.00  0.00    +0.099 A 
ATOM     12  N   UNL A   1     -28.464  -6.163   8.394  0.00  0.00    -0.242 NA
ATOM     13  C   UNL A   1     -27.571  -7.169   8.343  0.00  0.00    +0.099 A 
ATOM     14  C   UNL A   1     -28.001  -8.400   8.902  0.00  0.00    +0.021 A 
ENDROOT
BRANCH   6  15
ATOM     15  O   UNL A   1     -30.784 -13.386  11.947  0.00  0.00    -0.450 OA
BRANCH  15  16
ATOM     16  C   UNL A   1     -29.902 -14.229  12.507  0.00  0.00    +0.179 C 
ATOM     17  C   UNL A   1     -29.958 -15.392  11.981  0.00  0.00    +0.040 C 
BRANCH  17  18
ATOM     18  C   UNL A   1     -30.431 -15.599  10.724  0.00  0.00    -0.001 C 
ATOM     19  C   UNL A   1     -29.515 -15.724   9.744  0.00  0.00    -0.026 C 
ATOM     20  C   UNL A   1     -29.763 -16.161   8.501  0.00  0.00    +0.031 C 
ENDBRANCH  17  18
ENDBRANCH  15  16
ENDBRANCH   6  15
TORSDOF 3
ENDMDL
ENDMDL
