REMARK  Name = outputs/IAG933/test6/raw/output_3135_IAG933_linker_design_.xyz
REMARK  11 active torsions:
REMARK  status: ('A' for Active; 'I' for Inactive)
REMARK    1  A    between atoms: C_1  and  C_2
REMARK    2  A    between atoms: C_1  and  C_8
REMARK    3  A    between atoms: C_1  and  C_32
REMARK    4  A    between atoms: C_13  and  C_39
REMARK    5  A    between atoms: C_14  and  C_15
REMARK    6  A    between atoms: C_21  and  O_22
REMARK    7  A    between atoms: O_22  and  C_23
REMARK    8  A    between atoms: C_23  and  C_24
REMARK    9  A    between atoms: O_28  and  C_38
REMARK   10  A    between atoms: N_30  and  C_32
REMARK   11  A    between atoms: C_32  and  C_36
REMARK                            x       y       z     vdW  Elec       q    Type
REMARK                         _______ _______ _______ _____ _____    ______ ____
ROOT
ATOM      1  O   UNL A   1     -22.160   1.952  26.667  0.00  0.00    -0.420 OA
ATOM      2  F   UNL A   1     -20.787   1.757  28.292  0.00  0.00    -0.161 F 
ATOM      3  C   UNL A   1     -23.365   1.873  26.219  0.00  0.00    +0.353 C 
ATOM      4  C   UNL A   1     -21.985   1.476  27.946  0.00  0.00    +0.313 C 
ATOM      5  C   UNL A   1     -24.258   0.714  28.294  0.00  0.00    +0.033 C 
ATOM      6  F   UNL A   1     -22.489   0.429  29.965  0.00  0.00    -0.199 F 
ATOM      7  C   UNL A   1     -24.467   1.370  27.024  0.00  0.00    +0.054 C 
ATOM      8  F   UNL A   1     -23.530   2.296  24.947  0.00  0.00    -0.183 F 
ATOM      9  C   UNL A   1     -22.886   0.855  28.758  0.00  0.00    +0.201 C 
ENDROOT
BRANCH   7  10
ATOM     10  C   UNL A   1     -25.688   1.614  26.461  0.00  0.00    +0.040 C 
ATOM     11  C   UNL A   1     -26.250   2.920  26.395  0.00  0.00    +0.076 C 
ATOM     12  C   UNL A   1     -27.438   3.091  25.645  0.00  0.00    +0.107 C 
ATOM     13  N   UNL A   1     -28.075   2.089  25.003  0.00  0.00    -0.208 NA
ATOM     14  C   UNL A   1     -27.543   0.849  25.079  0.00  0.00    +0.253 C 
ATOM     15  C   UNL A   1     -26.354   0.576  25.777  0.00  0.00    +0.193 C 
ATOM     16  F   UNL A   1     -25.860  -0.681  25.795  0.00  0.00    -0.199 F 
BRANCH  11  17
ATOM     17  C   UNL A   1     -25.642   4.093  27.123  0.00  0.00    +0.266 C 
ATOM     18  N   UNL A   1     -25.614   5.252  26.449  0.00  0.00    -0.200 NA
ATOM     19  C   UNL A   1     -25.026   6.479  26.963  0.00  0.00    +0.139 C 
ATOM     20  O   UNL A   1     -25.143   3.966  28.243  0.00  0.00    -0.268 OA
ENDBRANCH  11  17
BRANCH  14  21
ATOM     21  O   UNL A   1     -28.193  -0.208  24.477  0.00  0.00    -0.456 OA
BRANCH  21  22
ATOM     22  C   UNL A   1     -29.460   0.005  23.866  0.00  0.00    +0.243 C 
BRANCH  22  23
ATOM     23  C   UNL A   1     -30.065  -1.377  23.573  0.00  0.00    +0.229 C 
ATOM     24  O   UNL A   1     -30.729  -1.878  24.721  0.00  0.00    -0.216 OA
ENDBRANCH  22  23
ENDBRANCH  21  22
ENDBRANCH  14  21
ENDBRANCH   7  10
BRANCH   5  25
ATOM     25  C   UNL A   1     -25.281  -0.024  29.105  0.00  0.00    +0.128 C 
BRANCH  25  26
ATOM     26  N   UNL A   1     -26.591   0.415  28.624  0.00  0.00    -0.166 NA
ATOM     27  O   UNL A   1     -28.369  -0.696  29.190  0.00  0.00    -0.225 OA
ATOM     28  C   UNL A   1     -27.759   0.394  29.276  0.00  0.00    +0.421 C 
BRANCH  28  29
ATOM     29  O   UNL A   1     -28.500   1.468  29.699  0.00  0.00    -0.429 OA
ATOM     30  C   UNL A   1     -28.159   2.536  30.586  0.00  0.00    +0.257 C 
ENDBRANCH  28  29
ENDBRANCH  25  26
BRANCH  25  31
ATOM     31  C   UNL A   1     -24.855  -1.012  30.143  0.00  0.00    +0.063 C 
BRANCH  31  32
ATOM     32  C   UNL A   1     -24.973  -2.505  29.788  0.00  0.00    -0.019 C 
ATOM     33  C   UNL A   1     -23.906  -3.173  29.146  0.00  0.00    -0.004 C 
ATOM     34  C   UNL A   1     -23.989  -4.549  28.853  0.00  0.00    -0.000 C 
ATOM     35  C   UNL A   1     -25.137  -5.280  29.205  0.00  0.00    -0.000 C 
ATOM     36  C   UNL A   1     -26.232  -4.611  29.784  0.00  0.00    -0.000 C 
ATOM     37  C   UNL A   1     -26.155  -3.232  30.065  0.00  0.00    -0.004 C 
ENDBRANCH  31  32
BRANCH  31  38
ATOM     38  C   UNL A   1     -25.387  -0.679  31.571  0.00  0.00    +0.079 C 
ATOM     39  C   UNL A   1     -25.189   0.773  32.028  0.00  0.00    +0.019 C 
ATOM     40  C   UNL A   1     -25.336   0.684  33.544  0.00  0.00    +0.020 C 
ATOM     41  C   UNL A   1     -24.829  -0.715  33.905  0.00  0.00    +0.089 C 
ATOM     42  N   UNL A   1     -24.758  -1.481  32.646  0.00  0.00    -0.219 NA
ENDBRANCH  31  38
ENDBRANCH  25  31
ENDBRANCH   5  25
TORSDOF 11
