MODEL 3135
MODEL 1
REMARK VINA RESULT:    -8.562      0.000      0.000
REMARK INTER + INTRA:         -13.627
REMARK INTER:                 -12.066
REMARK INTRA:                  -1.561
REMARK UNBOUND:                -1.561
REMARK  Name = No_3135-gen_results/8p0m/2024-11-27-11-27-31/
REMARK  7 active torsions:
REMARK  status: ('A' for Active; 'I' for Inactive)
REMARK    1  A    between atoms: C_3  and  C_9
REMARK    2  A    between atoms: C_9  and  C_10
REMARK    3  A    between atoms: C_9  and  C_16
REMARK    4  A    between atoms: C_16  and  C_17
REMARK    5  A    between atoms: C_19  and  N_24
REMARK    6  A    between atoms: N_24  and  C_25
REMARK    7  A    between atoms: C_25  and  C_26
REMARK                            x       y       z     vdW  Elec       q    Type
REMARK                         _______ _______ _______ _____ _____    ______ ____
ROOT
ATOM      1  C   UNL A   1     -23.263  -0.667  29.158  0.00  0.00    +0.216 C 
ATOM      2  O   UNL A   1     -22.082  -0.854  29.575  0.00  0.00    -0.287 OA
ENDROOT
BRANCH   1   3
ATOM      3  C   UNL A   1     -23.519   0.128  28.083  0.00  0.00    +0.200 A 
ATOM      4  N   UNL A   1     -24.208  -0.114  27.125  0.00  0.00    -0.208 NA
ATOM      5  C   UNL A   1     -24.612   0.752  26.141  0.00  0.00    +0.151 A 
ATOM      6  N   UNL A   1     -22.978   1.380  28.091  0.00  0.00    -0.223 NA
ATOM      7  C   UNL A   1     -23.257   2.362  27.174  0.00  0.00    +0.104 A 
ATOM      8  C   UNL A   1     -24.089   2.033  26.092  0.00  0.00    +0.057 A 
BRANCH   5   9
ATOM      9  N   UNL A   1     -25.421   0.337  25.086  0.00  0.00    -0.215 NA
BRANCH   9  10
ATOM     10  C   UNL A   1     -26.317  -0.034  24.780  0.00  0.00    +0.140 C 
BRANCH  10  11
ATOM     11  C   UNL A   1     -27.413   0.220  24.482  0.00  0.00    -0.001 A 
ATOM     12  C   UNL A   1     -27.774   1.621  24.128  0.00  0.00    -0.003 A 
ATOM     13  C   UNL A   1     -28.997   2.023  23.570  0.00  0.00    -0.000 A 
ATOM     14  C   UNL A   1     -29.978   1.040  23.333  0.00  0.00    -0.000 A 
ATOM     15  C   UNL A   1     -29.744  -0.292  23.573  0.00  0.00    -0.000 A 
ATOM     16  C   UNL A   1     -28.513  -0.671  24.080  0.00  0.00    -0.003 A 
ENDBRANCH  10  11
ENDBRANCH   9  10
ENDBRANCH   5   9
ENDBRANCH   1   3
BRANCH   1  17
ATOM     17  C   UNL A   1     -24.302  -1.336  29.809  0.00  0.00    +0.112 C 
BRANCH  17  20
ATOM     18  F   UNL A   1     -23.591  -1.499  32.446  0.00  0.00    -0.204 F 
ATOM     19  C   UNL A   1     -24.465  -0.830  32.131  0.00  0.00    +0.138 A 
ATOM     20  C   UNL A   1     -24.872  -0.677  30.952  0.00  0.00    +0.017 A 
ATOM     21  C   UNL A   1     -25.145  -0.088  33.290  0.00  0.00    +0.041 A 
ATOM     22  C   UNL A   1     -26.227   0.821  32.970  0.00  0.00    +0.060 A 
ATOM     23  C   UNL A   1     -25.984   0.288  30.632  0.00  0.00    -0.000 A 
ATOM     24  C   UNL A   1     -26.611   0.993  31.659  0.00  0.00    +0.011 A 
ATOM     25 CL   UNL A   1     -27.035   1.666  34.177  0.00  0.00    -0.082 Cl
ENDBRANCH  17  20
BRANCH  17  26
ATOM     26  C   UNL A   1     -24.676  -2.578  29.515  0.00  0.00    -0.011 A 
ATOM     27  C   UNL A   1     -25.982  -3.093  29.943  0.00  0.00    -0.004 A 
ATOM     28  C   UNL A   1     -26.279  -4.491  29.714  0.00  0.00    -0.000 A 
ATOM     29  C   UNL A   1     -25.357  -5.247  29.011  0.00  0.00    -0.000 A 
ATOM     30  C   UNL A   1     -24.177  -4.776  28.623  0.00  0.00    -0.000 A 
ATOM     31  C   UNL A   1     -23.804  -3.476  28.872  0.00  0.00    -0.004 A 
ENDBRANCH  17  26
ENDBRANCH   1  17
TORSDOF 7
ENDMDL
ENDMDL
