MODEL 3136
MODEL 1
REMARK VINA RESULT:    -6.563      0.000      0.000
REMARK INTER + INTRA:          -9.441
REMARK INTER:                  -8.097
REMARK INTRA:                  -1.344
REMARK UNBOUND:                -1.344
REMARK  Name = No_3136-gen_results/8p0m/2024-11-27-11-27-31/
REMARK  4 active torsions:
REMARK  status: ('A' for Active; 'I' for Inactive)
REMARK    1  A    between atoms: C_3  and  C_7
REMARK    2  A    between atoms: C_8  and  C_11
REMARK    3  A    between atoms: C_16  and  C_18
REMARK    4  A    between atoms: C_18  and  C_19
REMARK                            x       y       z     vdW  Elec       q    Type
REMARK                         _______ _______ _______ _____ _____    ______ ____
ROOT
ATOM      1  C   UNL A   1     -24.527  -2.699  29.009  0.00  0.00    +0.001 A 
ATOM      2  C   UNL A   1     -25.706  -2.551  29.755  0.00  0.00    +0.018 A 
ATOM      3  C   UNL A   1     -24.075  -3.938  28.621  0.00  0.00    +0.000 A 
ATOM      4  C   UNL A   1     -24.894  -5.038  28.834  0.00  0.00    +0.000 A 
ATOM      5  C   UNL A   1     -26.073  -4.918  29.609  0.00  0.00    +0.000 A 
ATOM      6  C   UNL A   1     -26.453  -3.714  30.089  0.00  0.00    +0.002 A 
ENDROOT
BRANCH   1   9
ATOM      7  C   UNL A   1     -24.296  -0.467  27.765  0.00  0.00    +0.000 A 
ATOM      8  C   UNL A   1     -23.734   0.413  27.621  0.00  0.00    +0.000 A 
ATOM      9  C   UNL A   1     -23.813  -1.412  28.697  0.00  0.00    +0.000 A 
ATOM     10  C   UNL A   1     -22.639  -1.215  29.396  0.00  0.00    +0.000 A 
ATOM     11  C   UNL A   1     -21.967  -0.029  29.151  0.00  0.00    +0.000 A 
ATOM     12  C   UNL A   1     -22.509   0.876  28.257  0.00  0.00    +0.000 A 
ENDBRANCH   1   9
BRANCH   2  13
ATOM     13  C   UNL A   1     -26.234  -1.229  30.144  0.00  0.00    +0.081 A 
ATOM     14  C   UNL A   1     -27.224  -0.680  29.656  0.00  0.00    +0.020 A 
ATOM     15  C   UNL A   1     -27.807   0.558  30.099  0.00  0.00    +0.016 A 
ATOM     16  C   UNL A   1     -26.908   1.158  31.085  0.00  0.00    +0.061 A 
ATOM     17  N   UNL A   1     -25.749  -0.339  31.127  0.00  0.00    -0.250 NA
BRANCH  16  18
ATOM     18  C   UNL A   1     -26.094   0.855  31.354  0.00  0.00    +0.073 C 
ATOM     19  C   UNL A   1     -24.870   1.864  30.993  0.00  0.00    +0.009 C 
BRANCH  18  20
ATOM     20  C   UNL A   1     -25.365   1.205  32.715  0.00  0.00    +0.188 C 
ATOM     21  O   UNL A   1     -25.299   0.247  33.472  0.00  0.00    -0.220 OA
ENDBRANCH  18  20
ENDBRANCH  16  18
ENDBRANCH   2  13
TORSDOF 4
ENDMDL
ENDMDL
