REMARK  Name = No_3136-gen_results/8p0m/2024-11-27-11-27-31/
REMARK  4 active torsions:
REMARK  status: ('A' for Active; 'I' for Inactive)
REMARK    1  A    between atoms: C_3  and  C_7
REMARK    2  A    between atoms: C_8  and  C_11
REMARK    3  A    between atoms: C_16  and  C_18
REMARK    4  A    between atoms: C_18  and  C_19
REMARK                            x       y       z     vdW  Elec       q    Type
REMARK                         _______ _______ _______ _____ _____    ______ ____
ROOT
ATOM      1  C   UNL A   1     -26.411   0.307  27.219  0.00  0.00    +0.001 A 
ATOM      2  C   UNL A   1     -25.012   0.334  27.320  0.00  0.00    +0.018 A 
ATOM      3  C   UNL A   1     -27.043   0.357  25.999  0.00  0.00    +0.000 A 
ATOM      4  C   UNL A   1     -26.271   0.266  24.849  0.00  0.00    +0.000 A 
ATOM      5  C   UNL A   1     -24.858   0.322  24.925  0.00  0.00    +0.000 A 
ATOM      6  C   UNL A   1     -24.242   0.390  26.125  0.00  0.00    +0.002 A 
ENDROOT
BRANCH   1   9
ATOM      7  C   UNL A   1     -28.016  -0.814  28.878  0.00  0.00    +0.000 A 
ATOM      8  C   UNL A   1     -28.469  -0.785  29.829  0.00  0.00    +0.000 A 
ATOM      9  C   UNL A   1     -27.136   0.236  28.535  0.00  0.00    +0.000 A 
ATOM     10  C   UNL A   1     -26.875   1.282  29.398  0.00  0.00    +0.000 A 
ATOM     11  C   UNL A   1     -27.507   1.238  30.630  0.00  0.00    +0.000 A 
ATOM     12  C   UNL A   1     -28.327   0.164  30.924  0.00  0.00    +0.000 A 
ENDBRANCH   1   9
BRANCH   2  13
ATOM     13  C   UNL A   1     -24.311   0.236  28.615  0.00  0.00    +0.081 A 
ATOM     14  C   UNL A   1     -23.130   0.528  28.815  0.00  0.00    +0.020 A 
ATOM     15  C   UNL A   1     -22.467   0.535  30.092  0.00  0.00    +0.016 A 
ATOM     16  C   UNL A   1     -23.370  -0.060  31.077  0.00  0.00    +0.061 A 
ATOM     17  N   UNL A   1     -24.818  -0.187  29.863  0.00  0.00    -0.250 NA
BRANCH  16  18
ATOM     18  C   UNL A   1     -24.189  -0.427  30.932  0.00  0.00    +0.073 C 
ATOM     19  C   UNL A   1     -24.169  -2.051  30.835  0.00  0.00    +0.009 C 
BRANCH  18  20
ATOM     20  C   UNL A   1     -25.182  -0.970  32.039  0.00  0.00    +0.188 C 
ATOM     21  O   UNL A   1     -24.870  -0.611  33.166  0.00  0.00    -0.220 OA
ENDBRANCH  18  20
ENDBRANCH  16  18
ENDBRANCH   2  13
TORSDOF 4
