MODEL 3137
MODEL 1
REMARK VINA RESULT:    -7.297      0.000      0.000
REMARK INTER + INTRA:          -8.660
REMARK INTER:                  -8.150
REMARK INTRA:                  -0.510
REMARK UNBOUND:                -0.510
REMARK  Name = No_3137-gen_results/8p0m/2024-11-27-11-27-31/
REMARK  2 active torsions:
REMARK  status: ('A' for Active; 'I' for Inactive)
REMARK    1  A    between atoms: C_3  and  C_4
REMARK    2  A    between atoms: C_6  and  C_13
REMARK                            x       y       z     vdW  Elec       q    Type
REMARK                         _______ _______ _______ _____ _____    ______ ____
ROOT
ATOM      1  C   UNL A   1     -24.970   0.045  24.912  0.00  0.00    +0.004 A 
ATOM      2  C   UNL A   1     -26.060  -0.131  24.420  0.00  0.00    +0.000 A 
ATOM      3  C   UNL A   1     -27.112   0.777  24.530  0.00  0.00    +0.000 A 
ATOM      4  C   UNL A   1     -24.794   1.197  25.834  0.00  0.00    +0.054 A 
ATOM      5  C   UNL A   1     -25.735   2.200  25.926  0.00  0.00    +0.004 A 
ATOM      6  C   UNL A   1     -27.022   2.020  25.320  0.00  0.00    +0.000 A 
ENDROOT
BRANCH   4   7
ATOM      7  C   UNL A   1     -23.488   1.433  26.506  0.00  0.00    +0.249 C 
ATOM      8  O   UNL A   1     -22.747   2.307  26.104  0.00  0.00    -0.270 OA
ATOM      9  N   UNL A   1     -23.175   0.705  27.566  0.00  0.00    -0.276 N 
ATOM     10  C   UNL A   1     -24.000  -0.309  28.172  0.00  0.00    +0.094 C 
ATOM     11  C   UNL A   1     -23.713  -1.118  28.898  0.00  0.00    +0.022 C 
ATOM     12  C   UNL A   1     -22.512  -1.141  29.573  0.00  0.00    +0.004 C 
ATOM     13  C   UNL A   1     -21.605  -0.116  29.105  0.00  0.00    +0.022 C 
ATOM     14  C   UNL A   1     -21.934   0.729  28.132  0.00  0.00    +0.094 C 
ENDBRANCH   4   7
BRANCH   3  15
ATOM     15  C   UNL A   1     -28.473   0.638  23.975  0.00  0.00    +0.002 A 
ATOM     16  C   UNL A   1     -29.300  -0.537  24.061  0.00  0.00    +0.000 A 
ATOM     17  C   UNL A   1     -30.588  -0.507  23.547  0.00  0.00    +0.002 A 
ATOM     18  C   UNL A   1     -31.203   0.739  23.103  0.00  0.00    +0.030 A 
ATOM     19  C   UNL A   1     -29.210   1.788  23.481  0.00  0.00    +0.030 A 
ATOM     20  C   UNL A   1     -30.465   1.814  23.090  0.00  0.00    +0.140 A 
ATOM     21  F   UNL A   1     -31.001   2.964  22.667  0.00  0.00    -0.204 F 
ENDBRANCH   3  15
TORSDOF 2
ENDMDL
ENDMDL
