REMARK  Name = No_3137-gen_results/8p0m/2024-11-27-11-27-31/
REMARK  2 active torsions:
REMARK  status: ('A' for Active; 'I' for Inactive)
REMARK    1  A    between atoms: C_3  and  C_4
REMARK    2  A    between atoms: C_6  and  C_13
REMARK                            x       y       z     vdW  Elec       q    Type
REMARK                         _______ _______ _______ _____ _____    ______ ____
ROOT
ATOM      1  C   UNL A   1     -28.016  -0.814  28.878  0.00  0.00    +0.004 A 
ATOM      2  C   UNL A   1     -27.064  -0.119  28.608  0.00  0.00    +0.000 A 
ATOM      3  C   UNL A   1     -25.765  -0.390  29.036  0.00  0.00    +0.000 A 
ATOM      4  C   UNL A   1     -27.828  -1.908  29.866  0.00  0.00    +0.054 A 
ATOM      5  C   UNL A   1     -26.573  -2.316  30.264  0.00  0.00    +0.004 A 
ATOM      6  C   UNL A   1     -25.430  -1.520  29.923  0.00  0.00    +0.000 A 
ENDROOT
BRANCH   4   7
ATOM      7  C   UNL A   1     -28.976  -2.762  30.273  0.00  0.00    +0.249 C 
ATOM      8  O   UNL A   1     -28.859  -3.970  30.288  0.00  0.00    -0.270 OA
ATOM      9  N   UNL A   1     -30.101  -2.179  30.655  0.00  0.00    -0.276 N 
ATOM     10  C   UNL A   1     -30.334  -0.760  30.743  0.00  0.00    +0.094 C 
ATOM     11  C   UNL A   1     -31.308  -0.203  30.817  0.00  0.00    +0.022 C 
ATOM     12  C   UNL A   1     -32.510  -0.811  31.103  0.00  0.00    +0.004 C 
ATOM     13  C   UNL A   1     -32.402  -2.253  31.115  0.00  0.00    +0.022 C 
ATOM     14  C   UNL A   1     -31.253  -2.878  30.872  0.00  0.00    +0.094 C 
ENDBRANCH   4   7
BRANCH   3  15
ATOM     15  C   UNL A   1     -24.552   0.406  28.765  0.00  0.00    +0.002 A 
ATOM     16  C   UNL A   1     -23.230   0.118  29.258  0.00  0.00    +0.000 A 
ATOM     17  C   UNL A   1     -22.166   0.920  28.871  0.00  0.00    +0.002 A 
ATOM     18  C   UNL A   1     -22.308   1.923  27.822  0.00  0.00    +0.030 A 
ATOM     19  C   UNL A   1     -24.542   1.451  27.757  0.00  0.00    +0.030 A 
ATOM     20  C   UNL A   1     -23.499   2.132  27.334  0.00  0.00    +0.140 A 
ATOM     21  F   UNL A   1     -23.659   3.062  26.386  0.00  0.00    -0.204 F 
ENDBRANCH   3  15
TORSDOF 2
