MODEL 3138
MODEL 1
REMARK VINA RESULT:    -8.756      0.000      0.000
REMARK INTER + INTRA:          -9.179
REMARK INTER:                  -9.779
REMARK INTRA:                   0.601
REMARK UNBOUND:                 0.601
REMARK  Name = No_3138-gen_results/8p0m/2024-11-27-11-27-31/
REMARK  2 active torsions:
REMARK  status: ('A' for Active; 'I' for Inactive)
REMARK    1  A    between atoms: N_18  and  C_19
REMARK    2  A    between atoms: C_23  and  C_25
REMARK                            x       y       z     vdW  Elec       q    Type
REMARK                         _______ _______ _______ _____ _____    ______ ____
ROOT
ATOM      1  C   UNL A   1     -23.057  -1.156  30.147  0.00  0.00    +0.104 C 
ATOM      2  C   UNL A   1     -23.403  -0.584  29.139  0.00  0.00    +0.000 A 
ATOM      3  C   UNL A   1     -24.459  -0.965  28.330  0.00  0.00    +0.054 A 
ATOM      4  C   UNL A   1     -24.844  -0.351  27.082  0.00  0.00    +0.044 A 
ATOM      5  C   UNL A   1     -24.093   0.753  26.611  0.00  0.00    +0.141 A 
ATOM      6  C   UNL A   1     -22.997   1.196  27.396  0.00  0.00    +0.029 A 
ATOM      7  C   UNL A   1     -22.696   0.533  28.546  0.00  0.00    -0.000 A 
ATOM      8  C   UNL A   1     -23.175  -0.349  31.393  0.00  0.00    +0.203 C 
ATOM      9  N   UNL A   1     -23.914   0.532  31.504  0.00  0.00    -0.220 NA
ATOM     10  F   UNL A   1     -22.350  -0.800  32.379  0.00  0.00    -0.188 F 
ATOM     11  F   UNL A   1     -24.413   1.371  25.513  0.00  0.00    -0.204 F 
ATOM     12  C   UNL A   1     -24.947   0.836  31.294  0.00  0.00    +0.097 A 
ATOM     13  C   UNL A   1     -25.770   1.432  31.611  0.00  0.00    +0.020 A 
ATOM     14  C   UNL A   1     -27.104   1.710  31.026  0.00  0.00    +0.002 A 
ATOM     15  C   UNL A   1     -27.373   1.031  29.854  0.00  0.00    +0.001 A 
ATOM     16  C   UNL A   1     -26.475   0.260  29.327  0.00  0.00    +0.017 A 
ATOM     17  C   UNL A   1     -25.341   0.106  29.893  0.00  0.00    +0.073 A 
ATOM     18  N   UNL A   1     -24.762  -0.910  29.364  0.00  0.00    -0.265 N 
ENDROOT
BRANCH  18  19
ATOM     19  C   UNL A   1     -25.158  -2.274  29.532  0.00  0.00    +0.055 A 
ATOM     20  C   UNL A   1     -24.555  -3.273  29.054  0.00  0.00    +0.011 A 
ATOM     21  C   UNL A   1     -26.518  -2.470  30.113  0.00  0.00    +0.020 A 
ATOM     22  C   UNL A   1     -25.131  -4.595  29.113  0.00  0.00    -0.021 A 
ATOM     23  C   UNL A   1     -27.056  -3.749  30.171  0.00  0.00    +0.056 A 
ATOM     24  C   UNL A   1     -26.341  -4.801  29.671  0.00  0.00    +0.000 A 
ATOM     25  C   UNL A   1     -24.563  -5.830  28.564  0.00  0.00    +0.031 C 
BRANCH  23  26
ATOM     26  C   UNL A   1     -28.397  -3.969  30.779  0.00  0.00    +0.265 C 
ATOM     27  N   UNL A   1     -29.210  -4.808  30.526  0.00  0.00    -0.200 NA
ATOM     28  C   UNL A   1     -30.466  -4.938  30.957  0.00  0.00    +0.139 C 
ATOM     29  O   UNL A   1     -28.784  -3.100  31.543  0.00  0.00    -0.268 OA
ENDBRANCH  23  26
ENDBRANCH  18  19
TORSDOF 2
ENDMDL
ENDMDL
