REMARK  Name = outputs/IAG933/test6/raw/output_3138_IAG933_linker_design_.xyz
REMARK  17 active torsions:
REMARK  status: ('A' for Active; 'I' for Inactive)
REMARK    1  A    between atoms: C_1  and  C_2
REMARK    2  A    between atoms: C_1  and  C_8
REMARK    3  A    between atoms: C_1  and  N_41
REMARK    4  A    between atoms: C_14  and  C_15
REMARK    5  A    between atoms: N_16  and  C_17
REMARK    6  A    between atoms: C_17  and  C_43
REMARK    7  A    between atoms: C_21  and  O_22
REMARK    8  A    between atoms: O_22  and  C_23
REMARK    9  A    between atoms: C_23  and  C_24
REMARK   10  A    between atoms: C_29  and  C_32
REMARK   11  A    between atoms: C_29  and  O_40
REMARK   12  A    between atoms: C_30  and  C_35
REMARK   13  A    between atoms: C_30  and  C_43
REMARK   14  A    between atoms: C_31  and  C_39
REMARK   15  A    between atoms: C_31  and  N_41
REMARK   16  A    between atoms: C_36  and  O_40
REMARK   17  A    between atoms: C_39  and  C_42
REMARK                            x       y       z     vdW  Elec       q    Type
REMARK                         _______ _______ _______ _____ _____    ______ ____
ROOT
ATOM      1  N   UNL A   1     -25.407   8.289  30.553  0.00  0.00    -0.109 NA
ATOM      2  C   UNL A   1     -25.580   6.074  31.293  0.00  0.00    +0.029 C 
ATOM      3  C   UNL A   1     -24.461   6.778  31.758  0.00  0.00    +0.060 C 
ATOM      4  C   UNL A   1     -23.883   6.248  33.059  0.00  0.00    +0.050 C 
ATOM      5  C   UNL A   1     -25.990   7.149  30.328  0.00  0.00    +0.118 C 
ATOM      6  N   UNL A   1     -24.278   7.994  31.240  0.00  0.00    -0.153 NA
ENDROOT
BRANCH   2   7
ATOM      7  C   UNL A   1     -25.980   4.799  31.847  0.00  0.00    +0.231 C 
BRANCH   7   8
ATOM      8  O   UNL A   1     -25.061   3.738  31.724  0.00  0.00    -0.461 OA
BRANCH   8   9
ATOM      9  C   UNL A   1     -24.466   3.233  30.523  0.00  0.00    +0.215 C 
ATOM     10  C   UNL A   1     -22.730   1.258  28.892  0.00  0.00    +0.011 C 
ATOM     11  C   UNL A   1     -23.602   2.231  29.753  0.00  0.00    -0.069 C 
BRANCH  10  13
ATOM     12  C   UNL A   1     -21.627   1.991  26.546  0.00  0.00    +0.005 C 
ATOM     13  C   UNL A   1     -21.495   1.489  27.986  0.00  0.00    +0.031 C 
ENDBRANCH  10  13
BRANCH  10  14
ATOM     14  C   UNL A   1     -23.503   0.039  28.627  0.00  0.00    +0.119 C 
BRANCH  14  15
ATOM     15  N   UNL A   1     -23.521  -0.454  29.909  0.00  0.00    -0.209 NA
BRANCH  15  16
ATOM     16  C   UNL A   1     -24.855  -1.012  30.143  0.00  0.00    +0.111 C 
BRANCH  16  17
ATOM     17  C   UNL A   1     -24.973  -2.505  29.788  0.00  0.00    -0.005 C 
ATOM     18  C   UNL A   1     -23.906  -3.173  29.146  0.00  0.00    -0.003 C 
ATOM     19  C   UNL A   1     -23.989  -4.549  28.853  0.00  0.00    -0.000 C 
ATOM     20  C   UNL A   1     -25.137  -5.280  29.205  0.00  0.00    -0.000 C 
ATOM     21  C   UNL A   1     -26.232  -4.611  29.784  0.00  0.00    -0.000 C 
ATOM     22  C   UNL A   1     -26.155  -3.232  30.065  0.00  0.00    -0.003 C 
ENDBRANCH  16  17
BRANCH  16  23
ATOM     23  C   UNL A   1     -25.387  -0.679  31.571  0.00  0.00    +0.093 C 
ATOM     24  C   UNL A   1     -25.189   0.773  32.028  0.00  0.00    +0.021 C 
ATOM     25  C   UNL A   1     -25.336   0.684  33.544  0.00  0.00    +0.020 C 
ATOM     26  C   UNL A   1     -24.829  -0.715  33.905  0.00  0.00    +0.089 C 
ATOM     27  N   UNL A   1     -24.758  -1.481  32.646  0.00  0.00    -0.218 NA
ENDBRANCH  16  23
ENDBRANCH  15  16
ENDBRANCH  14  15
ENDBRANCH  10  14
ENDBRANCH   8   9
ENDBRANCH   7   8
ENDBRANCH   2   7
BRANCH   5  28
ATOM     28  C   UNL A   1     -26.602   6.814  28.937  0.00  0.00    +0.025 C 
BRANCH  28  29
ATOM     29  C   UNL A   1     -25.934   7.499  27.704  0.00  0.00    +0.025 C 
BRANCH  29  30
ATOM     30  C   UNL A   1     -25.026   6.479  26.963  0.00  0.00    +0.116 C 
BRANCH  30  32
ATOM     31  C   UNL A   1     -25.642   4.093  27.123  0.00  0.00    +0.266 C 
ATOM     32  N   UNL A   1     -25.614   5.252  26.449  0.00  0.00    -0.202 NA
ATOM     33  O   UNL A   1     -25.143   3.966  28.243  0.00  0.00    -0.268 OA
BRANCH  31  35
ATOM     34  C   UNL A   1     -25.688   1.614  26.461  0.00  0.00    +0.041 C 
ATOM     35  C   UNL A   1     -26.250   2.920  26.395  0.00  0.00    +0.077 C 
ATOM     36  C   UNL A   1     -27.438   3.091  25.645  0.00  0.00    +0.107 C 
ATOM     37  N   UNL A   1     -28.075   2.089  25.003  0.00  0.00    -0.208 NA
ATOM     38  C   UNL A   1     -27.543   0.849  25.079  0.00  0.00    +0.253 C 
ATOM     39  C   UNL A   1     -26.354   0.576  25.777  0.00  0.00    +0.193 C 
ATOM     40  F   UNL A   1     -25.860  -0.681  25.795  0.00  0.00    -0.199 F 
BRANCH  38  41
ATOM     41  O   UNL A   1     -28.193  -0.208  24.477  0.00  0.00    -0.456 OA
BRANCH  41  42
ATOM     42  C   UNL A   1     -29.460   0.005  23.866  0.00  0.00    +0.243 C 
BRANCH  42  43
ATOM     43  C   UNL A   1     -30.065  -1.377  23.573  0.00  0.00    +0.229 C 
ATOM     44  O   UNL A   1     -30.729  -1.878  24.721  0.00  0.00    -0.216 OA
ENDBRANCH  42  43
ENDBRANCH  41  42
ENDBRANCH  38  41
ENDBRANCH  31  35
ENDBRANCH  30  32
ENDBRANCH  29  30
ENDBRANCH  28  29
ENDBRANCH   5  28
TORSDOF 17
