REMARK  Name = outputs/IAG933/test6/raw/output_314_IAG933_linker_design_.xyz
REMARK  12 active torsions:
REMARK  status: ('A' for Active; 'I' for Inactive)
REMARK    1  A    between atoms: C_1  and  C_2
REMARK    2  A    between atoms: C_1  and  C_8
REMARK    3  A    between atoms: C_1  and  C_29
REMARK    4  A    between atoms: C_13  and  C_39
REMARK    5  A    between atoms: C_14  and  C_15
REMARK    6  A    between atoms: C_21  and  O_22
REMARK    7  A    between atoms: O_22  and  C_23
REMARK    8  A    between atoms: C_23  and  C_24
REMARK    9  A    between atoms: C_32  and  C_38
REMARK   10  A    between atoms: C_35  and  C_37
REMARK   11  A    between atoms: C_37  and  C_44
REMARK   12  A    between atoms: C_44  and  N_45
REMARK                            x       y       z     vdW  Elec       q    Type
REMARK                         _______ _______ _______ _____ _____    ______ ____
ROOT
ATOM      1  O   UNL A   1     -21.327   1.377  27.896  0.00  0.00    -0.287 OA
ATOM      2  C   UNL A   1     -24.471   0.027  29.266  0.00  0.00    -0.013 C 
ATOM      3  O   UNL A   1     -21.380   2.145  26.710  0.00  0.00    -0.283 OA
ATOM      4  C   UNL A   1     -22.694   2.324  26.281  0.00  0.00    +0.233 C 
ATOM      5  C   UNL A   1     -23.497   1.671  27.261  0.00  0.00    +0.063 C 
ATOM      6  C   UNL A   1     -25.442   0.841  28.593  0.00  0.00    +0.034 C 
ATOM      7  C   UNL A   1     -24.858   1.404  27.402  0.00  0.00    +0.063 C 
ATOM      8  C   UNL A   1     -22.609   1.092  28.166  0.00  0.00    +0.195 C 
ATOM      9  C   UNL A   1     -23.032   0.159  29.091  0.00  0.00    +0.038 C 
ENDROOT
BRANCH   7  10
ATOM     10  C   UNL A   1     -25.688   1.614  26.461  0.00  0.00    +0.079 C 
ATOM     11  C   UNL A   1     -26.250   2.920  26.395  0.00  0.00    +0.055 C 
ATOM     12  C   UNL A   1     -27.438   3.091  25.645  0.00  0.00    +0.102 C 
ATOM     13  N   UNL A   1     -28.075   2.089  25.003  0.00  0.00    -0.212 NA
ATOM     14  C   UNL A   1     -27.543   0.849  25.079  0.00  0.00    +0.234 C 
ATOM     15  C   UNL A   1     -26.354   0.576  25.777  0.00  0.00    +0.241 C 
ATOM     16  F   UNL A   1     -25.860  -0.681  25.795  0.00  0.00    -0.227 F 
BRANCH  11  17
ATOM     17  C   UNL A   1     -25.642   4.093  27.123  0.00  0.00    +0.263 C 
ATOM     18  N   UNL A   1     -25.614   5.252  26.449  0.00  0.00    -0.200 NA
ATOM     19  C   UNL A   1     -25.026   6.479  26.963  0.00  0.00    +0.139 C 
ATOM     20  O   UNL A   1     -25.143   3.966  28.243  0.00  0.00    -0.269 OA
ENDBRANCH  11  17
BRANCH  14  21
ATOM     21  O   UNL A   1     -28.193  -0.208  24.477  0.00  0.00    -0.459 OA
BRANCH  21  22
ATOM     22  C   UNL A   1     -29.460   0.005  23.866  0.00  0.00    +0.242 C 
BRANCH  22  23
ATOM     23  C   UNL A   1     -30.065  -1.377  23.573  0.00  0.00    +0.229 C 
ATOM     24  O   UNL A   1     -30.729  -1.878  24.721  0.00  0.00    -0.216 OA
ENDBRANCH  22  23
ENDBRANCH  21  22
ENDBRANCH  14  21
ENDBRANCH   7  10
BRANCH   6  26
ATOM     25  O   UNL A   1     -28.226   3.604  30.822  0.00  0.00    -0.273 OA
ATOM     26  C   UNL A   1     -26.987   0.964  28.697  0.00  0.00    +0.267 C 
ATOM     27  O   UNL A   1     -27.646  -0.068  28.520  0.00  0.00    -0.268 OA
ATOM     28  C   UNL A   1     -28.110   3.454  29.602  0.00  0.00    +0.250 C 
ATOM     29  N   UNL A   1     -27.693   2.227  28.996  0.00  0.00    -0.141 NA
BRANCH  28  30
ATOM     30  C   UNL A   1     -28.504   4.561  28.640  0.00  0.00    +0.107 C 
BRANCH  30  31
ATOM     31  C   UNL A   1     -28.680   6.026  29.122  0.00  0.00    +0.114 C 
BRANCH  31  34
ATOM     32  C   UNL A   1     -30.943   5.626  30.019  0.00  0.00    +0.124 C 
ATOM     33  O   UNL A   1     -30.505   7.339  28.362  0.00  0.00    -0.118 OA
ATOM     34  N   UNL A   1     -30.102   6.254  29.018  0.00  0.00    -0.131 NA
ENDBRANCH  31  34
ENDBRANCH  30  31
ENDBRANCH  28  30
ENDBRANCH   6  26
BRANCH   2  35
ATOM     35  C   UNL A   1     -24.855  -1.012  30.143  0.00  0.00    +0.060 C 
BRANCH  35  36
ATOM     36  C   UNL A   1     -24.973  -2.505  29.788  0.00  0.00    -0.017 C 
ATOM     37  C   UNL A   1     -23.906  -3.173  29.146  0.00  0.00    -0.004 C 
ATOM     38  C   UNL A   1     -23.989  -4.549  28.853  0.00  0.00    -0.000 C 
ATOM     39  C   UNL A   1     -25.137  -5.280  29.205  0.00  0.00    -0.000 C 
ATOM     40  C   UNL A   1     -26.232  -4.611  29.784  0.00  0.00    -0.000 C 
ATOM     41  C   UNL A   1     -26.155  -3.232  30.065  0.00  0.00    -0.004 C 
ENDBRANCH  35  36
BRANCH  35  42
ATOM     42  C   UNL A   1     -25.387  -0.679  31.571  0.00  0.00    +0.081 C 
ATOM     43  C   UNL A   1     -25.189   0.773  32.028  0.00  0.00    +0.019 C 
ATOM     44  C   UNL A   1     -25.336   0.684  33.544  0.00  0.00    +0.020 C 
ATOM     45  C   UNL A   1     -24.829  -0.715  33.905  0.00  0.00    +0.089 C 
ATOM     46  N   UNL A   1     -24.758  -1.481  32.646  0.00  0.00    -0.219 NA
ENDBRANCH  35  42
ENDBRANCH   2  35
TORSDOF 12
