MODEL 3140
MODEL 1
REMARK VINA RESULT:    -5.779      0.000      0.000
REMARK INTER + INTRA:          -7.176
REMARK INTER:                  -6.793
REMARK INTRA:                  -0.383
REMARK UNBOUND:                -0.383
REMARK  Name = No_3140-gen_results/8p0m/2024-11-27-11-27-31/
REMARK  3 active torsions:
REMARK  status: ('A' for Active; 'I' for Inactive)
REMARK    1  A    between atoms: C_1  and  C_2
REMARK    2  A    between atoms: C_5  and  C_10
REMARK    3  A    between atoms: N_11  and  C_13
REMARK                            x       y       z     vdW  Elec       q    Type
REMARK                         _______ _______ _______ _____ _____    ______ ____
ROOT
ATOM      1  C   UNL A   1     -24.405  -2.785  28.875  0.00  0.00    +0.025 A 
ATOM      2  C   UNL A   1     -25.375  -1.855  28.685  0.00  0.00    -0.000 A 
ATOM      3  C   UNL A   1     -25.158  -0.392  28.732  0.00  0.00    +0.004 A 
ATOM      4  C   UNL A   1     -23.827   0.057  29.022  0.00  0.00    +0.055 A 
ATOM      5  C   UNL A   1     -22.863  -0.941  29.285  0.00  0.00    +0.004 A 
ATOM      6  C   UNL A   1     -23.138  -2.282  29.223  0.00  0.00    -0.000 A 
ENDROOT
BRANCH   1   7
ATOM      7  C   UNL A   1     -24.596  -3.979  28.836  0.00  0.00    +0.262 C 
ATOM      8  F   UNL A   1     -23.798  -4.603  28.123  0.00  0.00    -0.214 F 
ATOM      9 CL   UNL A   1     -25.923  -4.734  29.487  0.00  0.00    -0.072 Cl
ENDBRANCH   1   7
BRANCH   4  10
ATOM     10  C   UNL A   1     -23.484   1.425  29.120  0.00  0.00    +0.269 C 
ATOM     11  N   UNL A   1     -23.273   2.263  28.181  0.00  0.00    -0.173 NA
ATOM     12  O   UNL A   1     -23.525   1.908  30.333  0.00  0.00    -0.268 OA
BRANCH  11  13
ATOM     13  C   UNL A   1     -22.529   1.917  26.990  0.00  0.00    +0.108 C 
ATOM     14  C   UNL A   1     -23.074   2.336  25.717  0.00  0.00    +0.124 C 
ATOM     15  N   UNL A   1     -24.085   2.957  25.737  0.00  0.00    -0.125 NA
ENDBRANCH  11  13
ENDBRANCH   4  10
TORSDOF 3
ENDMDL
ENDMDL
