REMARK  Name = No_3141-gen_results/8p0m/2024-11-27-11-27-31/
REMARK  2 active torsions:
REMARK  status: ('A' for Active; 'I' for Inactive)
REMARK    1  A    between atoms: C_3  and  C_7
REMARK    2  A    between atoms: C_7  and  C_8
REMARK                            x       y       z     vdW  Elec       q    Type
REMARK                         _______ _______ _______ _____ _____    ______ ____
ROOT
ATOM      1  C   UNL A   1     -28.016  -0.814  28.878  0.00  0.00    -0.004 A 
ATOM      2  C   UNL A   1     -28.469  -0.785  29.829  0.00  0.00    -0.000 A 
ATOM      3  C   UNL A   1     -28.196   0.348  28.055  0.00  0.00    -0.022 A 
ATOM      4  C   UNL A   1     -29.019   1.350  28.378  0.00  0.00    -0.025 A 
ATOM      5  C   UNL A   1     -29.625   1.268  29.601  0.00  0.00    -0.005 A 
ATOM      6  C   UNL A   1     -29.382   0.182  30.400  0.00  0.00    -0.000 A 
ATOM      7  C   UNL A   1     -29.234   2.467  27.502  0.00  0.00    +0.031 C 
ENDROOT
BRANCH   3   8
ATOM      8  C   UNL A   1     -27.450   0.375  26.707  0.00  0.00    +0.052 C 
BRANCH   8   9
ATOM      9  C   UNL A   1     -25.970   0.401  26.776  0.00  0.00    -0.018 A 
ATOM     10  C   UNL A   1     -25.316  -0.084  27.863  0.00  0.00    -0.004 A 
ATOM     11  C   UNL A   1     -23.916   0.047  27.963  0.00  0.00    -0.000 A 
ATOM     12  C   UNL A   1     -23.253   0.981  27.171  0.00  0.00    -0.000 A 
ATOM     13  C   UNL A   1     -23.918   1.652  26.133  0.00  0.00    -0.000 A 
ATOM     14  C   UNL A   1     -25.327   1.397  25.960  0.00  0.00    -0.004 A 
ENDBRANCH   8   9
ENDBRANCH   3   8
TORSDOF 2
