MODEL 3141
MODEL 1
REMARK VINA RESULT:    -6.720      0.000      0.000
REMARK INTER + INTRA:          -8.119
REMARK INTER:                  -7.506
REMARK INTRA:                  -0.613
REMARK UNBOUND:                -0.613
REMARK  Name = No_3141-gen_results/8p0m/2024-11-27-11-27-31/
REMARK  2 active torsions:
REMARK  status: ('A' for Active; 'I' for Inactive)
REMARK    1  A    between atoms: C_3  and  C_7
REMARK    2  A    between atoms: C_7  and  C_8
REMARK                            x       y       z     vdW  Elec       q    Type
REMARK                         _______ _______ _______ _____ _____    ______ ____
ROOT
ATOM      1  C   UNL A   1     -23.907  -3.360  28.662  0.00  0.00    -0.004 A 
ATOM      2  C   UNL A   1     -23.952  -4.412  28.610  0.00  0.00    -0.000 A 
ATOM      3  C   UNL A   1     -24.987  -2.713  29.350  0.00  0.00    -0.022 A 
ATOM      4  C   UNL A   1     -26.081  -3.361  29.763  0.00  0.00    -0.025 A 
ATOM      5  C   UNL A   1     -26.087  -4.716  29.586  0.00  0.00    -0.005 A 
ATOM      6  C   UNL A   1     -25.012  -5.321  28.990  0.00  0.00    -0.000 A 
ATOM      7  C   UNL A   1     -27.178  -2.675  30.386  0.00  0.00    +0.031 C 
ENDROOT
BRANCH   3   8
ATOM      8  C   UNL A   1     -24.885  -1.187  29.538  0.00  0.00    +0.052 C 
BRANCH   8   9
ATOM      9  C   UNL A   1     -24.180  -0.440  28.470  0.00  0.00    -0.018 A 
ATOM     10  C   UNL A   1     -23.101   0.333  28.758  0.00  0.00    -0.004 A 
ATOM     11  C   UNL A   1     -22.508   1.123  27.752  0.00  0.00    -0.000 A 
ATOM     12  C   UNL A   1     -23.224   1.415  26.594  0.00  0.00    -0.000 A 
ATOM     13  C   UNL A   1     -24.442   0.776  26.315  0.00  0.00    -0.000 A 
ATOM     14  C   UNL A   1     -24.964  -0.138  27.301  0.00  0.00    -0.004 A 
ENDBRANCH   8   9
ENDBRANCH   3   8
TORSDOF 2
ENDMDL
ENDMDL
