MODEL 3142
MODEL 1
REMARK VINA RESULT:    -6.415      0.000      0.000
REMARK INTER + INTRA:          -7.707
REMARK INTER:                  -7.165
REMARK INTRA:                  -0.542
REMARK UNBOUND:                -0.542
REMARK  Name = No_3142-gen_results/8p0m/2024-11-27-11-27-31/
REMARK  2 active torsions:
REMARK  status: ('A' for Active; 'I' for Inactive)
REMARK    1  A    between atoms: C_3  and  C_4
REMARK    2  A    between atoms: C_4  and  C_8
REMARK                            x       y       z     vdW  Elec       q    Type
REMARK                         _______ _______ _______ _____ _____    ______ ____
ROOT
ATOM      1  C   UNL A   1     -24.574  -1.169  29.649  0.00  0.00    +0.053 C 
ENDROOT
BRANCH   1   4
ATOM      2  C   UNL A   1     -24.895  -0.143  27.319  0.00  0.00    -0.004 A 
ATOM      3  C   UNL A   1     -24.536   0.551  26.611  0.00  0.00    -0.000 A 
ATOM      4  C   UNL A   1     -24.152  -0.316  28.507  0.00  0.00    -0.018 A 
ATOM      5  C   UNL A   1     -23.340   1.411  26.614  0.00  0.00    -0.000 A 
ATOM      6  C   UNL A   1     -22.554   1.291  27.760  0.00  0.00    -0.000 A 
ATOM      7  C   UNL A   1     -22.959   0.463  28.757  0.00  0.00    -0.004 A 
ENDBRANCH   1   4
BRANCH   1   8
ATOM      8  C   UNL A   1     -24.881  -2.536  29.371  0.00  0.00    -0.018 A 
ATOM      9  C   UNL A   1     -25.971  -3.071  29.781  0.00  0.00    -0.004 A 
ATOM     10  C   UNL A   1     -26.125  -4.601  29.611  0.00  0.00    -0.000 A 
ATOM     11  C   UNL A   1     -25.080  -5.311  28.992  0.00  0.00    -0.000 A 
ATOM     12  C   UNL A   1     -23.994  -4.637  28.524  0.00  0.00    -0.000 A 
ATOM     13  C   UNL A   1     -23.797  -3.276  28.801  0.00  0.00    -0.004 A 
ENDBRANCH   1   8
TORSDOF 2
ENDMDL
ENDMDL
