MODEL 3143
MODEL 1
REMARK VINA RESULT:    -7.348      0.000      0.000
REMARK INTER + INTRA:          -8.925
REMARK INTER:                  -8.637
REMARK INTRA:                  -0.289
REMARK UNBOUND:                -0.289
REMARK  Name = No_3143-gen_results/8p0m/2024-11-27-11-27-31/
REMARK  3 active torsions:
REMARK  status: ('A' for Active; 'I' for Inactive)
REMARK    1  A    between atoms: C_4  and  C_15
REMARK    2  A    between atoms: C_13  and  C_19
REMARK    3  A    between atoms: N_17  and  C_18
REMARK                            x       y       z     vdW  Elec       q    Type
REMARK                         _______ _______ _______ _____ _____    ______ ____
ROOT
ATOM      1  C   UNL A   1     -30.965  -8.092  10.225  0.00  0.00    +0.019 A 
ATOM      2  C   UNL A   1     -30.491  -7.050   9.837  0.00  0.00    +0.044 A 
ATOM      3  N   UNL A   1     -31.014  -5.885  10.096  0.00  0.00    -0.309 N 
ATOM      4  C   UNL A   1     -30.231  -9.328   9.868  0.00  0.00    +0.057 A 
ATOM      5  C   UNL A   1     -29.214  -9.300   8.931  0.00  0.00    +0.004 A 
ATOM      6  C   UNL A   1     -28.807  -8.121   8.355  0.00  0.00    -0.003 A 
ATOM      7  C   UNL A   1     -29.445  -6.930   8.804  0.00  0.00    -0.009 A 
ATOM      8  C   UNL A   1     -31.016  -4.795   9.333  0.00  0.00    +0.073 C 
ATOM      9  C   UNL A   1     -31.638  -3.637   9.586  0.00  0.00    +0.020 C 
ATOM     10  C   UNL A   1     -31.790  -5.712  11.263  0.00  0.00    +0.091 C 
ATOM     11  C   UNL A   1     -32.457  -4.538  11.619  0.00  0.00    +0.021 C 
ATOM     12  C   UNL A   1     -32.357  -3.455  10.732  0.00  0.00    +0.004 C 
ATOM     13  C   UNL A   1     -29.109  -5.722   8.140  0.00  0.00    +0.025 C 
ATOM     14  C   UNL A   1     -29.969  -4.693   8.283  0.00  0.00    +0.024 C 
ENDROOT
BRANCH   4  15
ATOM     15  C   UNL A   1     -30.678 -10.615  10.490  0.00  0.00    +0.269 C 
ATOM     16  O   UNL A   1     -31.696 -10.862  10.713  0.00  0.00    -0.268 OA
ATOM     17  N   UNL A   1     -29.598 -11.494  10.735  0.00  0.00    -0.175 NA
BRANCH  17  18
ATOM     18  C   UNL A   1     -29.822 -12.842  11.218  0.00  0.00    +0.074 A 
ATOM     19  C   UNL A   1     -29.922 -12.964  12.385  0.00  0.00    +0.017 A 
ATOM     20  C   UNL A   1     -30.043 -14.335  12.877  0.00  0.00    +0.001 A 
ATOM     21  C   UNL A   1     -30.063 -15.399  11.934  0.00  0.00    +0.000 A 
ATOM     22  C   UNL A   1     -29.943 -15.128  10.578  0.00  0.00    +0.001 A 
ATOM     23  C   UNL A   1     -29.737 -13.811  10.178  0.00  0.00    +0.017 A 
ENDBRANCH  17  18
ENDBRANCH   4  15
BRANCH  13  24
ATOM     24  C   UNL A   1     -28.037  -5.689   7.112  0.00  0.00    +0.004 C 
ATOM     25  C   UNL A   1     -26.632  -5.914   7.500  0.00  0.00    +0.000 C 
ATOM     26  C   UNL A   1     -28.389  -5.396   5.751  0.00  0.00    +0.000 C 
ENDBRANCH  13  24
TORSDOF 3
ENDMDL
ENDMDL
