REMARK  Name = outputs/IAG933/test6/raw/output_3143_IAG933_linker_design_.xyz
REMARK  12 active torsions:
REMARK  status: ('A' for Active; 'I' for Inactive)
REMARK    1  A    between atoms: C_1  and  C_2
REMARK    2  A    between atoms: C_13  and  N_32
REMARK    3  A    between atoms: C_14  and  C_15
REMARK    4  A    between atoms: C_21  and  O_22
REMARK    5  A    between atoms: O_22  and  C_23
REMARK    6  A    between atoms: C_23  and  C_24
REMARK    7  A    between atoms: C_29  and  C_40
REMARK    8  A    between atoms: C_30  and  N_32
REMARK    9  A    between atoms: C_30  and  C_39
REMARK   10  A    between atoms: C_30  and  C_41
REMARK   11  A    between atoms: N_31  and  C_33
REMARK   12  A    between atoms: C_39  and  C_40
REMARK                            x       y       z     vdW  Elec       q    Type
REMARK                         _______ _______ _______ _____ _____    ______ ____
ROOT
ATOM      1  C   UNL A   1     -24.012   1.050  28.256  0.00  0.00    +0.076 C 
ENDROOT
BRANCH   1  10
ATOM      2  C   UNL A   1     -24.855  -1.012  30.143  0.00  0.00    +0.042 C 
ATOM      3  C   UNL A   1     -25.387  -0.679  31.571  0.00  0.00    +0.078 C 
ATOM      4  C   UNL A   1     -25.189   0.773  32.028  0.00  0.00    +0.037 C 
ATOM      5  C   UNL A   1     -25.336   0.684  33.544  0.00  0.00    +0.022 C 
ATOM      6  C   UNL A   1     -24.829  -0.715  33.905  0.00  0.00    +0.089 C 
ATOM      7  N   UNL A   1     -24.758  -1.481  32.646  0.00  0.00    -0.219 NA
ATOM      8  C   UNL A   1     -25.806   1.667  30.743  0.00  0.00    +0.116 C 
ATOM      9  C   UNL A   1     -26.107   0.953  29.277  0.00  0.00    +0.170 C 
ATOM     10  C   UNL A   1     -24.916   0.007  29.017  0.00  0.00    +0.053 C 
ATOM     11  O   UNL A   1     -27.040   0.043  28.614  0.00  0.00    -0.222 OA
BRANCH   2  12
ATOM     12  C   UNL A   1     -24.973  -2.505  29.788  0.00  0.00    -0.021 C 
ATOM     13  C   UNL A   1     -23.906  -3.173  29.146  0.00  0.00    -0.004 C 
ATOM     14  C   UNL A   1     -23.989  -4.549  28.853  0.00  0.00    -0.000 C 
ATOM     15  C   UNL A   1     -25.137  -5.280  29.205  0.00  0.00    -0.000 C 
ATOM     16  C   UNL A   1     -26.232  -4.611  29.784  0.00  0.00    -0.000 C 
ATOM     17  C   UNL A   1     -26.155  -3.232  30.065  0.00  0.00    -0.004 C 
ENDBRANCH   2  12
BRANCH   8  18
ATOM     18  N   UNL A   1     -27.060   2.258  31.217  0.00  0.00    -0.165 NA
ATOM     19  C   UNL A   1     -27.538   4.551  31.739  0.00  0.00    +0.168 C 
ATOM     20  C   UNL A   1     -28.159   4.206  30.396  0.00  0.00    +0.054 C 
ATOM     21  C   UNL A   1     -28.030   2.847  30.207  0.00  0.00    +0.104 C 
ATOM     22  O   UNL A   1     -26.949   3.305  32.215  0.00  0.00    -0.282 OA
ENDBRANCH   8  18
ENDBRANCH   1  10
BRANCH   1  23
ATOM     23  N   UNL A   1     -24.349   1.338  26.816  0.00  0.00    -0.213 NA
BRANCH  23  24
ATOM     24  C   UNL A   1     -25.688   1.614  26.461  0.00  0.00    +0.142 C 
ATOM     25  C   UNL A   1     -26.250   2.920  26.395  0.00  0.00    +0.071 C 
ATOM     26  C   UNL A   1     -27.438   3.091  25.645  0.00  0.00    +0.103 C 
ATOM     27  N   UNL A   1     -28.075   2.089  25.003  0.00  0.00    -0.212 NA
ATOM     28  C   UNL A   1     -27.543   0.849  25.079  0.00  0.00    +0.236 C 
ATOM     29  C   UNL A   1     -26.354   0.576  25.777  0.00  0.00    +0.256 C 
ATOM     30  F   UNL A   1     -25.860  -0.681  25.795  0.00  0.00    -0.225 F 
BRANCH  25  31
ATOM     31  C   UNL A   1     -25.642   4.093  27.123  0.00  0.00    +0.264 C 
ATOM     32  N   UNL A   1     -25.614   5.252  26.449  0.00  0.00    -0.200 NA
ATOM     33  C   UNL A   1     -25.026   6.479  26.963  0.00  0.00    +0.139 C 
ATOM     34  O   UNL A   1     -25.143   3.966  28.243  0.00  0.00    -0.269 OA
ENDBRANCH  25  31
BRANCH  28  35
ATOM     35  O   UNL A   1     -28.193  -0.208  24.477  0.00  0.00    -0.459 OA
BRANCH  35  36
ATOM     36  C   UNL A   1     -29.460   0.005  23.866  0.00  0.00    +0.242 C 
BRANCH  36  37
ATOM     37  C   UNL A   1     -30.065  -1.377  23.573  0.00  0.00    +0.229 C 
ATOM     38  O   UNL A   1     -30.729  -1.878  24.721  0.00  0.00    -0.216 OA
ENDBRANCH  36  37
ENDBRANCH  35  36
ENDBRANCH  28  35
ENDBRANCH  23  24
ENDBRANCH   1  23
BRANCH   1  39
ATOM     39  C   UNL A   1     -22.786   0.676  29.139  0.00  0.00    +0.020 C 
BRANCH  39  40
ATOM     40  C   UNL A   1     -21.489   0.864  28.502  0.00  0.00    +0.037 C 
BRANCH  40  42
ATOM     41  O   UNL A   1     -22.295   2.394  26.560  0.00  0.00    -0.220 OA
ATOM     42  C   UNL A   1     -21.258   1.976  27.520  0.00  0.00    +0.182 C 
ENDBRANCH  40  42
ENDBRANCH  39  40
ENDBRANCH   1  39
TORSDOF 12
