REMARK  Name = No_3144-gen_results/8p0m/2024-11-27-11-27-31/
REMARK  3 active torsions:
REMARK  status: ('A' for Active; 'I' for Inactive)
REMARK    1  A    between atoms: C_1  and  C_3
REMARK    2  A    between atoms: C_3  and  C_4
REMARK    3  A    between atoms: C_4  and  C_5
REMARK                            x       y       z     vdW  Elec       q    Type
REMARK                         _______ _______ _______ _____ _____    ______ ____
ROOT
ATOM      1  C   UNL A   1     -28.016  -0.814  28.878  0.00  0.00    -0.022 A 
ATOM      2  C   UNL A   1     -28.469  -0.785  29.829  0.00  0.00    -0.004 A 
ATOM      3  C   UNL A   1     -28.190  -1.885  30.889  0.00  0.00    -0.000 A 
ATOM      4  C   UNL A   1     -27.358  -2.897  30.449  0.00  0.00    -0.000 A 
ATOM      5  C   UNL A   1     -26.502  -2.698  29.414  0.00  0.00    -0.000 A 
ATOM      6  C   UNL A   1     -26.710  -1.540  28.611  0.00  0.00    -0.004 A 
ENDROOT
BRANCH   1   7
ATOM      7  C   UNL A   1     -28.196   0.348  28.055  0.00  0.00    +0.026 C 
BRANCH   7   8
ATOM      8  C   UNL A   1     -27.442   0.510  26.795  0.00  0.00    +0.005 C 
BRANCH   8   9
ATOM      9  C   UNL A   1     -26.169  -0.079  26.679  0.00  0.00    +0.000 C 
ATOM     10  C   UNL A   1     -25.330   0.253  25.607  0.00  0.00    +0.000 C 
ATOM     11  C   UNL A   1     -25.766  -1.146  27.675  0.00  0.00    +0.000 C 
ENDBRANCH   8   9
ENDBRANCH   7   8
ENDBRANCH   1   7
TORSDOF 3
