MODEL 3144
MODEL 1
REMARK VINA RESULT:    -5.781      0.000      0.000
REMARK INTER + INTRA:          -7.176
REMARK INTER:                  -6.795
REMARK INTRA:                  -0.381
REMARK UNBOUND:                -0.381
REMARK  Name = No_3144-gen_results/8p0m/2024-11-27-11-27-31/
REMARK  3 active torsions:
REMARK  status: ('A' for Active; 'I' for Inactive)
REMARK    1  A    between atoms: C_1  and  C_3
REMARK    2  A    between atoms: C_3  and  C_4
REMARK    3  A    between atoms: C_4  and  C_5
REMARK                            x       y       z     vdW  Elec       q    Type
REMARK                         _______ _______ _______ _____ _____    ______ ____
ROOT
ATOM      1  C   UNL A   1     -24.516  -2.701  29.432  0.00  0.00    -0.022 A 
ATOM      2  C   UNL A   1     -23.853  -3.210  28.791  0.00  0.00    -0.004 A 
ATOM      3  C   UNL A   1     -24.031  -4.721  28.480  0.00  0.00    -0.000 A 
ATOM      4  C   UNL A   1     -25.082  -5.317  29.152  0.00  0.00    -0.000 A 
ATOM      5  C   UNL A   1     -26.120  -4.578  29.622  0.00  0.00    -0.000 A 
ATOM      6  C   UNL A   1     -25.940  -3.166  29.679  0.00  0.00    -0.004 A 
ENDROOT
BRANCH   1   7
ATOM      7  C   UNL A   1     -24.368  -1.275  29.495  0.00  0.00    +0.026 C 
BRANCH   7   8
ATOM      8  C   UNL A   1     -23.959  -0.501  28.305  0.00  0.00    +0.005 C 
BRANCH   8   9
ATOM      9  C   UNL A   1     -22.788   0.277  28.364  0.00  0.00    +0.000 C 
ATOM     10  C   UNL A   1     -22.749   1.544  27.768  0.00  0.00    +0.000 C 
ATOM     11  C   UNL A   1     -21.547  -0.320  28.995  0.00  0.00    +0.000 C 
ENDBRANCH   8   9
ENDBRANCH   7   8
ENDBRANCH   1   7
TORSDOF 3
ENDMDL
ENDMDL
