MODEL 3145
MODEL 1
REMARK VINA RESULT:    -5.664      0.000      0.000
REMARK INTER + INTRA:         -12.154
REMARK INTER:                  -8.313
REMARK INTRA:                  -3.840
REMARK UNBOUND:                -3.840
REMARK  Name = No_3145-gen_results/8p0m/2024-11-27-11-27-31/
REMARK  8 active torsions:
REMARK  status: ('A' for Active; 'I' for Inactive)
REMARK    1  A    between atoms: C_1  and  C_2
REMARK    2  A    between atoms: C_4  and  C_13
REMARK    3  A    between atoms: C_5  and  C_9
REMARK    4  A    between atoms: C_13  and  C_14
REMARK    5  A    between atoms: C_14  and  O_16
REMARK    6  A    between atoms: O_16  and  C_18
REMARK    7  A    between atoms: C_18  and  C_19
REMARK    8  A    between atoms: C_19  and  C_20
REMARK                            x       y       z     vdW  Elec       q    Type
REMARK                         _______ _______ _______ _____ _____    ______ ____
ROOT
ATOM      1  C   UNL A   1     -23.585  -0.473  28.538  0.00  0.00    +0.071 A 
ATOM      2  C   UNL A   1     -24.482  -0.391  27.523  0.00  0.00    -0.000 A 
ATOM      3  C   UNL A   1     -24.419   0.596  26.422  0.00  0.00    -0.010 A 
ATOM      4  C   UNL A   1     -23.341   1.540  26.459  0.00  0.00    +0.040 A 
ATOM      5  C   UNL A   1     -22.470   1.468  27.569  0.00  0.00    +0.001 A 
ATOM      6  C   UNL A   1     -22.591   0.522  28.555  0.00  0.00    +0.004 A 
ENDROOT
BRANCH   1   7
ATOM      7  C   UNL A   1     -23.649  -1.285  29.433  0.00  0.00    +0.419 C 
ATOM      8  F   UNL A   1     -23.104  -2.536  28.867  0.00  0.00    -0.166 F 
ATOM      9  F   UNL A   1     -23.178  -1.404  30.563  0.00  0.00    -0.166 F 
ATOM     10  F   UNL A   1     -24.865  -2.071  29.557  0.00  0.00    -0.166 F 
ENDBRANCH   1   7
BRANCH   4  11
ATOM     11  C   UNL A   1     -23.165   2.550  25.473  0.00  0.00    +0.341 C 
ATOM     12  F   UNL A   1     -22.297   2.559  24.745  0.00  0.00    -0.193 F 
ATOM     13  F   UNL A   1     -23.798   3.726  25.671  0.00  0.00    -0.193 F 
ENDBRANCH   4  11
BRANCH   3  14
ATOM     14  C   UNL A   1     -25.597   0.971  25.747  0.00  0.00    +0.136 C 
BRANCH  14  15
ATOM     15  C   UNL A   1     -26.712   1.558  26.413  0.00  0.00    +0.322 C 
ATOM     16  O   UNL A   1     -27.732   0.898  26.549  0.00  0.00    -0.250 OA
BRANCH  15  17
ATOM     17  O   UNL A   1     -26.600   2.768  26.801  0.00  0.00    -0.448 OA
BRANCH  17  18
ATOM     18  C   UNL A   1     -26.916   3.067  28.158  0.00  0.00    +0.213 C 
BRANCH  18  19
ATOM     19  C   UNL A   1     -25.722   2.880  29.016  0.00  0.00    +0.074 C 
BRANCH  19  20
ATOM     20  C   UNL A   1     -25.798   2.107  30.030  0.00  0.00    -0.018 A 
ATOM     21  C   UNL A   1     -24.743   2.198  30.954  0.00  0.00    -0.004 A 
ATOM     22  C   UNL A   1     -24.731   1.181  32.001  0.00  0.00    -0.000 A 
ATOM     23  C   UNL A   1     -25.730   0.245  32.065  0.00  0.00    -0.000 A 
ATOM     24  C   UNL A   1     -26.708   0.153  31.133  0.00  0.00    -0.000 A 
ATOM     25  C   UNL A   1     -26.750   1.034  30.074  0.00  0.00    -0.004 A 
ENDBRANCH  19  20
ENDBRANCH  18  19
ENDBRANCH  17  18
ENDBRANCH  15  17
ENDBRANCH  14  15
ENDBRANCH   3  14
TORSDOF 8
ENDMDL
ENDMDL
