REMARK  Name = outputs/IAG933/test6/raw/output_3145_IAG933_linker_design_.xyz
REMARK  11 active torsions:
REMARK  status: ('A' for Active; 'I' for Inactive)
REMARK    1  A    between atoms: C_1  and  C_2
REMARK    2  A    between atoms: C_1  and  C_8
REMARK    3  A    between atoms: C_1  and  C_31
REMARK    4  A    between atoms: C_13  and  C_35
REMARK    5  A    between atoms: C_14  and  C_15
REMARK    6  A    between atoms: C_21  and  O_22
REMARK    7  A    between atoms: O_22  and  C_23
REMARK    8  A    between atoms: C_23  and  C_24
REMARK    9  A    between atoms: C_30  and  C_31
REMARK   10  A    between atoms: C_31  and  C_42
REMARK   11  A    between atoms: C_39  and  N_40
REMARK                            x       y       z     vdW  Elec       q    Type
REMARK                         _______ _______ _______ _____ _____    ______ ____
ROOT
ATOM      1  C   UNL A   1     -22.355   1.008  28.462  0.00  0.00    +0.126 C 
ATOM      2  N   UNL A   1     -21.165   1.461  28.075  0.00  0.00    -0.025 NA
ATOM      3  C   UNL A   1     -24.821   1.145  28.570  0.00  0.00    +0.026 C 
ATOM      4  C   UNL A   1     -23.556   1.459  27.607  0.00  0.00    +0.114 C 
ATOM      5  C   UNL A   1     -24.689   1.158  27.257  0.00  0.00    +0.037 C 
ATOM      6  C   UNL A   1     -22.361   0.041  29.644  0.00  0.00    +0.023 C 
ATOM      7  O   UNL A   1     -22.899   1.868  25.222  0.00  0.00    -0.248 OA
ATOM      8  C   UNL A   1     -22.604   1.881  26.386  0.00  0.00    +0.338 C 
ATOM      9  O   UNL A   1     -21.301   2.190  26.782  0.00  0.00    -0.348 OA
ENDROOT
BRANCH   5  10
ATOM     10  C   UNL A   1     -25.688   1.614  26.461  0.00  0.00    +0.016 C 
ATOM     11  C   UNL A   1     -26.250   2.920  26.395  0.00  0.00    +0.073 C 
ATOM     12  C   UNL A   1     -27.438   3.091  25.645  0.00  0.00    +0.106 C 
ATOM     13  N   UNL A   1     -28.075   2.089  25.003  0.00  0.00    -0.208 NA
ATOM     14  C   UNL A   1     -27.543   0.849  25.079  0.00  0.00    +0.253 C 
ATOM     15  C   UNL A   1     -26.354   0.576  25.777  0.00  0.00    +0.189 C 
ATOM     16  F   UNL A   1     -25.860  -0.681  25.795  0.00  0.00    -0.200 F 
BRANCH  11  17
ATOM     17  C   UNL A   1     -25.642   4.093  27.123  0.00  0.00    +0.266 C 
ATOM     18  N   UNL A   1     -25.614   5.252  26.449  0.00  0.00    -0.200 NA
ATOM     19  C   UNL A   1     -25.026   6.479  26.963  0.00  0.00    +0.139 C 
ATOM     20  O   UNL A   1     -25.143   3.966  28.243  0.00  0.00    -0.268 OA
ENDBRANCH  11  17
BRANCH  14  21
ATOM     21  O   UNL A   1     -28.193  -0.208  24.477  0.00  0.00    -0.456 OA
BRANCH  21  22
ATOM     22  C   UNL A   1     -29.460   0.005  23.866  0.00  0.00    +0.243 C 
BRANCH  22  23
ATOM     23  C   UNL A   1     -30.065  -1.377  23.573  0.00  0.00    +0.229 C 
ATOM     24  O   UNL A   1     -30.729  -1.878  24.721  0.00  0.00    -0.216 OA
ENDBRANCH  22  23
ENDBRANCH  21  22
ENDBRANCH  14  21
ENDBRANCH   5  10
BRANCH   3  25
ATOM     25  C   UNL A   1     -25.540  -0.124  29.059  0.00  0.00    +0.084 C 
BRANCH  25  27
ATOM     26  N   UNL A   1     -26.717   1.855  29.787  0.00  0.00    -0.207 NA
ATOM     27  C   UNL A   1     -26.892   0.572  29.361  0.00  0.00    +0.241 C 
ATOM     28  O   UNL A   1     -27.850  -0.043  29.436  0.00  0.00    -0.273 OA
BRANCH  26  32
ATOM     29  C   UNL A   1     -26.742   4.582  31.340  0.00  0.00    +0.002 C 
ATOM     30  C   UNL A   1     -28.777   4.562  29.590  0.00  0.00    +0.004 C 
ATOM     31  C   UNL A   1     -28.611   3.097  29.414  0.00  0.00    +0.022 C 
ATOM     32  C   UNL A   1     -27.808   2.572  30.596  0.00  0.00    +0.095 C 
ATOM     33  C   UNL A   1     -28.135   4.000  31.119  0.00  0.00    +0.020 C 
ENDBRANCH  26  32
ENDBRANCH  25  27
BRANCH  25  34
ATOM     34  C   UNL A   1     -24.855  -1.012  30.143  0.00  0.00    +0.047 C 
BRANCH  34  35
ATOM     35  C   UNL A   1     -24.973  -2.505  29.788  0.00  0.00    -0.021 C 
ATOM     36  C   UNL A   1     -23.906  -3.173  29.146  0.00  0.00    -0.004 C 
ATOM     37  C   UNL A   1     -23.989  -4.549  28.853  0.00  0.00    -0.000 C 
ATOM     38  C   UNL A   1     -25.137  -5.280  29.205  0.00  0.00    -0.000 C 
ATOM     39  C   UNL A   1     -26.232  -4.611  29.784  0.00  0.00    -0.000 C 
ATOM     40  C   UNL A   1     -26.155  -3.232  30.065  0.00  0.00    -0.004 C 
ENDBRANCH  34  35
BRANCH  34  41
ATOM     41  C   UNL A   1     -25.387  -0.679  31.571  0.00  0.00    +0.077 C 
ATOM     42  C   UNL A   1     -25.189   0.773  32.028  0.00  0.00    +0.019 C 
ATOM     43  C   UNL A   1     -25.336   0.684  33.544  0.00  0.00    +0.020 C 
ATOM     44  C   UNL A   1     -24.829  -0.715  33.905  0.00  0.00    +0.089 C 
ATOM     45  N   UNL A   1     -24.758  -1.481  32.646  0.00  0.00    -0.219 NA
ENDBRANCH  34  41
ENDBRANCH  25  34
ENDBRANCH   3  25
TORSDOF 11
