REMARK  Name = outputs/IAG933/test6/raw/output_3147_IAG933_linker_design_.xyz
REMARK  11 active torsions:
REMARK  status: ('A' for Active; 'I' for Inactive)
REMARK    1  A    between atoms: C_1  and  C_2
REMARK    2  A    between atoms: C_13  and  N_30
REMARK    3  A    between atoms: C_14  and  C_15
REMARK    4  A    between atoms: C_21  and  O_22
REMARK    5  A    between atoms: O_22  and  C_23
REMARK    6  A    between atoms: C_23  and  C_24
REMARK    7  A    between atoms: N_29  and  C_36
REMARK    8  A    between atoms: N_30  and  C_40
REMARK    9  A    between atoms: C_33  and  C_37
REMARK   10  A    between atoms: C_33  and  O_39
REMARK   11  A    between atoms: C_34  and  C_36
REMARK                            x       y       z     vdW  Elec       q    Type
REMARK                         _______ _______ _______ _____ _____    ______ ____
ROOT
ATOM      1  C   UNL A   1     -21.167   1.752  27.206  0.00  0.00    -0.002 C 
ATOM      2  C   UNL A   1     -21.042   2.158  25.853  0.00  0.00    -0.000 C 
ATOM      3  C   UNL A   1     -22.354   1.446  27.832  0.00  0.00    +0.011 C 
ATOM      4  C   UNL A   1     -23.339   1.876  25.568  0.00  0.00    +0.016 C 
ATOM      5  C   UNL A   1     -23.364   1.490  26.868  0.00  0.00    +0.068 C 
ATOM      6  C   UNL A   1     -22.143   2.236  24.997  0.00  0.00    +0.001 C 
ENDROOT
BRANCH   5   7
ATOM      7  N   UNL A   1     -24.629   1.294  27.241  0.00  0.00    -0.210 NA
BRANCH   7   8
ATOM      8  C   UNL A   1     -25.688   1.614  26.461  0.00  0.00    +0.108 C 
ATOM      9  C   UNL A   1     -26.250   2.920  26.395  0.00  0.00    +0.092 C 
ATOM     10  C   UNL A   1     -27.438   3.091  25.645  0.00  0.00    +0.108 C 
ATOM     11  N   UNL A   1     -28.075   2.089  25.003  0.00  0.00    -0.208 NA
ATOM     12  C   UNL A   1     -27.543   0.849  25.079  0.00  0.00    +0.255 C 
ATOM     13  C   UNL A   1     -26.354   0.576  25.777  0.00  0.00    +0.208 C 
ATOM     14  F   UNL A   1     -25.860  -0.681  25.795  0.00  0.00    -0.198 F 
BRANCH   9  15
ATOM     15  C   UNL A   1     -25.642   4.093  27.123  0.00  0.00    +0.268 C 
ATOM     16  N   UNL A   1     -25.614   5.252  26.449  0.00  0.00    -0.200 NA
ATOM     17  C   UNL A   1     -25.026   6.479  26.963  0.00  0.00    +0.139 C 
ATOM     18  O   UNL A   1     -25.143   3.966  28.243  0.00  0.00    -0.268 OA
ENDBRANCH   9  15
BRANCH  12  19
ATOM     19  O   UNL A   1     -28.193  -0.208  24.477  0.00  0.00    -0.456 OA
BRANCH  19  20
ATOM     20  C   UNL A   1     -29.460   0.005  23.866  0.00  0.00    +0.243 C 
BRANCH  20  21
ATOM     21  C   UNL A   1     -30.065  -1.377  23.573  0.00  0.00    +0.229 C 
ATOM     22  O   UNL A   1     -30.729  -1.878  24.721  0.00  0.00    -0.216 OA
ENDBRANCH  20  21
ENDBRANCH  19  20
ENDBRANCH  12  19
ENDBRANCH   7   8
ENDBRANCH   5   7
BRANCH   3  23
ATOM     23  C   UNL A   1     -22.705   1.047  29.250  0.00  0.00    +0.118 C 
BRANCH  23  30
ATOM     24  C   UNL A   1     -24.855  -1.012  30.143  0.00  0.00    +0.056 C 
ATOM     25  C   UNL A   1     -25.387  -0.679  31.571  0.00  0.00    +0.080 C 
ATOM     26  C   UNL A   1     -25.189   0.773  32.028  0.00  0.00    +0.038 C 
ATOM     27  C   UNL A   1     -25.336   0.684  33.544  0.00  0.00    +0.022 C 
ATOM     28  C   UNL A   1     -24.829  -0.715  33.905  0.00  0.00    +0.089 C 
ATOM     29  N   UNL A   1     -24.758  -1.481  32.646  0.00  0.00    -0.219 NA
ATOM     30  N   UNL A   1     -24.194   1.126  29.252  0.00  0.00    -0.199 NA
ATOM     31  C   UNL A   1     -24.912  -0.160  28.943  0.00  0.00    +0.096 C 
ATOM     32  N   UNL A   1     -24.799   2.239  30.071  0.00  0.00    -0.145 NA
ATOM     33  C   UNL A   1     -24.728   2.200  31.523  0.00  0.00    +0.121 C 
BRANCH  24  34
ATOM     34  C   UNL A   1     -24.973  -2.505  29.788  0.00  0.00    -0.020 C 
ATOM     35  C   UNL A   1     -23.906  -3.173  29.146  0.00  0.00    -0.004 C 
ATOM     36  C   UNL A   1     -23.989  -4.549  28.853  0.00  0.00    -0.000 C 
ATOM     37  C   UNL A   1     -25.137  -5.280  29.205  0.00  0.00    -0.000 C 
ATOM     38  C   UNL A   1     -26.232  -4.611  29.784  0.00  0.00    -0.000 C 
ATOM     39  C   UNL A   1     -26.155  -3.232  30.065  0.00  0.00    -0.004 C 
ENDBRANCH  24  34
BRANCH  33  40
ATOM     40  C   UNL A   1     -24.858   3.678  32.058  0.00  0.00    +0.161 C 
BRANCH  40  41
ATOM     41  O   UNL A   1     -25.381   4.563  31.090  0.00  0.00    -0.350 OA
ATOM     42  C   UNL A   1     -26.450   5.345  31.623  0.00  0.00    +0.174 C 
ENDBRANCH  40  41
ENDBRANCH  33  40
ENDBRANCH  23  30
ENDBRANCH   3  23
TORSDOF 11
