MODEL 3148
MODEL 1
REMARK VINA RESULT:    -6.361      0.000      0.000
REMARK INTER + INTRA:          -6.893
REMARK INTER:                  -6.733
REMARK INTRA:                  -0.160
REMARK UNBOUND:                -0.160
REMARK  Name = No_3148-gen_results/8p0m/2024-11-27-11-27-31/
REMARK  1 active torsions:
REMARK  status: ('A' for Active; 'I' for Inactive)
REMARK    1  A    between atoms: C_2  and  C_3
REMARK                            x       y       z     vdW  Elec       q    Type
REMARK                         _______ _______ _______ _____ _____    ______ ____
ROOT
ATOM      1  N   UNL A   1      -8.453  -8.706  18.148  0.00  0.00    -0.192 NA
ATOM      2  C   UNL A   1      -8.054  -8.845  19.124  0.00  0.00    +0.194 C 
ATOM      3  C   UNL A   1      -9.319  -9.890  17.502  0.00  0.00    +0.304 C 
ATOM      4  C   UNL A   1     -10.369 -10.045  17.775  0.00  0.00    +0.250 C 
ATOM      5  C   UNL A   1     -10.714  -9.969  18.985  0.00  0.00    +0.042 C 
ATOM      6  C   UNL A   1     -10.301  -9.166  20.060  0.00  0.00    -0.021 C 
ATOM      7  C   UNL A   1      -8.932  -8.990  20.331  0.00  0.00    +0.057 C 
ATOM      8  O   UNL A   1     -11.239 -10.465  16.790  0.00  0.00    -0.282 OA
ATOM      9  O   UNL A   1      -8.497 -10.609  16.643  0.00  0.00    -0.265 OA
ENDROOT
BRANCH   2  10
ATOM     10  C   UNL A   1      -6.976  -8.136  19.530  0.00  0.00    +0.416 C 
ATOM     11  F   UNL A   1      -7.114  -7.121  20.244  0.00  0.00    -0.168 F 
ATOM     12  F   UNL A   1      -6.062  -9.004  20.283  0.00  0.00    -0.168 F 
ATOM     13  F   UNL A   1      -6.184  -7.751  18.472  0.00  0.00    -0.168 F 
ENDBRANCH   2  10
TORSDOF 1
ENDMDL
ENDMDL
