REMARK  Name = outputs/IAG933/test6/raw/output_3149_IAG933_linker_design_.xyz
REMARK  10 active torsions:
REMARK  status: ('A' for Active; 'I' for Inactive)
REMARK    1  A    between atoms: C_1  and  C_2
REMARK    2  A    between atoms: C_1  and  C_8
REMARK    3  A    between atoms: C_1  and  C_35
REMARK    4  A    between atoms: C_13  and  C_38
REMARK    5  A    between atoms: C_14  and  C_15
REMARK    6  A    between atoms: C_21  and  O_22
REMARK    7  A    between atoms: O_22  and  C_23
REMARK    8  A    between atoms: C_23  and  C_24
REMARK    9  A    between atoms: C_35  and  C_36
REMARK   10  A    between atoms: C_35  and  C_44
REMARK                            x       y       z     vdW  Elec       q    Type
REMARK                         _______ _______ _______ _____ _____    ______ ____
ROOT
ATOM      1  C   UNL A   1     -25.608  -0.199  29.042  0.00  0.00    +0.026 C 
ENDROOT
BRANCH   1   5
ATOM      2  C   UNL A   1     -27.596   3.921  30.334  0.00  0.00    +0.006 C 
ATOM      3  C   UNL A   1     -29.355   0.575  28.832  0.00  0.00    +0.026 C 
ATOM      4  C   UNL A   1     -27.547   1.537  29.668  0.00  0.00    -0.026 C 
ATOM      5  C   UNL A   1     -27.093   0.282  29.062  0.00  0.00    +0.024 C 
ATOM      6  C   UNL A   1     -29.647   2.718  30.184  0.00  0.00    +0.002 C 
ATOM      7  C   UNL A   1     -28.933   1.624  29.658  0.00  0.00    -0.026 C 
ATOM      8  C   UNL A   1     -26.903   2.718  30.085  0.00  0.00    -0.004 C 
ATOM      9  C   UNL A   1     -28.972   3.872  30.501  0.00  0.00    +0.034 C 
ATOM     10  C   UNL A   1     -28.225  -0.273  28.409  0.00  0.00    +0.009 C 
ATOM     11 BR   UNL A   1     -29.840   5.626  31.236  0.00  0.00    -0.049 Br
ENDBRANCH   1   5
BRANCH   1  17
ATOM     12  C   UNL A   1     -20.977   1.435  27.668  0.00  0.00    +0.019 C 
ATOM     13  C   UNL A   1     -23.166   1.955  26.818  0.00  0.00    +0.023 C 
ATOM     14  C   UNL A   1     -22.405   1.234  27.659  0.00  0.00    +0.073 C 
ATOM     15  N   UNL A   1     -23.088   0.210  28.466  0.00  0.00    -0.221 NA
ATOM     16  C   UNL A   1     -24.654   1.389  27.333  0.00  0.00    +0.042 C 
ATOM     17  C   UNL A   1     -24.615   0.902  28.530  0.00  0.00    +0.077 C 
BRANCH  16  18
ATOM     18  C   UNL A   1     -25.688   1.614  26.461  0.00  0.00    +0.017 C 
ATOM     19  C   UNL A   1     -26.250   2.920  26.395  0.00  0.00    +0.073 C 
ATOM     20  C   UNL A   1     -27.438   3.091  25.645  0.00  0.00    +0.106 C 
ATOM     21  N   UNL A   1     -28.075   2.089  25.003  0.00  0.00    -0.208 NA
ATOM     22  C   UNL A   1     -27.543   0.849  25.079  0.00  0.00    +0.253 C 
ATOM     23  C   UNL A   1     -26.354   0.576  25.777  0.00  0.00    +0.189 C 
ATOM     24  F   UNL A   1     -25.860  -0.681  25.795  0.00  0.00    -0.200 F 
BRANCH  19  25
ATOM     25  C   UNL A   1     -25.642   4.093  27.123  0.00  0.00    +0.266 C 
ATOM     26  N   UNL A   1     -25.614   5.252  26.449  0.00  0.00    -0.200 NA
ATOM     27  C   UNL A   1     -25.026   6.479  26.963  0.00  0.00    +0.139 C 
ATOM     28  O   UNL A   1     -25.143   3.966  28.243  0.00  0.00    -0.268 OA
ENDBRANCH  19  25
BRANCH  22  29
ATOM     29  O   UNL A   1     -28.193  -0.208  24.477  0.00  0.00    -0.456 OA
BRANCH  29  30
ATOM     30  C   UNL A   1     -29.460   0.005  23.866  0.00  0.00    +0.243 C 
BRANCH  30  31
ATOM     31  C   UNL A   1     -30.065  -1.377  23.573  0.00  0.00    +0.229 C 
ATOM     32  O   UNL A   1     -30.729  -1.878  24.721  0.00  0.00    -0.216 OA
ENDBRANCH  30  31
ENDBRANCH  29  30
ENDBRANCH  22  29
ENDBRANCH  16  18
ENDBRANCH   1  17
BRANCH   1  33
ATOM     33  C   UNL A   1     -24.855  -1.012  30.143  0.00  0.00    +0.040 C 
BRANCH  33  34
ATOM     34  C   UNL A   1     -24.973  -2.505  29.788  0.00  0.00    -0.021 C 
ATOM     35  C   UNL A   1     -23.906  -3.173  29.146  0.00  0.00    -0.004 C 
ATOM     36  C   UNL A   1     -23.989  -4.549  28.853  0.00  0.00    -0.000 C 
ATOM     37  C   UNL A   1     -25.137  -5.280  29.205  0.00  0.00    -0.000 C 
ATOM     38  C   UNL A   1     -26.232  -4.611  29.784  0.00  0.00    -0.000 C 
ATOM     39  C   UNL A   1     -26.155  -3.232  30.065  0.00  0.00    -0.004 C 
ENDBRANCH  33  34
BRANCH  33  40
ATOM     40  C   UNL A   1     -25.387  -0.679  31.571  0.00  0.00    +0.077 C 
ATOM     41  C   UNL A   1     -25.189   0.773  32.028  0.00  0.00    +0.019 C 
ATOM     42  C   UNL A   1     -25.336   0.684  33.544  0.00  0.00    +0.020 C 
ATOM     43  C   UNL A   1     -24.829  -0.715  33.905  0.00  0.00    +0.089 C 
ATOM     44  N   UNL A   1     -24.758  -1.481  32.646  0.00  0.00    -0.219 NA
ENDBRANCH  33  40
ENDBRANCH   1  33
TORSDOF 10
