MODEL 3149
MODEL 1
REMARK VINA RESULT:    -7.368      0.000      0.000
REMARK INTER + INTRA:         -11.472
REMARK INTER:                  -9.522
REMARK INTRA:                  -1.950
REMARK UNBOUND:                -1.950
REMARK  Name = No_3149-gen_results/8p0m/2024-11-27-11-27-31/
REMARK  5 active torsions:
REMARK  status: ('A' for Active; 'I' for Inactive)
REMARK    1  A    between atoms: C_5  and  C_8
REMARK    2  A    between atoms: C_8  and  C_9
REMARK    3  A    between atoms: C_8  and  C_11
REMARK    4  A    between atoms: C_11  and  C_12
REMARK    5  A    between atoms: C_15  and  C_16
REMARK                            x       y       z     vdW  Elec       q    Type
REMARK                         _______ _______ _______ _____ _____    ______ ____
ROOT
ATOM      1  C   UNL A   1      -7.801   1.610  36.523  0.00  0.00    +0.045 C 
ENDROOT
BRANCH   1   6
ATOM      2  C   UNL A   1      -6.285  -1.284  34.544  0.00  0.00    +0.140 A 
ATOM      3  C   UNL A   1      -5.251  -1.209  34.729  0.00  0.00    +0.030 A 
ATOM      4  F   UNL A   1      -6.699  -2.231  33.838  0.00  0.00    -0.204 F 
ATOM      5  C   UNL A   1      -7.272  -0.488  35.245  0.00  0.00    +0.026 A 
ATOM      6  C   UNL A   1      -6.864   0.720  35.882  0.00  0.00    -0.016 A 
ATOM      7  C   UNL A   1      -4.573   0.039  35.432  0.00  0.00    +0.002 A 
ATOM      8  C   UNL A   1      -5.485   0.923  36.054  0.00  0.00    -0.004 A 
ENDBRANCH   1   6
BRANCH   1   9
ATOM      9  C   UNL A   1      -7.933   1.918  37.701  0.00  0.00    -0.018 A 
ATOM     10  C   UNL A   1      -8.590   3.039  38.259  0.00  0.00    -0.004 A 
ATOM     11  C   UNL A   1      -9.617   2.895  39.132  0.00  0.00    -0.000 A 
ATOM     12  C   UNL A   1     -10.518   1.867  39.150  0.00  0.00    -0.000 A 
ATOM     13  C   UNL A   1     -10.165   0.543  38.694  0.00  0.00    -0.000 A 
ATOM     14  C   UNL A   1      -8.698   0.429  38.242  0.00  0.00    -0.004 A 
BRANCH  13  15
ATOM     15  C   UNL A   1     -11.005  -0.558  38.751  0.00  0.00    -0.000 A 
ATOM     16  C   UNL A   1     -11.564  -0.942  39.985  0.00  0.00    -0.000 A 
ATOM     17  C   UNL A   1     -12.289  -2.107  40.089  0.00  0.00    -0.000 A 
ATOM     18  C   UNL A   1     -11.053  -1.521  37.803  0.00  0.00    -0.000 A 
ATOM     19  C   UNL A   1     -11.841  -2.670  37.835  0.00  0.00    -0.000 A 
ATOM     20  C   UNL A   1     -12.475  -2.908  39.044  0.00  0.00    +0.000 A 
ENDBRANCH  13  15
ENDBRANCH   1   9
BRANCH   1  21
ATOM     21  C   UNL A   1      -8.722   2.319  35.580  0.00  0.00    +0.009 C 
BRANCH  21  22
ATOM     22  C   UNL A   1      -9.926   1.801  35.144  0.00  0.00    +0.012 C 
ATOM     23  C   UNL A   1     -11.118   2.465  35.622  0.00  0.00    +0.024 C 
ATOM     24  C   UNL A   1     -12.260   1.971  35.000  0.00  0.00    +0.115 C 
ATOM     25  N   UNL A   1     -12.079   1.539  33.906  0.00  0.00    -0.205 NA
ATOM     26  C   UNL A   1     -10.906   1.252  33.139  0.00  0.00    +0.241 C 
ATOM     27  C   UNL A   1      -9.822   1.491  33.782  0.00  0.00    +0.087 C 
ATOM     28  O   UNL A   1     -11.108   0.747  31.925  0.00  0.00    -0.273 OA
ENDBRANCH  21  22
ENDBRANCH   1  21
TORSDOF 5
ENDMDL
ENDMDL
