MODEL 314
MODEL 1
REMARK VINA RESULT:    -6.047      0.000      0.000
REMARK INTER + INTRA:          -9.733
REMARK INTER:                  -8.875
REMARK INTRA:                  -0.857
REMARK UNBOUND:                -0.857
REMARK  Name = No_314-gen_results/8p0m/2024-11-27-11-27-31/
REMARK  8 active torsions:
REMARK  status: ('A' for Active; 'I' for Inactive)
REMARK    1  A    between atoms: C_1  and  C_2
REMARK    2  A    between atoms: C_1  and  O_12
REMARK    3  A    between atoms: C_5  and  C_7
REMARK    4  A    between atoms: O_12  and  C_13
REMARK    5  A    between atoms: C_13  and  C_14
REMARK    6  A    between atoms: N_16  and  C_18
REMARK    7  A    between atoms: C_19  and  C_20
REMARK    8  A    between atoms: C_21  and  C_22
REMARK                            x       y       z     vdW  Elec       q    Type
REMARK                         _______ _______ _______ _____ _____    ______ ____
ROOT
ATOM      1  O   UNL A   1      -8.427   0.736  34.170  0.00  0.00    -0.434 OA
ENDROOT
BRANCH   1   2
ATOM      2  C   UNL A   1      -8.075  -0.220  35.010  0.00  0.00    +0.360 C 
ATOM      3  O   UNL A   1      -8.600  -0.151  36.048  0.00  0.00    -0.243 OA
BRANCH   2   4
ATOM      4  C   UNL A   1      -6.927  -0.586  34.907  0.00  0.00    +0.157 A 
ATOM      5  N   UNL A   1      -5.880   0.059  35.441  0.00  0.00    -0.237 NA
ATOM      6  C   UNL A   1      -4.548  -0.319  35.400  0.00  0.00    +0.104 A 
ATOM      7  C   UNL A   1      -4.263  -1.608  34.955  0.00  0.00    +0.076 A 
ATOM      8  C   UNL A   1      -6.599  -1.865  34.291  0.00  0.00    +0.026 A 
ATOM      9  C   UNL A   1      -5.246  -2.423  34.335  0.00  0.00    +0.008 A 
BRANCH   7  10
ATOM     10  C   UNL A   1      -2.850  -2.077  34.966  0.00  0.00    +0.286 C 
ATOM     11  O   UNL A   1      -2.380  -2.504  36.056  0.00  0.00    -0.267 OA
ATOM     12  N   UNL A   1      -2.147  -2.242  33.840  0.00  0.00    -0.084 NA
ENDBRANCH   7  10
ENDBRANCH   2   4
ENDBRANCH   1   2
BRANCH   1  13
ATOM     13  C   UNL A   1      -9.313   1.807  34.503  0.00  0.00    +0.293 C 
BRANCH  13  14
ATOM     14  C   UNL A   1     -10.487   1.631  33.897  0.00  0.00    +0.274 C 
ATOM     15  O   UNL A   1     -10.632   1.509  32.777  0.00  0.00    -0.271 OA
ATOM     16  N   UNL A   1     -11.636   1.598  34.725  0.00  0.00    -0.253 N 
ATOM     17  C   UNL A   1     -12.967   1.417  34.228  0.00  0.00    +0.120 C 
BRANCH  16  18
ATOM     18  C   UNL A   1     -11.539   1.812  36.194  0.00  0.00    +0.068 C 
ATOM     19  C   UNL A   1     -11.835   0.864  36.868  0.00  0.00    +0.016 C 
BRANCH  19  20
ATOM     20  C   UNL A   1     -11.628   1.010  38.267  0.00  0.00    +0.001 C 
ATOM     21  C   UNL A   1     -11.292  -0.094  39.150  0.00  0.00    +0.000 C 
BRANCH  21  22
ATOM     22  C   UNL A   1     -11.243  -1.335  38.490  0.00  0.00    +0.000 C 
ATOM     23  C   UNL A   1     -12.053  -2.379  38.789  0.00  0.00    +0.000 C 
ENDBRANCH  21  22
ENDBRANCH  19  20
ENDBRANCH  16  18
ENDBRANCH  13  14
ENDBRANCH   1  13
TORSDOF 8
ENDMDL
ENDMDL
