MODEL 3151
MODEL 1
REMARK VINA RESULT:    -6.079      0.000      0.000
REMARK INTER + INTRA:          -6.951
REMARK INTER:                  -6.790
REMARK INTRA:                  -0.161
REMARK UNBOUND:                -0.161
REMARK  Name = No_3151-gen_results/8p0m/2024-11-27-11-27-31/
REMARK  2 active torsions:
REMARK  status: ('A' for Active; 'I' for Inactive)
REMARK    1  A    between atoms: C_1  and  N_12
REMARK    2  A    between atoms: N_12  and  C_13
REMARK                            x       y       z     vdW  Elec       q    Type
REMARK                         _______ _______ _______ _____ _____    ______ ____
ROOT
ATOM      1  C   UNL A   1     -25.322  -2.229  29.126  0.00  0.00    +0.077 C 
ATOM      2  C   UNL A   1     -24.551  -1.392  28.718  0.00  0.00    -0.023 C 
ATOM      3  C   UNL A   1     -23.553  -0.794  29.469  0.00  0.00    +0.028 C 
ATOM      4  C   UNL A   1     -22.673   0.263  29.033  0.00  0.00    +0.030 C 
ATOM      5  C   UNL A   1     -22.811   0.757  27.714  0.00  0.00    -0.025 A 
ATOM      6  C   UNL A   1     -22.027   1.811  27.190  0.00  0.00    -0.005 A 
ATOM      7  C   UNL A   1     -22.305   2.251  25.899  0.00  0.00    -0.000 A 
ATOM      8  C   UNL A   1     -23.628   2.171  25.557  0.00  0.00    -0.000 A 
ATOM      9  C   UNL A   1     -24.567   1.259  26.066  0.00  0.00    -0.004 A 
ATOM     10  C   UNL A   1     -24.186   0.586  27.214  0.00  0.00    -0.022 A 
ATOM     11  C   UNL A   1     -24.884  -0.566  27.511  0.00  0.00    +0.049 C 
ENDROOT
BRANCH   1  12
ATOM     12  N   UNL A   1     -24.720  -3.353  29.623  0.00  0.00    -0.210 NA
BRANCH  12  13
ATOM     13  C   UNL A   1     -24.233  -4.332  28.839  0.00  0.00    +0.086 C 
ATOM     14  C   UNL A   1     -24.853  -5.625  28.913  0.00  0.00    +0.019 C 
ENDBRANCH  12  13
ENDBRANCH   1  12
TORSDOF 2
ENDMDL
ENDMDL
