MODEL 3152
MODEL 1
REMARK VINA RESULT:    -5.535      0.000      0.000
REMARK INTER + INTRA:          -6.103
REMARK INTER:                  -5.858
REMARK INTRA:                  -0.245
REMARK UNBOUND:                -0.245
REMARK  Name = No_3152-gen_results/8p0m/2024-11-27-11-27-31/
REMARK  1 active torsions:
REMARK  status: ('A' for Active; 'I' for Inactive)
REMARK    1  A    between atoms: C_2  and  C_8
REMARK                            x       y       z     vdW  Elec       q    Type
REMARK                         _______ _______ _______ _____ _____    ______ ____
ROOT
ATOM      1  C   UNL A   1     -25.621  -1.236  29.570  0.00  0.00    +0.002 A 
ATOM      2  C   UNL A   1     -24.648  -1.759  29.078  0.00  0.00    +0.018 A 
ATOM      3  C   UNL A   1     -24.442  -3.124  28.978  0.00  0.00    +0.002 A 
ATOM      4  C   UNL A   1     -25.476  -3.974  29.470  0.00  0.00    +0.007 A 
ATOM      5  C   UNL A   1     -26.607  -3.360  29.873  0.00  0.00    +0.035 A 
ATOM      6  C   UNL A   1     -26.735  -2.032  29.846  0.00  0.00    +0.007 A 
ATOM      7 BR   UNL A   1     -27.981  -4.484  30.441  0.00  0.00    -0.049 Br
ENDROOT
BRANCH   2   8
ATOM      8  C   UNL A   1     -23.375  -0.902  28.647  0.00  0.00    +0.081 A 
ATOM      9  C   UNL A   1     -23.544   0.242  28.008  0.00  0.00    +0.019 A 
ATOM     10  C   UNL A   1     -22.560   1.114  27.665  0.00  0.00    +0.003 A 
ATOM     11  C   UNL A   1     -21.265   0.802  28.120  0.00  0.00    +0.021 A 
ATOM     12  N   UNL A   1     -22.114  -1.183  28.992  0.00  0.00    -0.244 NA
ATOM     13  C   UNL A   1     -21.196  -0.497  28.888  0.00  0.00    +0.099 A 
ENDBRANCH   2   8
TORSDOF 1
ENDMDL
ENDMDL
