MODEL 3153
MODEL 1
REMARK VINA RESULT:    -7.820      0.000      0.000
REMARK INTER + INTRA:         -10.263
REMARK INTER:                  -9.192
REMARK INTRA:                  -1.071
REMARK UNBOUND:                -1.071
REMARK  Name = No_3153-gen_results/8p0m/2024-11-27-11-27-31/
REMARK  3 active torsions:
REMARK  status: ('A' for Active; 'I' for Inactive)
REMARK    1  A    between atoms: C_6  and  N_12
REMARK    2  A    between atoms: C_20  and  C_25
REMARK    3  A    between atoms: C_29  and  C_31
REMARK                            x       y       z     vdW  Elec       q    Type
REMARK                         _______ _______ _______ _____ _____    ______ ____
ROOT
ATOM      1  C   UNL A   1     -25.582  -0.661  28.068  0.00  0.00    +0.011 A 
ATOM      2  C   UNL A   1     -25.780   0.532  28.099  0.00  0.00    -0.007 A 
ATOM      3  C   UNL A   1     -25.646   1.306  29.250  0.00  0.00    +0.047 A 
ATOM      4  C   UNL A   1     -25.306   0.658  30.502  0.00  0.00    +0.016 A 
ATOM      5  C   UNL A   1     -25.106  -0.720  30.425  0.00  0.00    +0.016 A 
ATOM      6  C   UNL A   1     -25.266  -1.377  29.293  0.00  0.00    +0.048 A 
ATOM      7  N   UNL A   1     -25.857   2.686  29.351  0.00  0.00    -0.290 N 
ATOM      8  C   UNL A   1     -25.821   3.517  28.361  0.00  0.00    +0.025 C 
ATOM      9  C   UNL A   1     -25.931   4.926  28.621  0.00  0.00    -0.014 C 
ATOM     10  C   UNL A   1     -26.043   3.425  30.592  0.00  0.00    +0.100 C 
ATOM     11  C   UNL A   1     -26.098   4.898  30.159  0.00  0.00    +0.049 C 
ATOM     12  C   UNL A   1     -25.567   3.175  26.947  0.00  0.00    +0.046 C 
ATOM     13  C   UNL A   1     -25.925   1.294  26.847  0.00  0.00    +0.034 C 
ATOM     14  C   UNL A   1     -27.264   1.310  26.239  0.00  0.00    +0.084 C 
ATOM     15  C   UNL A   1     -24.858   0.891  25.793  0.00  0.00    +0.005 C 
ATOM     16  C   UNL A   1     -25.290   0.102  24.719  0.00  0.00    +0.000 C 
ATOM     17  C   UNL A   1     -27.666   0.421  25.299  0.00  0.00    +0.010 C 
ATOM     18  C   UNL A   1     -26.631  -0.039  24.439  0.00  0.00    +0.001 C 
ENDROOT
BRANCH  14  19
ATOM     19  C   UNL A   1     -28.376   1.877  27.101  0.00  0.00    +0.241 C 
ATOM     20  O   UNL A   1     -28.844   1.484  27.959  0.00  0.00    -0.272 OA
ATOM     21  N   UNL A   1     -28.962   2.971  26.419  0.00  0.00    -0.275 N 
ATOM     22  C   UNL A   1     -30.038   3.734  27.044  0.00  0.00    +0.087 A 
ATOM     23  C   UNL A   1     -30.032   5.040  26.586  0.00  0.00    +0.074 A 
ATOM     24  C   UNL A   1     -28.430   3.687  25.314  0.00  0.00    +0.083 A 
ATOM     25  C   UNL A   1     -28.990   5.251  25.539  0.00  0.00    +0.025 A 
BRANCH  23  26
ATOM     26  C   UNL A   1     -30.942   6.003  26.809  0.00  0.00    +0.266 C 
ATOM     27  O   UNL A   1     -31.914   6.273  25.996  0.00  0.00    -0.268 OA
ATOM     28  N   UNL A   1     -30.751   6.961  27.809  0.00  0.00    -0.200 NA
ATOM     29  C   UNL A   1     -29.731   6.926  28.734  0.00  0.00    +0.139 C 
ENDBRANCH  23  26
ENDBRANCH  14  19
BRANCH   6  30
ATOM     30  N   UNL A   1     -25.083  -2.760  29.293  0.00  0.00    -0.307 N 
ATOM     31  C   UNL A   1     -24.053  -3.324  28.716  0.00  0.00    +0.091 C 
ATOM     32  C   UNL A   1     -24.090  -4.803  28.592  0.00  0.00    +0.021 C 
ATOM     33  C   UNL A   1     -24.867  -5.421  29.073  0.00  0.00    +0.004 C 
ATOM     34  C   UNL A   1     -26.085  -4.880  29.696  0.00  0.00    +0.021 C 
ATOM     35  C   UNL A   1     -26.091  -3.587  29.608  0.00  0.00    +0.091 C 
ENDBRANCH   6  30
TORSDOF 3
ENDMDL
ENDMDL
