MODEL 3154
MODEL 1
REMARK VINA RESULT:    -6.313      0.000      0.000
REMARK INTER + INTRA:          -7.896
REMARK INTER:                  -7.420
REMARK INTRA:                  -0.476
REMARK UNBOUND:                -0.476
REMARK  Name = No_3154-gen_results/8p0m/2024-11-27-11-27-31/
REMARK  3 active torsions:
REMARK  status: ('A' for Active; 'I' for Inactive)
REMARK    1  A    between atoms: C_3  and  C_11
REMARK    2  A    between atoms: C_5  and  C_6
REMARK    3  A    between atoms: C_12  and  C_13
REMARK                            x       y       z     vdW  Elec       q    Type
REMARK                         _______ _______ _______ _____ _____    ______ ____
ROOT
ATOM      1  C   UNL A   1     -23.719  -0.020  31.347  0.00  0.00    +0.000 A 
ATOM      2  C   UNL A   1     -22.928   0.417  30.544  0.00  0.00    +0.000 A 
ATOM      3  C   UNL A   1     -22.482  -0.254  29.418  0.00  0.00    +0.000 A 
ATOM      4  C   UNL A   1     -23.025  -1.551  29.178  0.00  0.00    +0.005 A 
ATOM      5  C   UNL A   1     -24.015  -1.946  29.994  0.00  0.00    +0.055 A 
ATOM      6  C   UNL A   1     -24.357  -1.233  31.066  0.00  0.00    +0.005 A 
ENDROOT
BRANCH   5   7
ATOM      7  C   UNL A   1     -24.603  -3.203  29.690  0.00  0.00    +0.265 C 
ATOM      8  N   UNL A   1     -24.075  -4.101  29.178  0.00  0.00    -0.200 NA
ATOM      9  O   UNL A   1     -25.892  -3.391  29.953  0.00  0.00    -0.268 OA
ATOM     10  C   UNL A   1     -24.592  -5.484  28.822  0.00  0.00    +0.139 C 
ENDBRANCH   5   7
BRANCH   3  11
ATOM     11  C   UNL A   1     -21.369   0.287  28.533  0.00  0.00    -0.000 C 
ATOM     12  C   UNL A   1     -21.730   1.226  27.618  0.00  0.00    -0.000 C 
BRANCH  12  13
ATOM     13  C   UNL A   1     -22.817   1.921  27.520  0.00  0.00    -0.005 C 
ATOM     14  C   UNL A   1     -23.408   2.398  26.254  0.00  0.00    -0.026 C 
ATOM     15  C   UNL A   1     -22.580   2.299  25.155  0.00  0.00    +0.031 C 
ENDBRANCH  12  13
ENDBRANCH   3  11
TORSDOF 3
ENDMDL
ENDMDL
