REMARK  Name = outputs/IAG933/test6/raw/output_3154_IAG933_linker_design_.xyz
REMARK  11 active torsions:
REMARK  status: ('A' for Active; 'I' for Inactive)
REMARK    1  A    between atoms: C_1  and  C_2
REMARK    2  A    between atoms: C_1  and  C_8
REMARK    3  A    between atoms: C_1  and  N_29
REMARK    4  A    between atoms: C_13  and  C_34
REMARK    5  A    between atoms: C_14  and  C_15
REMARK    6  A    between atoms: C_21  and  O_22
REMARK    7  A    between atoms: O_22  and  C_23
REMARK    8  A    between atoms: C_23  and  C_24
REMARK    9  A    between atoms: C_24  and  O_25
REMARK   10  A    between atoms: O_25  and  C_48
REMARK   11  A    between atoms: O_37  and  C_54
REMARK                            x       y       z     vdW  Elec       q    Type
REMARK                         _______ _______ _______ _____ _____    ______ ____
ROOT
ATOM      1  C   UNL A   1     -25.688   1.614  26.461  0.00  0.00    +0.112 C 
ATOM      2  C   UNL A   1     -26.250   2.920  26.395  0.00  0.00    +0.060 C 
ATOM      3  C   UNL A   1     -27.438   3.091  25.645  0.00  0.00    +0.102 C 
ATOM      4  N   UNL A   1     -28.075   2.089  25.003  0.00  0.00    -0.212 NA
ATOM      5  C   UNL A   1     -27.543   0.849  25.079  0.00  0.00    +0.234 C 
ATOM      6  C   UNL A   1     -26.354   0.576  25.777  0.00  0.00    +0.245 C 
ATOM      7  F   UNL A   1     -25.860  -0.681  25.795  0.00  0.00    -0.227 F 
ENDROOT
BRANCH   1  10
ATOM      8  N   UNL A   1     -24.462   0.043  29.202  0.00  0.00    -0.216 N 
ATOM      9  C   UNL A   1     -22.680   1.102  28.008  0.00  0.00    +0.029 C 
ATOM     10  C   UNL A   1     -24.989   1.261  27.346  0.00  0.00    +0.106 C 
ATOM     11  N   UNL A   1     -25.311   0.516  28.360  0.00  0.00    -0.148 NA
ATOM     12  C   UNL A   1     -23.170   0.376  29.074  0.00  0.00    +0.081 C 
ATOM     13  C   UNL A   1     -21.219   1.465  27.796  0.00  0.00    +0.036 C 
ATOM     14  C   UNL A   1     -23.702   1.443  27.111  0.00  0.00    +0.149 C 
BRANCH  14  15
ATOM     15  O   UNL A   1     -23.382   1.951  25.941  0.00  0.00    -0.471 OA
ATOM     16  C   UNL A   1     -23.816   1.238  24.797  0.00  0.00    +0.253 C 
ENDBRANCH  14  15
BRANCH   8  17
ATOM     17  C   UNL A   1     -24.855  -1.012  30.143  0.00  0.00    +0.132 C 
BRANCH  17  18
ATOM     18  C   UNL A   1     -24.973  -2.505  29.788  0.00  0.00    -0.001 C 
ATOM     19  C   UNL A   1     -23.906  -3.173  29.146  0.00  0.00    -0.003 C 
ATOM     20  C   UNL A   1     -23.989  -4.549  28.853  0.00  0.00    -0.000 C 
ATOM     21  C   UNL A   1     -25.137  -5.280  29.205  0.00  0.00    -0.000 C 
ATOM     22  C   UNL A   1     -26.232  -4.611  29.784  0.00  0.00    -0.000 C 
ATOM     23  C   UNL A   1     -26.155  -3.232  30.065  0.00  0.00    -0.003 C 
ENDBRANCH  17  18
BRANCH  17  24
ATOM     24  C   UNL A   1     -25.387  -0.679  31.571  0.00  0.00    +0.097 C 
ATOM     25  C   UNL A   1     -25.189   0.773  32.028  0.00  0.00    +0.021 C 
ATOM     26  C   UNL A   1     -25.336   0.684  33.544  0.00  0.00    +0.020 C 
ATOM     27  C   UNL A   1     -24.829  -0.715  33.905  0.00  0.00    +0.089 C 
ATOM     28  N   UNL A   1     -24.758  -1.481  32.646  0.00  0.00    -0.217 NA
ENDBRANCH  17  24
ENDBRANCH   8  17
ENDBRANCH   1  10
BRANCH   2  29
ATOM     29  C   UNL A   1     -25.642   4.093  27.123  0.00  0.00    +0.263 C 
ATOM     30  N   UNL A   1     -25.614   5.252  26.449  0.00  0.00    -0.200 NA
ATOM     31  C   UNL A   1     -25.026   6.479  26.963  0.00  0.00    +0.139 C 
ATOM     32  O   UNL A   1     -25.143   3.966  28.243  0.00  0.00    -0.269 OA
ENDBRANCH   2  29
BRANCH   5  33
ATOM     33  O   UNL A   1     -28.193  -0.208  24.477  0.00  0.00    -0.459 OA
BRANCH  33  34
ATOM     34  C   UNL A   1     -29.460   0.005  23.866  0.00  0.00    +0.239 C 
BRANCH  34  35
ATOM     35  C   UNL A   1     -30.065  -1.377  23.573  0.00  0.00    +0.195 C 
BRANCH  35  36
ATOM     36  O   UNL A   1     -30.729  -1.878  24.721  0.00  0.00    -0.303 OA
BRANCH  36  49
ATOM     37  N   UNL A   1     -29.902   1.075  27.960  0.00  0.00    -0.106 NA
ATOM     38  C   UNL A   1     -33.265  -0.069  26.743  0.00  0.00    +0.127 C 
ATOM     39  C   UNL A   1     -29.016  -0.532  29.825  0.00  0.00    +0.170 C 
ATOM     40  C   UNL A   1     -32.239   1.104  26.639  0.00  0.00    +0.077 C 
ATOM     41  C   UNL A   1     -28.792   0.262  28.585  0.00  0.00    +0.139 C 
ATOM     42  C   UNL A   1     -28.949   0.547  32.208  0.00  0.00    +0.003 C 
ATOM     43  O   UNL A   1     -29.257  -1.864  29.425  0.00  0.00    -0.222 OA
ATOM     44  C   UNL A   1     -33.240  -0.679  28.229  0.00  0.00    +0.064 C 
ATOM     45  C   UNL A   1     -31.177   0.395  27.568  0.00  0.00    +0.197 C 
ATOM     46  O   UNL A   1     -32.689   1.517  29.101  0.00  0.00    -0.222 OA
ATOM     47  C   UNL A   1     -30.924  -0.651  31.333  0.00  0.00    +0.005 C 
ATOM     48  C   UNL A   1     -32.130   0.137  28.846  0.00  0.00    +0.167 C 
ATOM     49  C   UNL A   1     -31.415  -1.120  25.587  0.00  0.00    +0.376 C 
ATOM     50  O   UNL A   1     -30.760  -0.858  26.861  0.00  0.00    -0.293 OA
ATOM     51  C   UNL A   1     -29.515  -0.308  31.115  0.00  0.00    +0.032 C 
ATOM     52  O   UNL A   1     -32.812  -0.983  25.712  0.00  0.00    -0.309 OA
ATOM     53  C   UNL A   1     -31.716  -0.242  30.249  0.00  0.00    +0.034 C 
ATOM     54  O   UNL A   1     -29.672   2.354  28.132  0.00  0.00    -0.116 OA
ENDBRANCH  36  49
ENDBRANCH  35  36
ENDBRANCH  34  35
ENDBRANCH  33  34
ENDBRANCH   5  33
TORSDOF 11
