MODEL 3155
MODEL 1
REMARK VINA RESULT:    -6.968      0.000      0.000
REMARK INTER + INTRA:          -9.560
REMARK INTER:                  -9.005
REMARK INTRA:                  -0.555
REMARK UNBOUND:                -0.555
REMARK  Name = No_3155-gen_results/8p0m/2024-11-27-11-27-31/
REMARK  5 active torsions:
REMARK  status: ('A' for Active; 'I' for Inactive)
REMARK    1  A    between atoms: C_3  and  C_4
REMARK    2  A    between atoms: C_4  and  N_8
REMARK    3  A    between atoms: C_6  and  C_17
REMARK    4  A    between atoms: N_8  and  C_10
REMARK    5  A    between atoms: C_13  and  C_20
REMARK                            x       y       z     vdW  Elec       q    Type
REMARK                         _______ _______ _______ _____ _____    ______ ____
ROOT
ATOM      1  C   UNL A   1     -23.006  -1.012  28.953  0.00  0.00    +0.261 C 
ATOM      2  F   UNL A   1     -21.729  -1.217  28.902  0.00  0.00    -0.210 F 
ENDROOT
BRANCH   1   5
ATOM      3  C   UNL A   1     -22.669   1.415  28.097  0.00  0.00    +0.000 A 
ATOM      4  C   UNL A   1     -23.023   2.094  27.373  0.00  0.00    +0.000 A 
ATOM      5  C   UNL A   1     -23.384   0.138  28.101  0.00  0.00    +0.029 A 
ATOM      6  C   UNL A   1     -24.068   2.066  26.359  0.00  0.00    +0.007 A 
ATOM      7  C   UNL A   1     -24.774   0.881  26.340  0.00  0.00    +0.080 A 
ATOM      8  C   UNL A   1     -24.418  -0.120  27.165  0.00  0.00    +0.007 A 
BRANCH   7   9
ATOM      9  C   UNL A   1     -25.876   0.690  25.347  0.00  0.00    +0.388 C 
ATOM     10  O   UNL A   1     -26.624   1.392  25.140  0.00  0.00    -0.241 OA
ATOM     11  O   UNL A   1     -25.849  -0.551  24.827  0.00  0.00    -0.241 OA
ENDBRANCH   7   9
ENDBRANCH   1   5
BRANCH   1  12
ATOM     12  N   UNL A   1     -23.570  -1.454  29.742  0.00  0.00    -0.277 N 
ATOM     13  C   UNL A   1     -23.336  -1.159  31.209  0.00  0.00    +0.115 C 
BRANCH  12  14
ATOM     14  C   UNL A   1     -24.430  -2.587  29.683  0.00  0.00    +0.053 A 
ATOM     15  C   UNL A   1     -24.158  -3.824  29.319  0.00  0.00    +0.015 A 
ATOM     16  C   UNL A   1     -25.084  -4.781  29.209  0.00  0.00    +0.001 A 
ATOM     17  C   UNL A   1     -25.851  -2.291  30.117  0.00  0.00    +0.056 A 
ATOM     18  C   UNL A   1     -26.752  -3.338  30.077  0.00  0.00    +0.004 A 
ATOM     19  C   UNL A   1     -26.437  -4.575  29.603  0.00  0.00    +0.000 A 
BRANCH  17  20
ATOM     20  C   UNL A   1     -26.267  -0.996  30.655  0.00  0.00    +0.235 C 
ATOM     21  O   UNL A   1     -26.649   0.102  30.045  0.00  0.00    -0.283 OA
ENDBRANCH  17  20
ENDBRANCH  12  14
ENDBRANCH   1  12
TORSDOF 5
ENDMDL
ENDMDL
