MODEL 3156
MODEL 1
REMARK VINA RESULT:    -6.831      0.000      0.000
REMARK INTER + INTRA:         -11.480
REMARK INTER:                  -9.226
REMARK INTRA:                  -2.254
REMARK UNBOUND:                -2.254
REMARK  Name = No_3156-gen_results/8p0m/2024-11-27-11-27-31/
REMARK  6 active torsions:
REMARK  status: ('A' for Active; 'I' for Inactive)
REMARK    1  A    between atoms: C_5  and  C_11
REMARK    2  A    between atoms: C_7  and  C_18
REMARK    3  A    between atoms: C_8  and  C_14
REMARK    4  A    between atoms: C_18  and  O_20
REMARK    5  A    between atoms: O_20  and  C_22
REMARK    6  A    between atoms: C_22  and  C_23
REMARK                            x       y       z     vdW  Elec       q    Type
REMARK                         _______ _______ _______ _____ _____    ______ ____
ROOT
ATOM      1  C   UNL A   1     -32.219 -12.051  10.599  0.00  0.00    +0.004 A 
ATOM      2  C   UNL A   1     -31.121 -11.620  10.330  0.00  0.00    +0.007 A 
ATOM      3  C   UNL A   1     -30.947 -10.678   9.323  0.00  0.00    +0.006 A 
ATOM      4  C   UNL A   1     -29.651 -10.080   8.891  0.00  0.00    +0.036 A 
ATOM      5  C   UNL A   1     -28.518 -10.399   9.698  0.00  0.00    +0.050 A 
ATOM      6  C   UNL A   1     -28.729 -11.310  10.752  0.00  0.00    +0.008 A 
ATOM      7  C   UNL A   1     -29.914 -11.857  11.058  0.00  0.00    +0.075 A 
ATOM      8  C   UNL A   1     -33.305 -12.072   9.565  0.00  0.00    +0.071 A 
ATOM      9  C   UNL A   1     -33.222 -11.038   8.564  0.00  0.00    +0.004 A 
ATOM     10  C   UNL A   1     -32.003 -10.399   8.348  0.00  0.00    +0.000 A 
ATOM     11 BR   UNL A   1     -29.468  -8.851   7.515  0.00  0.00    -0.049 Br
ENDROOT
BRANCH   8  12
ATOM     12  C   UNL A   1     -34.627 -12.639   9.818  0.00  0.00    +0.419 C 
ATOM     13  F   UNL A   1     -35.474 -11.935   9.901  0.00  0.00    -0.166 F 
ATOM     14  F   UNL A   1     -34.416 -13.340  10.998  0.00  0.00    -0.166 F 
ATOM     15  F   UNL A   1     -34.913 -13.690   9.003  0.00  0.00    -0.166 F 
ENDBRANCH   8  12
BRANCH   5  16
ATOM     16  C   UNL A   1     -27.230  -9.768   9.382  0.00  0.00    +0.342 C 
ATOM     17  F   UNL A   1     -26.518 -10.526   8.706  0.00  0.00    -0.193 F 
ATOM     18  F   UNL A   1     -26.845  -8.706   9.749  0.00  0.00    -0.193 F 
ENDBRANCH   5  16
BRANCH   7  19
ATOM     19  C   UNL A   1     -29.943 -12.779  12.246  0.00  0.00    +0.342 C 
ATOM     20  O   UNL A   1     -30.496 -12.584  13.239  0.00  0.00    -0.245 OA
BRANCH  19  21
ATOM     21  O   UNL A   1     -29.412 -13.973  12.035  0.00  0.00    -0.440 OA
BRANCH  21  22
ATOM     22  C   UNL A   1     -30.125 -15.004  11.839  0.00  0.00    +0.235 C 
BRANCH  22  23
ATOM     23  C   UNL A   1     -30.339 -15.310  10.670  0.00  0.00    +0.021 A 
ATOM     24  C   UNL A   1     -29.422 -15.715   9.745  0.00  0.00    -0.001 A 
ATOM     25  C   UNL A   1     -29.625 -16.066   8.367  0.00  0.00    -0.000 A 
ATOM     26  C   UNL A   1     -30.968 -16.024   7.940  0.00  0.00    -0.000 A 
ATOM     27  C   UNL A   1     -31.992 -15.654   8.712  0.00  0.00    -0.000 A 
ATOM     28  C   UNL A   1     -31.734 -15.335  10.078  0.00  0.00    -0.001 A 
ENDBRANCH  22  23
ENDBRANCH  21  22
ENDBRANCH  19  21
ENDBRANCH   7  19
TORSDOF 6
ENDMDL
ENDMDL
