MODEL 3157
MODEL 1
REMARK VINA RESULT:    -6.280      0.000      0.000
REMARK INTER + INTRA:         -11.966
REMARK INTER:                  -9.584
REMARK INTRA:                  -2.382
REMARK UNBOUND:                -2.382
REMARK  Name = No_3157-gen_results/8p0m/2024-11-27-11-27-31/
REMARK  9 active torsions:
REMARK  status: ('A' for Active; 'I' for Inactive)
REMARK    1  A    between atoms: C_3  and  C_7
REMARK    2  A    between atoms: N_8  and  C_9
REMARK    3  A    between atoms: C_10  and  C_16
REMARK    4  A    between atoms: C_16  and  C_18
REMARK    5  A    between atoms: C_19  and  C_20
REMARK    6  A    between atoms: C_20  and  N_21
REMARK    7  A    between atoms: N_21  and  C_22
REMARK    8  A    between atoms: C_23  and  C_24
REMARK    9  A    between atoms: C_24  and  C_25
REMARK                            x       y       z     vdW  Elec       q    Type
REMARK                         _______ _______ _______ _____ _____    ______ ____
ROOT
ATOM      1  C   UNL A   1     -23.508  -1.749  29.552  0.00  0.00    +0.076 A 
ATOM      2  C   UNL A   1     -24.536  -1.505  30.533  0.00  0.00    +0.043 A 
ATOM      3  C   UNL A   1     -25.785  -2.195  30.574  0.00  0.00    +0.004 A 
ATOM      4  C   UNL A   1     -25.869  -3.297  29.706  0.00  0.00    +0.000 A 
ATOM      5  C   UNL A   1     -23.894  -2.987  28.922  0.00  0.00    +0.017 A 
ATOM      6  C   UNL A   1     -24.977  -3.585  29.091  0.00  0.00    +0.001 A 
ENDROOT
BRANCH   1   8
ATOM      7  C   UNL A   1     -21.949  -0.200  28.750  0.00  0.00    +0.269 C 
ATOM      8  N   UNL A   1     -22.371  -1.099  29.662  0.00  0.00    -0.175 NA
ATOM      9  O   UNL A   1     -20.786   0.261  28.798  0.00  0.00    -0.268 OA
BRANCH   7  12
ATOM     10  C   UNL A   1     -22.257   1.727  27.324  0.00  0.00    +0.005 A 
ATOM     11  C   UNL A   1     -22.783   2.198  26.542  0.00  0.00    +0.000 A 
ATOM     12  C   UNL A   1     -22.875   0.473  27.771  0.00  0.00    +0.055 A 
ATOM     13  C   UNL A   1     -24.078   0.077  27.351  0.00  0.00    +0.005 A 
ATOM     14  C   UNL A   1     -24.080   1.977  25.950  0.00  0.00    +0.000 A 
ATOM     15  C   UNL A   1     -24.649   0.821  26.396  0.00  0.00    +0.000 A 
ENDBRANCH   7  12
ENDBRANCH   1   8
BRANCH   2  16
ATOM     16  C   UNL A   1     -24.482  -0.257  31.364  0.00  0.00    +0.145 C 
ATOM     17  N   UNL A   1     -24.515  -0.364  32.607  0.00  0.00    -0.139 NA
BRANCH  16  18
ATOM     18  C   UNL A   1     -24.852   1.015  30.863  0.00  0.00    -0.042 C 
ATOM     19  C   UNL A   1     -25.143   2.098  30.683  0.00  0.00    -0.061 C 
BRANCH  19  20
ATOM     20  C   UNL A   1     -25.676   3.306  30.059  0.00  0.00    +0.188 C 
BRANCH  20  21
ATOM     21  N   UNL A   1     -25.623   4.051  29.057  0.00  0.00    -0.222 NA
BRANCH  21  22
ATOM     22  C   UNL A   1     -26.232   3.687  28.068  0.00  0.00    +0.077 C 
ATOM     23  C   UNL A   1     -27.280   3.089  27.935  0.00  0.00    -0.004 C 
BRANCH  23  24
ATOM     24  C   UNL A   1     -27.951   2.611  26.733  0.00  0.00    +0.053 C 
BRANCH  24  25
ATOM     25  C   UNL A   1     -27.697   3.012  25.482  0.00  0.00    -0.026 C 
ATOM     26  C   UNL A   1     -27.653   2.066  24.436  0.00  0.00    -0.030 C 
ATOM     27  C   UNL A   1     -28.029   0.765  24.764  0.00  0.00    +0.030 C 
ENDBRANCH  24  25
ENDBRANCH  23  24
ENDBRANCH  21  22
ENDBRANCH  20  21
ENDBRANCH  19  20
ENDBRANCH  16  18
ENDBRANCH   2  16
TORSDOF 9
ENDMDL
ENDMDL
