REMARK  Name = outputs/IAG933/test6/raw/output_3157_IAG933_linker_design_.xyz
REMARK  11 active torsions:
REMARK  status: ('A' for Active; 'I' for Inactive)
REMARK    1  A    between atoms: C_1  and  C_2
REMARK    2  A    between atoms: C_1  and  C_8
REMARK    3  A    between atoms: C_1  and  N_43
REMARK    4  A    between atoms: C_13  and  C_40
REMARK    5  A    between atoms: C_14  and  C_15
REMARK    6  A    between atoms: C_21  and  O_22
REMARK    7  A    between atoms: O_22  and  C_23
REMARK    8  A    between atoms: C_23  and  C_24
REMARK    9  A    between atoms: C_28  and  C_34
REMARK   10  A    between atoms: C_28  and  C_36
REMARK   11  A    between atoms: C_30  and  C_33
REMARK                            x       y       z     vdW  Elec       q    Type
REMARK                         _______ _______ _______ _____ _____    ______ ____
ROOT
ATOM      1  C   UNL A   1     -21.274   1.369  27.568  0.00  0.00    +0.001 C 
ATOM      2  C   UNL A   1     -23.696   1.194  27.714  0.00  0.00    +0.014 A 
ATOM      3  C   UNL A   1     -22.529   1.601  27.059  0.00  0.00    +0.042 C 
ATOM      4  C   UNL A   1     -25.753   0.411  28.445  0.00  0.00    +0.041 A 
ATOM      5  C   UNL A   1     -21.226   0.640  28.715  0.00  0.00    +0.001 C 
ATOM      6  C   UNL A   1     -22.359   0.176  29.360  0.00  0.00    +0.017 C 
ATOM      7  C   UNL A   1     -23.605   0.462  28.816  0.00  0.00    +0.059 A 
ATOM      8  C   UNL A   1     -25.026   1.164  27.441  0.00  0.00    -0.002 A 
ATOM      9  N   UNL A   1     -24.828  -0.016  29.129  0.00  0.00    -0.327 N 
ENDROOT
BRANCH   8  10
ATOM     10  C   UNL A   1     -25.688   1.614  26.461  0.00  0.00    +0.093 C 
ATOM     11  C   UNL A   1     -26.250   2.920  26.395  0.00  0.00    +0.059 C 
ATOM     12  C   UNL A   1     -27.438   3.091  25.645  0.00  0.00    +0.102 C 
ATOM     13  N   UNL A   1     -28.075   2.089  25.003  0.00  0.00    -0.212 NA
ATOM     14  C   UNL A   1     -27.543   0.849  25.079  0.00  0.00    +0.234 C 
ATOM     15  C   UNL A   1     -26.354   0.576  25.777  0.00  0.00    +0.244 C 
ATOM     16  F   UNL A   1     -25.860  -0.681  25.795  0.00  0.00    -0.227 F 
BRANCH  11  17
ATOM     17  C   UNL A   1     -25.642   4.093  27.123  0.00  0.00    +0.263 C 
ATOM     18  N   UNL A   1     -25.614   5.252  26.449  0.00  0.00    -0.200 NA
ATOM     19  C   UNL A   1     -25.026   6.479  26.963  0.00  0.00    +0.139 C 
ATOM     20  O   UNL A   1     -25.143   3.966  28.243  0.00  0.00    -0.269 OA
ENDBRANCH  11  17
BRANCH  14  21
ATOM     21  O   UNL A   1     -28.193  -0.208  24.477  0.00  0.00    -0.459 OA
BRANCH  21  22
ATOM     22  C   UNL A   1     -29.460   0.005  23.866  0.00  0.00    +0.242 C 
BRANCH  22  23
ATOM     23  C   UNL A   1     -30.065  -1.377  23.573  0.00  0.00    +0.229 C 
ATOM     24  O   UNL A   1     -30.729  -1.878  24.721  0.00  0.00    -0.216 OA
ENDBRANCH  22  23
ENDBRANCH  21  22
ENDBRANCH  14  21
ENDBRANCH   8  10
BRANCH   3  25
ATOM     25  C   UNL A   1     -22.483   2.109  25.650  0.00  0.00    +0.332 C 
ATOM     26  O   UNL A   1     -23.569   1.688  24.852  0.00  0.00    -0.179 OA
ATOM     27  F   UNL A   1     -21.288   1.717  25.053  0.00  0.00    -0.196 F 
ENDBRANCH   3  25
BRANCH   9  28
ATOM     28  C   UNL A   1     -24.855  -1.012  30.143  0.00  0.00    +0.123 C 
BRANCH  28  29
ATOM     29  C   UNL A   1     -24.973  -2.505  29.788  0.00  0.00    -0.000 C 
ATOM     30  C   UNL A   1     -23.906  -3.173  29.146  0.00  0.00    -0.002 C 
ATOM     31  C   UNL A   1     -23.989  -4.549  28.853  0.00  0.00    -0.000 C 
ATOM     32  C   UNL A   1     -25.137  -5.280  29.205  0.00  0.00    -0.000 C 
ATOM     33  C   UNL A   1     -26.232  -4.611  29.784  0.00  0.00    -0.000 C 
ATOM     34  C   UNL A   1     -26.155  -3.232  30.065  0.00  0.00    -0.002 C 
ENDBRANCH  28  29
BRANCH  28  35
ATOM     35  C   UNL A   1     -25.387  -0.679  31.571  0.00  0.00    +0.098 C 
ATOM     36  C   UNL A   1     -25.189   0.773  32.028  0.00  0.00    +0.021 C 
ATOM     37  C   UNL A   1     -25.336   0.684  33.544  0.00  0.00    +0.020 C 
ATOM     38  C   UNL A   1     -24.829  -0.715  33.905  0.00  0.00    +0.089 C 
ATOM     39  N   UNL A   1     -24.758  -1.481  32.646  0.00  0.00    -0.217 NA
ENDBRANCH  28  35
ENDBRANCH   9  28
BRANCH   4  40
ATOM     40  C   UNL A   1     -27.135   0.133  28.445  0.00  0.00    +0.108 C 
BRANCH  40  42
ATOM     41  C   UNL A   1     -29.555  -0.060  28.692  0.00  0.00    +0.073 C 
ATOM     42  C   UNL A   1     -28.225   0.613  29.195  0.00  0.00    +0.157 C 
ATOM     43  O   UNL A   1     -28.223   1.407  30.175  0.00  0.00    -0.296 OA
ENDBRANCH  40  42
ENDBRANCH   4  40
TORSDOF 11
