MODEL 3158
MODEL 1
REMARK VINA RESULT:    -5.245      0.000      0.000
REMARK INTER + INTRA:          -6.208
REMARK INTER:                  -5.858
REMARK INTRA:                  -0.350
REMARK UNBOUND:                -0.350
REMARK  Name = No_3158-gen_results/8p0m/2024-11-27-11-27-31/
REMARK  2 active torsions:
REMARK  status: ('A' for Active; 'I' for Inactive)
REMARK    1  A    between atoms: C_3  and  C_4
REMARK    2  A    between atoms: C_4  and  C_8
REMARK                            x       y       z     vdW  Elec       q    Type
REMARK                         _______ _______ _______ _____ _____    ______ ____
ROOT
ATOM      1  C   UNL A   1     -26.351  -4.245  29.707  0.00  0.00    -0.000 A 
ATOM      2  C   UNL A   1     -26.020  -3.081  29.706  0.00  0.00    -0.004 A 
ATOM      3  C   UNL A   1     -24.819  -2.677  29.133  0.00  0.00    -0.018 A 
ATOM      4  C   UNL A   1     -25.391  -5.281  29.320  0.00  0.00    -0.000 A 
ATOM      5  C   UNL A   1     -24.228  -4.974  28.658  0.00  0.00    -0.000 A 
ATOM      6  C   UNL A   1     -23.890  -3.622  28.557  0.00  0.00    -0.004 A 
ENDROOT
BRANCH   3   7
ATOM      7  C   UNL A   1     -24.419  -1.318  29.041  0.00  0.00    +0.052 C 
BRANCH   7   8
ATOM      8  C   UNL A   1     -23.111  -0.864  28.966  0.00  0.00    -0.026 C 
ATOM      9  C   UNL A   1     -22.378  -0.575  30.113  0.00  0.00    -0.030 C 
ATOM     10  C   UNL A   1     -23.087  -0.518  31.400  0.00  0.00    +0.030 C 
ENDBRANCH   7   8
ENDBRANCH   3   7
TORSDOF 2
ENDMDL
ENDMDL
