MODEL 315
MODEL 1
REMARK VINA RESULT:    -6.594      0.000      0.000
REMARK INTER + INTRA:          -9.255
REMARK INTER:                  -8.521
REMARK INTRA:                  -0.734
REMARK UNBOUND:                -0.734
REMARK  Name = No_315-gen_results/8p0m/2024-11-27-11-27-31/
REMARK  5 active torsions:
REMARK  status: ('A' for Active; 'I' for Inactive)
REMARK    1  A    between atoms: C_1  and  C_2
REMARK    2  A    between atoms: C_1  and  C_8
REMARK    3  A    between atoms: C_5  and  C_14
REMARK    4  A    between atoms: C_11  and  N_18
REMARK    5  A    between atoms: C_19  and  C_20
REMARK                            x       y       z     vdW  Elec       q    Type
REMARK                         _______ _______ _______ _____ _____    ______ ____
ROOT
ATOM      1  C   UNL A   1     -23.835   1.955  26.332  0.00  0.00    +0.054 C 
ENDROOT
BRANCH   1   2
ATOM      2  C   UNL A   1     -24.789   1.513  25.734  0.00  0.00    -0.018 A 
ATOM      3  C   UNL A   1     -26.051   2.082  25.716  0.00  0.00    -0.004 A 
ATOM      4  C   UNL A   1     -27.225   1.536  25.079  0.00  0.00    +0.004 A 
ATOM      5  C   UNL A   1     -27.225   0.521  24.689  0.00  0.00    +0.071 A 
ATOM      6  C   UNL A   1     -26.037  -0.349  24.551  0.00  0.00    +0.004 A 
ATOM      7  C   UNL A   1     -24.921   0.196  25.134  0.00  0.00    -0.004 A 
BRANCH   5   8
ATOM      8  C   UNL A   1     -28.438  -0.217  23.998  0.00  0.00    +0.419 C 
ATOM      9  F   UNL A   1     -28.729   0.253  22.996  0.00  0.00    -0.166 F 
ATOM     10  F   UNL A   1     -28.160  -1.579  23.712  0.00  0.00    -0.166 F 
ATOM     11  F   UNL A   1     -29.506  -0.363  24.825  0.00  0.00    -0.166 F 
ENDBRANCH   5   8
ENDBRANCH   1   2
BRANCH   1  12
ATOM     12  C   UNL A   1     -23.486   1.251  27.593  0.00  0.00    +0.002 A 
ATOM     13  C   UNL A   1     -22.385   0.895  27.793  0.00  0.00    +0.001 A 
ATOM     14  C   UNL A   1     -22.102   0.218  29.036  0.00  0.00    +0.038 A 
ATOM     15  C   UNL A   1     -23.080   0.168  30.004  0.00  0.00    +0.162 A 
ATOM     16  C   UNL A   1     -24.577   1.016  28.632  0.00  0.00    +0.097 A 
ATOM     17  N   UNL A   1     -24.285   0.501  29.752  0.00  0.00    -0.225 NA
BRANCH  15  18
ATOM     18  N   UNL A   1     -22.830  -0.541  31.218  0.00  0.00    -0.225 NA
ATOM     19  C   UNL A   1     -23.733  -0.592  32.185  0.00  0.00    +0.100 C 
BRANCH  19  20
ATOM     20  C   UNL A   1     -23.468  -1.449  33.261  0.00  0.00    +0.016 C 
ATOM     21  C   UNL A   1     -24.169  -1.262  34.466  0.00  0.00    -0.024 C 
ATOM     22  C   UNL A   1     -25.234  -0.376  34.498  0.00  0.00    +0.031 C 
ENDBRANCH  19  20
ENDBRANCH  15  18
ENDBRANCH   1  12
TORSDOF 5
ENDMDL
ENDMDL
