MODEL 3160
MODEL 1
REMARK VINA RESULT:    -8.268      0.000      0.000
REMARK INTER + INTRA:         -11.235
REMARK INTER:                  -9.718
REMARK INTRA:                  -1.516
REMARK UNBOUND:                -1.516
REMARK  Name = No_3160-gen_results/8p0m/2024-11-27-11-27-31/
REMARK  3 active torsions:
REMARK  status: ('A' for Active; 'I' for Inactive)
REMARK    1  A    between atoms: N_6  and  C_7
REMARK    2  A    between atoms: C_13  and  C_18
REMARK    3  A    between atoms: C_20  and  C_25
REMARK                            x       y       z     vdW  Elec       q    Type
REMARK                         _______ _______ _______ _____ _____    ______ ____
ROOT
ATOM      1  C   UNL A   1     -25.616   0.489  31.425  0.00  0.00    +0.054 A 
ATOM      2  C   UNL A   1     -25.167   1.304  30.850  0.00  0.00    +0.014 A 
ATOM      3  C   UNL A   1     -24.927   2.663  31.322  0.00  0.00    +0.001 A 
ATOM      4  C   UNL A   1     -25.286   2.925  32.657  0.00  0.00    +0.000 A 
ATOM      5  C   UNL A   1     -26.036   0.647  32.878  0.00  0.00    +0.015 A 
ATOM      6  C   UNL A   1     -25.866   1.879  33.415  0.00  0.00    +0.001 A 
ENDROOT
BRANCH   1  12
ATOM      7  O   UNL A   1     -28.082  -0.388  30.886  0.00  0.00    -0.266 OA
ATOM      8  C   UNL A   1     -27.268  -1.304  30.724  0.00  0.00    +0.292 C 
ATOM      9  C   UNL A   1     -27.250  -2.392  30.390  0.00  0.00    +0.249 C 
ATOM     10  C   UNL A   1     -26.096  -3.296  30.017  0.00  0.00    +0.041 A 
ATOM     11  C   UNL A   1     -26.150  -4.610  29.507  0.00  0.00    +0.003 A 
ATOM     12  N   UNL A   1     -25.773  -0.855  30.984  0.00  0.00    -0.248 N 
ATOM     13  C   UNL A   1     -25.034  -5.223  28.945  0.00  0.00    +0.000 A 
ATOM     14  C   UNL A   1     -23.957  -4.422  28.669  0.00  0.00    -0.000 A 
ATOM     15  C   UNL A   1     -23.866  -3.108  28.994  0.00  0.00    -0.003 A 
ATOM     16  C   UNL A   1     -24.960  -2.504  29.619  0.00  0.00    +0.001 A 
ATOM     17  C   UNL A   1     -24.695  -1.679  30.909  0.00  0.00    +0.125 C 
ATOM     18  O   UNL A   1     -28.442  -3.048  30.113  0.00  0.00    -0.282 OA
ENDBRANCH   1  12
BRANCH   2  19
ATOM     19  C   UNL A   1     -24.719   1.193  29.354  0.00  0.00    +0.001 A 
ATOM     20  C   UNL A   1     -25.594   0.982  28.335  0.00  0.00    +0.004 A 
ATOM     21  C   UNL A   1     -25.130   0.837  27.095  0.00  0.00    +0.071 A 
ATOM     22  C   UNL A   1     -23.730   0.658  26.814  0.00  0.00    +0.004 A 
ATOM     23  C   UNL A   1     -23.297   1.200  29.113  0.00  0.00    +0.000 A 
ATOM     24  C   UNL A   1     -22.831   0.978  27.862  0.00  0.00    -0.000 A 
BRANCH  21  25
ATOM     25  C   UNL A   1     -26.038   0.503  25.975  0.00  0.00    +0.419 C 
ATOM     26  F   UNL A   1     -26.950   0.015  26.628  0.00  0.00    -0.166 F 
ATOM     27  F   UNL A   1     -25.511  -0.362  25.094  0.00  0.00    -0.166 F 
ATOM     28  F   UNL A   1     -26.301   1.534  25.254  0.00  0.00    -0.166 F 
ENDBRANCH  21  25
ENDBRANCH   2  19
TORSDOF 3
ENDMDL
ENDMDL
