MODEL 3161
MODEL 1
REMARK VINA RESULT:    -6.809      0.000      0.000
REMARK INTER + INTRA:          -8.590
REMARK INTER:                  -8.003
REMARK INTRA:                  -0.587
REMARK UNBOUND:                -0.587
REMARK  Name = No_3161-gen_results/8p0m/2024-11-27-11-27-31/
REMARK  3 active torsions:
REMARK  status: ('A' for Active; 'I' for Inactive)
REMARK    1  A    between atoms: C_3  and  C_8
REMARK    2  A    between atoms: C_6  and  O_7
REMARK    3  A    between atoms: O_7  and  C_17
REMARK                            x       y       z     vdW  Elec       q    Type
REMARK                         _______ _______ _______ _____ _____    ______ ____
ROOT
ATOM      1  C   UNL A   1     -26.381  -2.380  30.025  0.00  0.00    +0.037 A 
ATOM      2  C   UNL A   1     -25.584  -1.497  29.807  0.00  0.00    -0.001 A 
ATOM      3  C   UNL A   1     -24.377  -1.761  29.167  0.00  0.00    -0.016 A 
ATOM      4  C   UNL A   1     -24.019  -3.102  28.785  0.00  0.00    -0.001 A 
ATOM      5  C   UNL A   1     -24.987  -4.065  29.096  0.00  0.00    +0.037 A 
ATOM      6  C   UNL A   1     -26.106  -3.767  29.718  0.00  0.00    +0.145 A 
ENDROOT
BRANCH   3   7
ATOM      7  C   UNL A   1     -23.311  -0.747  28.830  0.00  0.00    +0.067 C 
ATOM      8  C   UNL A   1     -23.539   0.185  27.921  0.00  0.00    -0.002 A 
ATOM      9  C   UNL A   1     -24.200   0.613  27.284  0.00  0.00    -0.003 A 
ATOM     10  C   UNL A   1     -24.062   1.691  26.301  0.00  0.00    -0.000 A 
ATOM     11  C   UNL A   1     -23.053   2.264  26.147  0.00  0.00    +0.001 A 
ATOM     12  C   UNL A   1     -22.103   0.809  27.816  0.00  0.00    +0.062 A 
ATOM     13  C   UNL A   1     -21.967   1.910  26.905  0.00  0.00    +0.016 A 
ATOM     14  C   UNL A   1     -21.975  -0.790  29.419  0.00  0.00    +0.121 C 
ATOM     15  N   UNL A   1     -21.161   0.386  28.723  0.00  0.00    -0.237 NA
ENDBRANCH   3   7
BRANCH   6  16
ATOM     16  O   UNL A   1     -26.977  -4.768  30.018  0.00  0.00    -0.451 OA
BRANCH  16  17
ATOM     17  C   UNL A   1     -28.248  -4.517  30.346  0.00  0.00    +0.175 C 
ATOM     18  C   UNL A   1     -28.824  -4.949  31.164  0.00  0.00    +0.015 C 
ATOM     19  C   UNL A   1     -30.224  -4.658  31.531  0.00  0.00    +0.034 C 
ENDBRANCH  16  17
ENDBRANCH   6  16
TORSDOF 3
ENDMDL
ENDMDL
