MODEL 3162
MODEL 1
REMARK VINA RESULT:    -6.746      0.000      0.000
REMARK INTER + INTRA:          -9.656
REMARK INTER:                  -8.718
REMARK INTRA:                  -0.939
REMARK UNBOUND:                -0.939
REMARK  Name = No_3162-gen_results/8p0m/2024-11-27-11-27-31/
REMARK  5 active torsions:
REMARK  status: ('A' for Active; 'I' for Inactive)
REMARK    1  A    between atoms: C_2  and  C_3
REMARK    2  A    between atoms: N_4  and  C_15
REMARK    3  A    between atoms: C_6  and  C_20
REMARK    4  A    between atoms: C_15  and  C_16
REMARK    5  A    between atoms: C_16  and  C_17
REMARK                            x       y       z     vdW  Elec       q    Type
REMARK                         _______ _______ _______ _____ _____    ______ ____
ROOT
ATOM      1  C   UNL A   1     -23.995  -0.609  30.134  0.00  0.00    +0.106 C 
ATOM      2  C   UNL A   1     -24.342  -1.854  29.804  0.00  0.00    +0.001 A 
ATOM      3  C   UNL A   1     -24.791   0.165  31.047  0.00  0.00    +0.056 C 
ATOM      4  C   UNL A   1     -23.716  -2.778  28.956  0.00  0.00    -0.003 A 
ATOM      5  C   UNL A   1     -24.116  -4.062  28.749  0.00  0.00    -0.000 A 
ATOM      6  C   UNL A   1     -25.429  -4.368  29.192  0.00  0.00    +0.001 A 
ATOM      7  C   UNL A   1     -26.263  -3.495  29.856  0.00  0.00    +0.016 A 
ATOM      8  C   UNL A   1     -25.744  -2.270  30.169  0.00  0.00    +0.062 A 
ATOM      9  N   UNL A   1     -26.637  -1.523  30.862  0.00  0.00    -0.237 NA
ATOM     10  C   UNL A   1     -26.145  -0.263  31.309  0.00  0.00    +0.117 C 
ENDROOT
BRANCH   1  12
ATOM     11  O   UNL A   1     -21.804  -0.339  29.985  0.00  0.00    -0.275 OA
ATOM     12  C   UNL A   1     -22.849  -0.086  29.570  0.00  0.00    +0.230 C 
ATOM     13  N   UNL A   1     -23.068   0.681  28.329  0.00  0.00    -0.277 N 
ATOM     14  C   UNL A   1     -21.926   1.222  27.709  0.00  0.00    +0.115 C 
BRANCH  13  15
ATOM     15  C   UNL A   1     -24.333   0.932  27.782  0.00  0.00    +0.098 C 
BRANCH  15  16
ATOM     16  C   UNL A   1     -24.302   1.086  26.394  0.00  0.00    +0.074 C 
BRANCH  16  17
ATOM     17  C   UNL A   1     -24.973   0.053  25.723  0.00  0.00    +0.241 C 
ATOM     18 CL   UNL A   1     -25.696  -0.128  24.869  0.00  0.00    -0.076 Cl
ATOM     19  F   UNL A   1     -25.431  -0.876  26.793  0.00  0.00    -0.219 F 
ENDBRANCH  16  17
ENDBRANCH  15  16
ENDBRANCH  13  15
ENDBRANCH   1  12
BRANCH   3  20
ATOM     20  C   UNL A   1     -24.424   1.467  31.463  0.00  0.00    -0.028 C 
ATOM     21  C   UNL A   1     -25.099   2.196  32.047  0.00  0.00    -0.030 C 
ATOM     22  C   UNL A   1     -24.775   3.575  32.458  0.00  0.00    +0.030 C 
ENDBRANCH   3  20
TORSDOF 5
ENDMDL
ENDMDL
