MODEL 3163
MODEL 1
REMARK VINA RESULT:    -7.710      0.000      0.000
REMARK INTER + INTRA:         -10.090
REMARK INTER:                  -8.611
REMARK INTRA:                  -1.479
REMARK UNBOUND:                -1.479
REMARK  Name = No_3163-gen_results/8p0m/2024-11-27-11-27-31/
REMARK  2 active torsions:
REMARK  status: ('A' for Active; 'I' for Inactive)
REMARK    1  A    between atoms: C_3  and  C_7
REMARK    2  A    between atoms: C_8  and  C_14
REMARK                            x       y       z     vdW  Elec       q    Type
REMARK                         _______ _______ _______ _____ _____    ______ ____
ROOT
ATOM      1  C   UNL A   1     -24.289  -0.323  29.924  0.00  0.00    +0.028 A 
ATOM      2  C   UNL A   1     -24.624  -0.980  29.130  0.00  0.00    +0.002 A 
ATOM      3  C   UNL A   1     -24.587  -0.624  27.663  0.00  0.00    +0.000 A 
ATOM      4  C   UNL A   1     -23.856   1.046  29.605  0.00  0.00    +0.140 A 
ATOM      5  C   UNL A   1     -23.992   1.570  28.365  0.00  0.00    +0.030 A 
ATOM      6  C   UNL A   1     -24.325   0.691  27.347  0.00  0.00    +0.002 A 
ATOM      7  F   UNL A   1     -23.533   1.950  30.558  0.00  0.00    -0.204 F 
ENDROOT
BRANCH   1  10
ATOM      8  C   UNL A   1     -23.039  -1.248  31.984  0.00  0.00    +0.000 A 
ATOM      9  C   UNL A   1     -23.057  -1.418  33.024  0.00  0.00    +0.000 A 
ATOM     10  C   UNL A   1     -24.174  -0.649  31.395  0.00  0.00    +0.002 A 
ATOM     11  C   UNL A   1     -25.286  -0.303  32.137  0.00  0.00    +0.000 A 
ATOM     12  C   UNL A   1     -23.968  -1.138  33.933  0.00  0.00    +0.000 A 
ATOM     13  C   UNL A   1     -25.147  -0.558  33.515  0.00  0.00    +0.000 A 
ENDBRANCH   1  10
BRANCH   2  14
ATOM     14  C   UNL A   1     -24.954  -2.490  29.259  0.00  0.00    +0.000 A 
ATOM     15  C   UNL A   1     -23.960  -3.302  28.851  0.00  0.00    +0.000 A 
ATOM     16  C   UNL A   1     -24.188  -4.726  28.727  0.00  0.00    +0.000 A 
ATOM     17  C   UNL A   1     -25.296  -5.235  29.247  0.00  0.00    +0.000 A 
ATOM     18  C   UNL A   1     -26.106  -2.979  29.696  0.00  0.00    +0.000 A 
ATOM     19  C   UNL A   1     -26.323  -4.341  29.683  0.00  0.00    +0.000 A 
ENDBRANCH   2  14
TORSDOF 2
ENDMDL
ENDMDL
