MODEL 3164
MODEL 1
REMARK VINA RESULT:    -4.460      0.000      0.000
REMARK INTER + INTRA:          -4.460
REMARK INTER:                  -4.460
REMARK INTRA:                   0.000
REMARK UNBOUND:                 0.000
REMARK  Name = No_3164-gen_results/8p0m/2024-11-27-11-27-31/
REMARK  0 active torsions:
REMARK  status: ('A' for Active; 'I' for Inactive)
REMARK                            x       y       z     vdW  Elec       q    Type
REMARK                         _______ _______ _______ _____ _____    ______ ____
ROOT
ATOM      1  C   UNL A   1      -9.203  -9.229  19.973  0.00  0.00    +0.011 A 
ATOM      2  C   UNL A   1      -8.345  -9.788  19.723  0.00  0.00    +0.058 A 
ATOM      3  C   UNL A   1     -10.320  -9.273  19.016  0.00  0.00    +0.001 A 
ATOM      4  C   UNL A   1     -10.275 -10.144  17.889  0.00  0.00    +0.000 A 
ATOM      5  C   UNL A   1      -8.068 -10.799  18.666  0.00  0.00    +0.011 A 
ATOM      6  C   UNL A   1      -9.078 -10.861  17.753  0.00  0.00    +0.001 A 
ATOM      7 CL   UNL A   1      -6.963  -9.757  20.898  0.00  0.00    -0.082 Cl
ENDROOT
TORSDOF 0
ENDMDL
ENDMDL
