REMARK  Name = outputs/IAG933/test6/raw/output_3165_IAG933_linker_design_.xyz
REMARK  9 active torsions:
REMARK  status: ('A' for Active; 'I' for Inactive)
REMARK    1  A    between atoms: C_1  and  C_2
REMARK    2  A    between atoms: C_1  and  C_8
REMARK    3  A    between atoms: C_1  and  C_28
REMARK    4  A    between atoms: C_21  and  O_22
REMARK    5  A    between atoms: O_22  and  C_23
REMARK    6  A    between atoms: C_23  and  C_24
REMARK    7  A    between atoms: C_28  and  N_37
REMARK    8  A    between atoms: C_28  and  C_41
REMARK    9  A    between atoms: C_29  and  C_40
REMARK                            x       y       z     vdW  Elec       q    Type
REMARK                         _______ _______ _______ _____ _____    ______ ____
ROOT
ATOM      1  C   UNL A   1     -25.688   1.614  26.461  0.00  0.00    +0.070 C 
ATOM      2  C   UNL A   1     -26.250   2.920  26.395  0.00  0.00    +0.053 C 
ATOM      3  C   UNL A   1     -25.642   4.093  27.123  0.00  0.00    +0.218 C 
ATOM      4  N   UNL A   1     -25.614   5.252  26.449  0.00  0.00    -0.236 NA
ATOM      5  C   UNL A   1     -25.026   6.479  26.963  0.00  0.00    +0.155 C 
ATOM      6  O   UNL A   1     -25.143   3.966  28.243  0.00  0.00    -0.461 OA
ATOM      7  C   UNL A   1     -27.438   3.091  25.645  0.00  0.00    +0.102 C 
ATOM      8  N   UNL A   1     -28.075   2.089  25.003  0.00  0.00    -0.212 NA
ATOM      9  C   UNL A   1     -27.543   0.849  25.079  0.00  0.00    +0.234 C 
ATOM     10  C   UNL A   1     -26.354   0.576  25.777  0.00  0.00    +0.240 C 
ATOM     11  F   UNL A   1     -25.860  -0.681  25.795  0.00  0.00    -0.227 F 
ATOM     12  C   UNL A   1     -22.794   1.566  26.212  0.00  0.00    +0.122 C 
ATOM     13  C   UNL A   1     -24.848   1.182  27.344  0.00  0.00    +0.015 C 
ATOM     14  O   UNL A   1     -20.623   1.668  27.096  0.00  0.00    -0.351 OA
ATOM     15  N   UNL A   1     -22.421   0.064  29.851  0.00  0.00    -0.130 NA
ATOM     16  C   UNL A   1     -21.490   1.922  26.066  0.00  0.00    +0.157 C 
ATOM     17  C   UNL A   1     -22.231   0.597  28.510  0.00  0.00    +0.122 C 
ATOM     18  C   UNL A   1     -20.956   0.755  28.015  0.00  0.00    +0.161 C 
ATOM     19  C   UNL A   1     -24.592   1.360  28.653  0.00  0.00    +0.062 C 
ATOM     20  C   UNL A   1     -24.873   2.840  29.111  0.00  0.00    +0.209 C 
ATOM     21  C   UNL A   1     -23.549   1.567  27.565  0.00  0.00    +0.040 C 
ENDROOT
BRANCH  12  23
ATOM     22  N   UNL A   1     -23.884   0.932  24.002  0.00  0.00    -0.196 NA
ATOM     23  C   UNL A   1     -23.410   1.202  25.081  0.00  0.00    +0.075 C 
ENDBRANCH  12  23
BRANCH   9  24
ATOM     24  O   UNL A   1     -28.193  -0.208  24.477  0.00  0.00    -0.459 OA
BRANCH  24  25
ATOM     25  C   UNL A   1     -29.460   0.005  23.866  0.00  0.00    +0.242 C 
BRANCH  25  26
ATOM     26  C   UNL A   1     -30.065  -1.377  23.573  0.00  0.00    +0.229 C 
ATOM     27  O   UNL A   1     -30.729  -1.878  24.721  0.00  0.00    -0.216 OA
ENDBRANCH  25  26
ENDBRANCH  24  25
ENDBRANCH   9  24
BRANCH  19  28
ATOM     28  C   UNL A   1     -25.206   0.127  29.181  0.00  0.00    +0.106 C 
BRANCH  28  30
ATOM     29  C   UNL A   1     -27.515   0.958  29.165  0.00  0.00    +0.359 C 
ATOM     30  N   UNL A   1     -26.595   0.110  28.811  0.00  0.00    -0.187 NA
ATOM     31  N   UNL A   1     -27.174   2.113  29.826  0.00  0.00    -0.068 NA
ATOM     32  O   UNL A   1     -28.637   0.780  28.807  0.00  0.00    -0.247 OA
ENDBRANCH  28  30
BRANCH  28  33
ATOM     33  C   UNL A   1     -24.855  -1.012  30.143  0.00  0.00    +0.059 C 
BRANCH  33  34
ATOM     34  C   UNL A   1     -24.973  -2.505  29.788  0.00  0.00    -0.019 C 
ATOM     35  C   UNL A   1     -23.906  -3.173  29.146  0.00  0.00    -0.004 C 
ATOM     36  C   UNL A   1     -23.989  -4.549  28.853  0.00  0.00    -0.000 C 
ATOM     37  C   UNL A   1     -25.137  -5.280  29.205  0.00  0.00    -0.000 C 
ATOM     38  C   UNL A   1     -26.232  -4.611  29.784  0.00  0.00    -0.000 C 
ATOM     39  C   UNL A   1     -26.155  -3.232  30.065  0.00  0.00    -0.004 C 
ENDBRANCH  33  34
BRANCH  33  40
ATOM     40  C   UNL A   1     -25.387  -0.679  31.571  0.00  0.00    +0.079 C 
ATOM     41  C   UNL A   1     -25.189   0.773  32.028  0.00  0.00    +0.019 C 
ATOM     42  C   UNL A   1     -25.336   0.684  33.544  0.00  0.00    +0.020 C 
ATOM     43  C   UNL A   1     -24.829  -0.715  33.905  0.00  0.00    +0.089 C 
ATOM     44  N   UNL A   1     -24.758  -1.481  32.646  0.00  0.00    -0.219 NA
ENDBRANCH  33  40
ENDBRANCH  28  33
ENDBRANCH  19  28
TORSDOF 9
