REMARK  Name = outputs/IAG933/test6/raw/output_3166_IAG933_linker_design_.xyz
REMARK  10 active torsions:
REMARK  status: ('A' for Active; 'I' for Inactive)
REMARK    1  A    between atoms: C_1  and  C_2
REMARK    2  A    between atoms: C_1  and  C_8
REMARK    3  A    between atoms: C_9  and  C_38
REMARK    4  A    between atoms: C_13  and  C_30
REMARK    5  A    between atoms: C_14  and  C_15
REMARK    6  A    between atoms: C_21  and  O_22
REMARK    7  A    between atoms: O_22  and  C_23
REMARK    8  A    between atoms: C_23  and  C_24
REMARK    9  A    between atoms: C_29  and  C_38
REMARK   10  A    between atoms: C_38  and  N_39
REMARK                            x       y       z     vdW  Elec       q    Type
REMARK                         _______ _______ _______ _____ _____    ______ ____
ROOT
ATOM      1  C   UNL A   1     -24.473   1.628  26.543  0.00  0.00    +0.131 C 
ATOM      2  N   UNL A   1     -22.056   1.255  29.164  0.00  0.00    -0.006 NA
ATOM      3  F   UNL A   1     -20.086   1.457  27.960  0.00  0.00    -0.154 F 
ATOM      4  C   UNL A   1     -23.681   1.501  27.500  0.00  0.00    +0.121 C 
ATOM      5  O   UNL A   1     -23.581   1.869  25.337  0.00  0.00    -0.474 OA
ATOM      6  C   UNL A   1     -22.306   2.191  25.701  0.00  0.00    +0.238 C 
ATOM      7  C   UNL A   1     -21.344   1.512  27.983  0.00  0.00    +0.330 C 
ATOM      8  N   UNL A   1     -24.510   1.748  29.706  0.00  0.00    -0.026 NA
ATOM      9  C   UNL A   1     -23.433   1.414  28.908  0.00  0.00    +0.367 C 
ATOM     10  C   UNL A   1     -22.169   1.764  26.993  0.00  0.00    +0.103 C 
ENDROOT
BRANCH   1  11
ATOM     11  C   UNL A   1     -25.688   1.614  26.461  0.00  0.00    +0.127 C 
ATOM     12  C   UNL A   1     -26.250   2.920  26.395  0.00  0.00    +0.062 C 
ATOM     13  C   UNL A   1     -27.438   3.091  25.645  0.00  0.00    +0.103 C 
ATOM     14  N   UNL A   1     -28.075   2.089  25.003  0.00  0.00    -0.212 NA
ATOM     15  C   UNL A   1     -27.543   0.849  25.079  0.00  0.00    +0.234 C 
ATOM     16  C   UNL A   1     -26.354   0.576  25.777  0.00  0.00    +0.247 C 
ATOM     17  F   UNL A   1     -25.860  -0.681  25.795  0.00  0.00    -0.226 F 
BRANCH  12  18
ATOM     18  C   UNL A   1     -25.642   4.093  27.123  0.00  0.00    +0.263 C 
ATOM     19  N   UNL A   1     -25.614   5.252  26.449  0.00  0.00    -0.200 NA
ATOM     20  C   UNL A   1     -25.026   6.479  26.963  0.00  0.00    +0.139 C 
ATOM     21  O   UNL A   1     -25.143   3.966  28.243  0.00  0.00    -0.269 OA
ENDBRANCH  12  18
BRANCH  15  22
ATOM     22  O   UNL A   1     -28.193  -0.208  24.477  0.00  0.00    -0.459 OA
BRANCH  22  23
ATOM     23  C   UNL A   1     -29.460   0.005  23.866  0.00  0.00    +0.242 C 
BRANCH  23  24
ATOM     24  C   UNL A   1     -30.065  -1.377  23.573  0.00  0.00    +0.229 C 
ATOM     25  O   UNL A   1     -30.729  -1.878  24.721  0.00  0.00    -0.216 OA
ENDBRANCH  23  24
ENDBRANCH  22  23
ENDBRANCH  15  22
ENDBRANCH   1  11
BRANCH   8  26
ATOM     26  C   UNL A   1     -24.620   1.823  31.145  0.00  0.00    +0.284 C 
BRANCH  26  28
ATOM     27  C   UNL A   1     -25.387  -0.679  31.571  0.00  0.00    +0.082 C 
ATOM     28  C   UNL A   1     -25.189   0.773  32.028  0.00  0.00    +0.074 C 
ATOM     29  C   UNL A   1     -25.336   0.684  33.544  0.00  0.00    +0.025 C 
ATOM     30  C   UNL A   1     -24.829  -0.715  33.905  0.00  0.00    +0.089 C 
ATOM     31  N   UNL A   1     -24.758  -1.481  32.646  0.00  0.00    -0.219 NA
BRANCH  27  32
ATOM     32  C   UNL A   1     -24.855  -1.012  30.143  0.00  0.00    +0.044 C 
BRANCH  32  33
ATOM     33  C   UNL A   1     -24.973  -2.505  29.788  0.00  0.00    -0.021 C 
ATOM     34  C   UNL A   1     -23.906  -3.173  29.146  0.00  0.00    -0.004 C 
ATOM     35  C   UNL A   1     -23.989  -4.549  28.853  0.00  0.00    -0.000 C 
ATOM     36  C   UNL A   1     -25.137  -5.280  29.205  0.00  0.00    -0.000 C 
ATOM     37  C   UNL A   1     -26.232  -4.611  29.784  0.00  0.00    -0.000 C 
ATOM     38  C   UNL A   1     -26.155  -3.232  30.065  0.00  0.00    -0.004 C 
ENDBRANCH  32  33
ENDBRANCH  27  32
ENDBRANCH  26  28
BRANCH  26  40
ATOM     39  N   UNL A   1     -26.803   2.794  32.064  0.00  0.00    -0.084 NA
ATOM     40  C   UNL A   1     -25.476   2.808  31.878  0.00  0.00    +0.308 C 
ATOM     41  O   UNL A   1     -24.802   3.675  32.477  0.00  0.00    -0.267 OA
ENDBRANCH  26  40
ENDBRANCH   8  26
TORSDOF 10
