REMARK  Name = outputs/IAG933/test6/raw/output_3167_IAG933_linker_design_.xyz
REMARK  16 active torsions:
REMARK  status: ('A' for Active; 'I' for Inactive)
REMARK    1  A    between atoms: C_1  and  C_2
REMARK    2  A    between atoms: C_1  and  C_8
REMARK    3  A    between atoms: C_1  and  N_46
REMARK    4  A    between atoms: C_13  and  C_34
REMARK    5  A    between atoms: C_14  and  C_15
REMARK    6  A    between atoms: C_21  and  O_22
REMARK    7  A    between atoms: O_22  and  C_23
REMARK    8  A    between atoms: C_23  and  C_24
REMARK    9  A    between atoms: C_28  and  N_46
REMARK   10  A    between atoms: C_30  and  C_36
REMARK   11  A    between atoms: C_30  and  O_40
REMARK   12  A    between atoms: C_32  and  C_35
REMARK   13  A    between atoms: C_32  and  C_43
REMARK   14  A    between atoms: C_33  and  O_40
REMARK   15  A    between atoms: C_33  and  N_46
REMARK   16  A    between atoms: C_36  and  C_43
REMARK                            x       y       z     vdW  Elec       q    Type
REMARK                         _______ _______ _______ _____ _____    ______ ____
ROOT
ATOM      1  C   UNL A   1     -24.206   0.541  28.514  0.00  0.00    +0.070 C 
ATOM      2  C   UNL A   1     -21.860   1.503  27.406  0.00  0.00    +0.233 C 
ATOM      3  N   UNL A   1     -21.784   0.983  28.695  0.00  0.00    -0.214 NA
ATOM      4  C   UNL A   1     -24.354   1.245  27.233  0.00  0.00    +0.032 C 
ATOM      5 CL   UNL A   1     -22.994   2.297  25.044  0.00  0.00    -0.078 Cl
ATOM      6  F   UNL A   1     -20.805   1.933  26.901  0.00  0.00    -0.182 F 
ATOM      7  C   UNL A   1     -22.931   0.456  29.223  0.00  0.00    +0.116 C 
ATOM      8  C   UNL A   1     -23.148   1.579  26.656  0.00  0.00    +0.105 C 
ENDROOT
BRANCH   4   9
ATOM      9  C   UNL A   1     -25.688   1.614  26.461  0.00  0.00    +0.040 C 
ATOM     10  C   UNL A   1     -26.250   2.920  26.395  0.00  0.00    +0.077 C 
ATOM     11  C   UNL A   1     -27.438   3.091  25.645  0.00  0.00    +0.107 C 
ATOM     12  N   UNL A   1     -28.075   2.089  25.003  0.00  0.00    -0.208 NA
ATOM     13  C   UNL A   1     -27.543   0.849  25.079  0.00  0.00    +0.253 C 
ATOM     14  C   UNL A   1     -26.354   0.576  25.777  0.00  0.00    +0.193 C 
ATOM     15  F   UNL A   1     -25.860  -0.681  25.795  0.00  0.00    -0.199 F 
BRANCH  10  16
ATOM     16  C   UNL A   1     -25.642   4.093  27.123  0.00  0.00    +0.266 C 
ATOM     17  N   UNL A   1     -25.614   5.252  26.449  0.00  0.00    -0.200 NA
ATOM     18  C   UNL A   1     -25.026   6.479  26.963  0.00  0.00    +0.139 C 
ATOM     19  O   UNL A   1     -25.143   3.966  28.243  0.00  0.00    -0.268 OA
ENDBRANCH  10  16
BRANCH  13  20
ATOM     20  O   UNL A   1     -28.193  -0.208  24.477  0.00  0.00    -0.456 OA
BRANCH  20  21
ATOM     21  C   UNL A   1     -29.460   0.005  23.866  0.00  0.00    +0.243 C 
BRANCH  21  22
ATOM     22  C   UNL A   1     -30.065  -1.377  23.573  0.00  0.00    +0.229 C 
ATOM     23  O   UNL A   1     -30.729  -1.878  24.721  0.00  0.00    -0.216 OA
ENDBRANCH  21  22
ENDBRANCH  20  21
ENDBRANCH  13  20
ENDBRANCH   4   9
BRANCH   1  24
ATOM     24  N   UNL A   1     -25.265  -0.122  29.029  0.00  0.00    -0.278 N 
BRANCH  24  25
ATOM     25  C   UNL A   1     -24.855  -1.012  30.143  0.00  0.00    +0.114 C 
BRANCH  25  26
ATOM     26  C   UNL A   1     -24.973  -2.505  29.788  0.00  0.00    -0.003 C 
ATOM     27  C   UNL A   1     -23.906  -3.173  29.146  0.00  0.00    -0.003 C 
ATOM     28  C   UNL A   1     -23.989  -4.549  28.853  0.00  0.00    -0.000 C 
ATOM     29  C   UNL A   1     -25.137  -5.280  29.205  0.00  0.00    -0.000 C 
ATOM     30  C   UNL A   1     -26.232  -4.611  29.784  0.00  0.00    -0.000 C 
ATOM     31  C   UNL A   1     -26.155  -3.232  30.065  0.00  0.00    -0.003 C 
ENDBRANCH  25  26
BRANCH  25  32
ATOM     32  C   UNL A   1     -25.387  -0.679  31.571  0.00  0.00    +0.095 C 
ATOM     33  C   UNL A   1     -25.189   0.773  32.028  0.00  0.00    +0.021 C 
ATOM     34  C   UNL A   1     -25.336   0.684  33.544  0.00  0.00    +0.020 C 
ATOM     35  C   UNL A   1     -24.829  -0.715  33.905  0.00  0.00    +0.089 C 
ATOM     36  N   UNL A   1     -24.758  -1.481  32.646  0.00  0.00    -0.217 NA
ENDBRANCH  25  32
ENDBRANCH  24  25
BRANCH  24  37
ATOM     37  C   UNL A   1     -26.520  -0.276  28.475  0.00  0.00    +0.241 C 
BRANCH  37  38
ATOM     38  O   UNL A   1     -27.619  -0.698  29.338  0.00  0.00    -0.332 OA
BRANCH  38  39
ATOM     39  C   UNL A   1     -28.401   0.416  29.664  0.00  0.00    +0.178 C 
BRANCH  39  40
ATOM     40  C   UNL A   1     -29.814   0.018  29.126  0.00  0.00    +0.199 C 
ATOM     41  O   UNL A   1     -29.879  -0.318  27.777  0.00  0.00    -0.219 OA
BRANCH  40  42
ATOM     42  C   UNL A   1     -30.790   1.094  29.569  0.00  0.00    +0.126 C 
ATOM     43  N   UNL A   1     -30.713   2.208  28.590  0.00  0.00    -0.130 NA
BRANCH  42  44
ATOM     44  C   UNL A   1     -30.335   1.705  30.933  0.00  0.00    +0.042 C 
BRANCH  44  45
ATOM     45  C   UNL A   1     -31.556   2.285  31.733  0.00  0.00    +0.111 C 
ATOM     46  N   UNL A   1     -32.721   1.406  32.042  0.00  0.00    -0.131 NA
ENDBRANCH  44  45
ENDBRANCH  42  44
ENDBRANCH  40  42
ENDBRANCH  39  40
ENDBRANCH  38  39
ENDBRANCH  37  38
ENDBRANCH  24  37
ENDBRANCH   1  24
TORSDOF 16
