REMARK  Name = outputs/IAG933/test6/raw/output_3169_IAG933_linker_design_.xyz
REMARK  16 active torsions:
REMARK  status: ('A' for Active; 'I' for Inactive)
REMARK    1  A    between atoms: C_1  and  C_2
REMARK    2  A    between atoms: C_1  and  C_8
REMARK    3  A    between atoms: C_9  and  N_43
REMARK    4  A    between atoms: C_13  and  N_28
REMARK    5  A    between atoms: C_14  and  C_15
REMARK    6  A    between atoms: C_21  and  O_22
REMARK    7  A    between atoms: O_22  and  C_23
REMARK    8  A    between atoms: C_23  and  C_24
REMARK    9  A    between atoms: N_28  and  C_44
REMARK   10  A    between atoms: O_30  and  C_41
REMARK   11  A    between atoms: C_33  and  C_35
REMARK   12  A    between atoms: C_33  and  N_43
REMARK   13  A    between atoms: C_38  and  C_39
REMARK   14  A    between atoms: C_38  and  C_45
REMARK   15  A    between atoms: C_39  and  C_44
REMARK   16  A    between atoms: C_40  and  N_43
REMARK                            x       y       z     vdW  Elec       q    Type
REMARK                         _______ _______ _______ _____ _____    ______ ____
ROOT
ATOM      1  N   UNL A   1     -25.139   2.051  31.311  0.00  0.00    -0.303 N 
ENDROOT
BRANCH   1   3
ATOM      2  C   UNL A   1     -25.387  -0.679  31.571  0.00  0.00    +0.095 C 
ATOM      3  C   UNL A   1     -25.189   0.773  32.028  0.00  0.00    +0.091 C 
ATOM      4  C   UNL A   1     -25.336   0.684  33.544  0.00  0.00    +0.040 C 
ATOM      5  C   UNL A   1     -24.829  -0.715  33.905  0.00  0.00    +0.090 C 
ATOM      6  N   UNL A   1     -24.758  -1.481  32.646  0.00  0.00    -0.217 NA
BRANCH   2   7
ATOM      7  C   UNL A   1     -24.855  -1.012  30.143  0.00  0.00    +0.045 C 
BRANCH   7   8
ATOM      8  C   UNL A   1     -24.973  -2.505  29.788  0.00  0.00    -0.021 C 
ATOM      9  C   UNL A   1     -23.906  -3.173  29.146  0.00  0.00    -0.004 C 
ATOM     10  C   UNL A   1     -23.989  -4.549  28.853  0.00  0.00    -0.000 C 
ATOM     11  C   UNL A   1     -25.137  -5.280  29.205  0.00  0.00    -0.000 C 
ATOM     12  C   UNL A   1     -26.232  -4.611  29.784  0.00  0.00    -0.000 C 
ATOM     13  C   UNL A   1     -26.155  -3.232  30.065  0.00  0.00    -0.004 C 
ENDBRANCH   7   8
ENDBRANCH   2   7
ENDBRANCH   1   3
BRANCH   1  14
ATOM     14  C   UNL A   1     -24.309   1.865  29.954  0.00  0.00    +0.057 C 
ATOM     15  C   UNL A   1     -22.946   1.053  29.580  0.00  0.00    -0.010 C 
BRANCH  15  16
ATOM     16  C   UNL A   1     -22.097   0.809  28.260  0.00  0.00    +0.029 C 
BRANCH  16  17
ATOM     17  C   UNL A   1     -22.425   1.987  27.385  0.00  0.00    +0.026 C 
BRANCH  17  19
ATOM     18  C   UNL A   1     -23.218   2.538  25.143  0.00  0.00    +0.023 C 
ATOM     19  C   UNL A   1     -23.453   1.913  26.611  0.00  0.00    +0.093 C 
BRANCH  19  20
ATOM     20  N   UNL A   1     -24.570   1.370  27.043  0.00  0.00    -0.237 NA
BRANCH  20  21
ATOM     21  C   UNL A   1     -25.688   1.614  26.461  0.00  0.00    +0.103 C 
ATOM     22  C   UNL A   1     -26.250   2.920  26.395  0.00  0.00    +0.091 C 
ATOM     23  C   UNL A   1     -27.438   3.091  25.645  0.00  0.00    +0.108 C 
ATOM     24  N   UNL A   1     -28.075   2.089  25.003  0.00  0.00    -0.208 NA
ATOM     25  C   UNL A   1     -27.543   0.849  25.079  0.00  0.00    +0.255 C 
ATOM     26  C   UNL A   1     -26.354   0.576  25.777  0.00  0.00    +0.208 C 
ATOM     27  F   UNL A   1     -25.860  -0.681  25.795  0.00  0.00    -0.198 F 
BRANCH  22  28
ATOM     28  C   UNL A   1     -25.642   4.093  27.123  0.00  0.00    +0.268 C 
ATOM     29  N   UNL A   1     -25.614   5.252  26.449  0.00  0.00    -0.200 NA
ATOM     30  C   UNL A   1     -25.026   6.479  26.963  0.00  0.00    +0.139 C 
ATOM     31  O   UNL A   1     -25.143   3.966  28.243  0.00  0.00    -0.268 OA
ENDBRANCH  22  28
BRANCH  25  32
ATOM     32  O   UNL A   1     -28.193  -0.208  24.477  0.00  0.00    -0.456 OA
BRANCH  32  33
ATOM     33  C   UNL A   1     -29.460   0.005  23.866  0.00  0.00    +0.243 C 
BRANCH  33  34
ATOM     34  C   UNL A   1     -30.065  -1.377  23.573  0.00  0.00    +0.229 C 
ATOM     35  O   UNL A   1     -30.729  -1.878  24.721  0.00  0.00    -0.216 OA
ENDBRANCH  33  34
ENDBRANCH  32  33
ENDBRANCH  25  32
ENDBRANCH  20  21
ENDBRANCH  19  20
ENDBRANCH  17  19
ENDBRANCH  16  17
ENDBRANCH  15  16
ENDBRANCH   1  14
BRANCH   1  36
ATOM     36  C   UNL A   1     -26.066   3.032  31.675  0.00  0.00    +0.121 C 
BRANCH  36  39
ATOM     37  C   UNL A   1     -24.309   4.459  32.803  0.00  0.00    +0.196 C 
ATOM     38  C   UNL A   1     -26.177   6.431  33.354  0.00  0.00    +0.037 C 
ATOM     39  C   UNL A   1     -25.665   4.267  32.354  0.00  0.00    +0.037 C 
ATOM     40  O   UNL A   1     -23.331   3.649  32.391  0.00  0.00    -0.287 OA
ATOM     41  C   UNL A   1     -23.977   5.489  33.699  0.00  0.00    +0.079 C 
ATOM     42  C   UNL A   1     -24.916   6.482  33.979  0.00  0.00    +0.142 C 
ATOM     43  C   UNL A   1     -26.566   5.319  32.596  0.00  0.00    +0.004 C 
BRANCH  42  44
ATOM     44  O   UNL A   1     -24.609   7.376  35.021  0.00  0.00    -0.471 OA
ATOM     45  C   UNL A   1     -24.892   6.859  36.328  0.00  0.00    +0.253 C 
ENDBRANCH  42  44
ENDBRANCH  36  39
ENDBRANCH   1  36
TORSDOF 16
