MODEL 3169
MODEL 1
REMARK VINA RESULT:    -4.287      0.000      0.000
REMARK INTER + INTRA:          -4.287
REMARK INTER:                  -4.287
REMARK INTRA:                   0.000
REMARK UNBOUND:                 0.000
REMARK  Name = No_3169-gen_results/8p0m/2024-11-27-11-27-31/
REMARK  0 active torsions:
REMARK  status: ('A' for Active; 'I' for Inactive)
REMARK                            x       y       z     vdW  Elec       q    Type
REMARK                         _______ _______ _______ _____ _____    ______ ____
ROOT
ATOM      1  C   UNL A   1     -26.352  -3.753  29.820  0.00  0.00    +0.000 A 
ATOM      2  C   UNL A   1     -26.097  -4.756  29.620  0.00  0.00    +0.000 A 
ATOM      3  C   UNL A   1     -25.328  -2.794  29.407  0.00  0.00    +0.000 A 
ATOM      4  C   UNL A   1     -24.161  -3.188  28.799  0.00  0.00    +0.000 A 
ATOM      5  C   UNL A   1     -24.967  -5.451  29.002  0.00  0.00    +0.000 A 
ATOM      6  C   UNL A   1     -23.970  -4.531  28.599  0.00  0.00    +0.000 A 
ENDROOT
TORSDOF 0
ENDMDL
ENDMDL
