MODEL 3171
MODEL 1
REMARK VINA RESULT:    -4.286      0.000      0.000
REMARK INTER + INTRA:          -4.286
REMARK INTER:                  -4.286
REMARK INTRA:                   0.000
REMARK UNBOUND:                 0.000
REMARK  Name = No_3171-gen_results/8p0m/2024-11-27-11-27-31/
REMARK  0 active torsions:
REMARK  status: ('A' for Active; 'I' for Inactive)
REMARK                            x       y       z     vdW  Elec       q    Type
REMARK                         _______ _______ _______ _____ _____    ______ ____
ROOT
ATOM      1  C   UNL A   1     -24.113  -4.864  28.608  0.00  0.00    +0.000 A 
ATOM      2  C   UNL A   1     -24.994  -5.291  28.996  0.00  0.00    +0.000 A 
ATOM      3  C   UNL A   1     -24.064  -3.407  28.735  0.00  0.00    +0.000 A 
ATOM      4  C   UNL A   1     -25.076  -2.691  29.326  0.00  0.00    +0.000 A 
ATOM      5  C   UNL A   1     -26.199  -4.798  29.663  0.00  0.00    +0.000 A 
ATOM      6  C   UNL A   1     -26.162  -3.389  29.791  0.00  0.00    +0.000 A 
ENDROOT
TORSDOF 0
ENDMDL
ENDMDL
