MODEL 3172
MODEL 1
REMARK VINA RESULT:    -6.425      0.000      0.000
REMARK INTER + INTRA:          -6.868
REMARK INTER:                  -6.801
REMARK INTRA:                  -0.067
REMARK UNBOUND:                -0.067
REMARK  Name = No_3172-gen_results/8p0m/2024-11-27-11-27-31/
REMARK  1 active torsions:
REMARK  status: ('A' for Active; 'I' for Inactive)
REMARK    1  A    between atoms: C_9  and  C_11
REMARK                            x       y       z     vdW  Elec       q    Type
REMARK                         _______ _______ _______ _____ _____    ______ ____
ROOT
ATOM      1  C   UNL A   1     -30.608  -9.901  29.666  0.00  0.00    +0.000 A 
ATOM      2  C   UNL A   1     -30.015 -10.426  30.580  0.00  0.00    +0.000 A 
ATOM      3  C   UNL A   1     -29.150 -11.492  30.356  0.00  0.00    +0.000 A 
ATOM      4  C   UNL A   1     -28.969 -12.034  29.034  0.00  0.00    +0.000 A 
ATOM      5  C   UNL A   1     -29.711 -11.382  28.041  0.00  0.00    +0.000 A 
ATOM      6  C   UNL A   1     -30.528 -10.389  28.307  0.00  0.00    +0.000 A 
ATOM      7  C   UNL A   1     -30.102 -10.017  32.008  0.00  0.00    +0.000 A 
ATOM      8  C   UNL A   1     -29.125 -10.139  32.836  0.00  0.00    +0.005 A 
ATOM      9  C   UNL A   1     -28.139 -11.278  32.602  0.00  0.00    +0.057 A 
ATOM     10  C   UNL A   1     -28.084 -11.841  31.334  0.00  0.00    +0.005 A 
ENDROOT
BRANCH   9  11
ATOM     11  C   UNL A   1     -27.205 -11.682  33.644  0.00  0.00    +0.284 C 
ATOM     12  N   UNL A   1     -26.860 -10.818  34.570  0.00  0.00    -0.084 NA
ATOM     13  O   UNL A   1     -26.748 -12.846  33.696  0.00  0.00    -0.267 OA
ENDBRANCH   9  11
TORSDOF 1
ENDMDL
ENDMDL
