MODEL 3173
MODEL 1
REMARK VINA RESULT:    -6.592      0.000      0.000
REMARK INTER + INTRA:          -6.592
REMARK INTER:                  -6.592
REMARK INTRA:                   0.000
REMARK UNBOUND:                 0.000
REMARK  Name = No_3173-gen_results/8p0m/2024-11-27-11-27-31/
REMARK  0 active torsions:
REMARK  status: ('A' for Active; 'I' for Inactive)
REMARK                            x       y       z     vdW  Elec       q    Type
REMARK                         _______ _______ _______ _____ _____    ______ ____
ROOT
ATOM      1  C   UNL A   1     -26.502  -3.971  29.932  0.00  0.00    +0.000 A 
ATOM      2  C   UNL A   1     -26.143  -4.893  29.570  0.00  0.00    +0.000 A 
ATOM      3  C   UNL A   1     -25.555  -2.868  29.770  0.00  0.00    +0.002 A 
ATOM      4  C   UNL A   1     -24.327  -3.041  29.180  0.00  0.00    +0.000 A 
ATOM      5  C   UNL A   1     -24.923  -5.362  28.914  0.00  0.00    +0.000 A 
ATOM      6  C   UNL A   1     -23.999  -4.302  28.752  0.00  0.00    +0.000 A 
ATOM      7  C   UNL A   1     -25.906  -1.473  30.178  0.00  0.00    +0.019 A 
ATOM      8  C   UNL A   1     -24.944  -0.482  29.868  0.00  0.00    +0.085 A 
ATOM      9  C   UNL A   1     -23.695  -0.773  29.298  0.00  0.00    +0.037 A 
ATOM     10  C   UNL A   1     -23.391  -1.969  28.957  0.00  0.00    +0.003 A 
ATOM     11  N   UNL A   1     -25.231   0.860  30.244  0.00  0.00    -0.224 NA
ATOM     12  C   UNL A   1     -24.369   1.849  29.779  0.00  0.00    +0.199 A 
ATOM     13  N   UNL A   1     -23.180   1.574  29.282  0.00  0.00    -0.222 NA
ATOM     14  C   UNL A   1     -22.815   0.426  29.030  0.00  0.00    +0.102 A 
ENDROOT
TORSDOF 0
ENDMDL
ENDMDL
