REMARK  Name = outputs/IAG933/test6/raw/output_3173_IAG933_linker_design_.xyz
REMARK  13 active torsions:
REMARK  status: ('A' for Active; 'I' for Inactive)
REMARK    1  A    between atoms: C_1  and  C_2
REMARK    2  A    between atoms: C_1  and  C_8
REMARK    3  A    between atoms: C_1  and  C_37
REMARK    4  A    between atoms: C_13  and  N_36
REMARK    5  A    between atoms: C_14  and  C_15
REMARK    6  A    between atoms: C_15  and  O_18
REMARK    7  A    between atoms: O_18  and  C_32
REMARK    8  A    between atoms: C_21  and  O_22
REMARK    9  A    between atoms: O_22  and  C_23
REMARK   10  A    between atoms: C_23  and  C_24
REMARK   11  A    between atoms: N_28  and  C_33
REMARK   12  A    between atoms: C_30  and  C_34
REMARK   13  A    between atoms: C_32  and  C_33
REMARK                            x       y       z     vdW  Elec       q    Type
REMARK                         _______ _______ _______ _____ _____    ______ ____
ROOT
ATOM      1  C   UNL A   1     -25.642   4.093  27.123  0.00  0.00    +0.231 C 
ATOM      2  N   UNL A   1     -25.614   5.252  26.449  0.00  0.00    -0.235 NA
ATOM      3  C   UNL A   1     -25.026   6.479  26.963  0.00  0.00    +0.155 C 
ENDROOT
BRANCH   1   5
ATOM      4  C   UNL A   1     -25.688   1.614  26.461  0.00  0.00    +0.087 C 
ATOM      5  C   UNL A   1     -26.250   2.920  26.395  0.00  0.00    +0.088 C 
ATOM      6  C   UNL A   1     -27.438   3.091  25.645  0.00  0.00    +0.108 C 
ATOM      7  N   UNL A   1     -28.075   2.089  25.003  0.00  0.00    -0.208 NA
ATOM      8  C   UNL A   1     -27.543   0.849  25.079  0.00  0.00    +0.255 C 
ATOM      9  C   UNL A   1     -26.354   0.576  25.777  0.00  0.00    +0.206 C 
ATOM     10  F   UNL A   1     -25.860  -0.681  25.795  0.00  0.00    -0.198 F 
BRANCH   4  14
ATOM     11  C   UNL A   1     -21.310   0.533  28.779  0.00  0.00    -0.029 C 
ATOM     12  C   UNL A   1     -20.925   1.621  28.107  0.00  0.00    -0.028 C 
ATOM     13  C   UNL A   1     -23.098   1.630  26.959  0.00  0.00    +0.162 C 
ATOM     14  N   UNL A   1     -24.455   1.282  27.048  0.00  0.00    -0.298 N 
ATOM     15  C   UNL A   1     -23.534   1.010  27.704  0.00  0.00    +0.104 C 
ATOM     16  C   UNL A   1     -21.803   2.196  27.393  0.00  0.00    +0.056 C 
ATOM     17  C   UNL A   1     -22.661   0.123  28.643  0.00  0.00    +0.048 C 
BRANCH  13  18
ATOM     18  C   UNL A   1     -22.842   1.901  25.498  0.00  0.00    +0.328 C 
ATOM     19  F   UNL A   1     -22.048   2.829  25.080  0.00  0.00    -0.162 F 
ATOM     20  O   UNL A   1     -23.424   1.146  24.690  0.00  0.00    -0.257 OA
ENDBRANCH  13  18
ENDBRANCH   4  14
BRANCH   8  21
ATOM     21  O   UNL A   1     -28.193  -0.208  24.477  0.00  0.00    -0.456 OA
BRANCH  21  22
ATOM     22  C   UNL A   1     -29.460   0.005  23.866  0.00  0.00    +0.243 C 
BRANCH  22  23
ATOM     23  C   UNL A   1     -30.065  -1.377  23.573  0.00  0.00    +0.229 C 
ATOM     24  O   UNL A   1     -30.729  -1.878  24.721  0.00  0.00    -0.216 OA
ENDBRANCH  22  23
ENDBRANCH  21  22
ENDBRANCH   8  21
ENDBRANCH   1   5
BRANCH   1  25
ATOM     25  O   UNL A   1     -25.143   3.966  28.243  0.00  0.00    -0.405 OA
BRANCH  25  26
ATOM     26  C   UNL A   1     -25.293   3.182  29.234  0.00  0.00    +0.345 C 
ATOM     27  O   UNL A   1     -25.328   3.596  30.377  0.00  0.00    -0.248 OA
BRANCH  26  28
ATOM     28  C   UNL A   1     -25.408   1.902  29.042  0.00  0.00    +0.224 C 
BRANCH  28  29
ATOM     29  N   UNL A   1     -25.796   0.861  28.998  0.00  0.00    -0.193 NA
ATOM     30  C   UNL A   1     -25.817  -0.387  29.156  0.00  0.00    +0.247 C 
ATOM     31  O   UNL A   1     -26.686  -0.916  28.504  0.00  0.00    -0.273 OA
BRANCH  30  32
ATOM     32  C   UNL A   1     -24.855  -1.012  30.143  0.00  0.00    +0.116 C 
BRANCH  32  33
ATOM     33  C   UNL A   1     -24.973  -2.505  29.788  0.00  0.00    -0.013 C 
ATOM     34  C   UNL A   1     -23.906  -3.173  29.146  0.00  0.00    -0.004 C 
ATOM     35  C   UNL A   1     -23.989  -4.549  28.853  0.00  0.00    -0.000 C 
ATOM     36  C   UNL A   1     -25.137  -5.280  29.205  0.00  0.00    -0.000 C 
ATOM     37  C   UNL A   1     -26.232  -4.611  29.784  0.00  0.00    -0.000 C 
ATOM     38  C   UNL A   1     -26.155  -3.232  30.065  0.00  0.00    -0.004 C 
ENDBRANCH  32  33
BRANCH  32  39
ATOM     39  C   UNL A   1     -25.387  -0.679  31.571  0.00  0.00    +0.086 C 
ATOM     40  C   UNL A   1     -25.189   0.773  32.028  0.00  0.00    +0.020 C 
ATOM     41  C   UNL A   1     -25.336   0.684  33.544  0.00  0.00    +0.020 C 
ATOM     42  C   UNL A   1     -24.829  -0.715  33.905  0.00  0.00    +0.089 C 
ATOM     43  N   UNL A   1     -24.758  -1.481  32.646  0.00  0.00    -0.219 NA
ENDBRANCH  32  39
ENDBRANCH  30  32
ENDBRANCH  28  29
ENDBRANCH  26  28
ENDBRANCH  25  26
ENDBRANCH   1  25
TORSDOF 13
