REMARK  Name = No_3174-gen_results/8p0m/2024-11-27-11-27-31/
REMARK  0 active torsions:
REMARK  status: ('A' for Active; 'I' for Inactive)
REMARK                            x       y       z     vdW  Elec       q    Type
REMARK                         _______ _______ _______ _____ _____    ______ ____
ROOT
ATOM      1  C   UNL A   1     -28.016  -0.814  28.878  0.00  0.00    +0.043 A 
ATOM      2  C   UNL A   1     -27.064  -0.119  28.608  0.00  0.00    +0.015 A 
ATOM      3  C   UNL A   1     -25.765  -0.390  29.036  0.00  0.00    +0.058 A 
ATOM      4  C   UNL A   1     -25.489  -1.154  29.717  0.00  0.00    +0.015 A 
ATOM      5  C   UNL A   1     -26.490  -2.122  30.211  0.00  0.00    +0.043 A 
ATOM      6  C   UNL A   1     -27.730  -1.909  29.827  0.00  0.00    +0.196 A 
ATOM      7  O   UNL A   1     -28.688  -2.765  30.251  0.00  0.00    -0.287 OA
ATOM      8 CL   UNL A   1     -24.484   0.797  28.468  0.00  0.00    -0.082 Cl
ENDROOT
TORSDOF 0
