MODEL 3174
MODEL 1
REMARK VINA RESULT:    -4.283      0.000      0.000
REMARK INTER + INTRA:          -4.283
REMARK INTER:                  -4.283
REMARK INTRA:                   0.000
REMARK UNBOUND:                 0.000
REMARK  Name = No_3174-gen_results/8p0m/2024-11-27-11-27-31/
REMARK  0 active torsions:
REMARK  status: ('A' for Active; 'I' for Inactive)
REMARK                            x       y       z     vdW  Elec       q    Type
REMARK                         _______ _______ _______ _____ _____    ______ ____
ROOT
ATOM      1  C   UNL A   1     -28.802 -10.727  33.256  0.00  0.00    +0.043 A 
ATOM      2  C   UNL A   1     -29.201 -10.510  32.135  0.00  0.00    +0.015 A 
ATOM      3  C   UNL A   1     -28.832 -11.270  31.025  0.00  0.00    +0.058 A 
ATOM      4  C   UNL A   1     -28.097 -12.034  31.020  0.00  0.00    +0.015 A 
ATOM      5  C   UNL A   1     -27.446 -12.463  32.275  0.00  0.00    +0.043 A 
ATOM      6  C   UNL A   1     -27.769 -11.778  33.350  0.00  0.00    +0.196 A 
ATOM      7  O   UNL A   1     -27.201 -12.127  34.527  0.00  0.00    -0.287 OA
ATOM      8 CL   UNL A   1     -29.596 -10.764  29.434  0.00  0.00    -0.082 Cl
ENDROOT
TORSDOF 0
ENDMDL
ENDMDL
