MODEL 3175
MODEL 1
REMARK VINA RESULT:    -8.560      0.000      0.000
REMARK INTER + INTRA:          -9.518
REMARK INTER:                 -10.061
REMARK INTRA:                   0.544
REMARK UNBOUND:                 0.544
REMARK  Name = No_3175-gen_results/8p0m/2024-11-27-11-27-31/
REMARK  3 active torsions:
REMARK  status: ('A' for Active; 'I' for Inactive)
REMARK    1  A    between atoms: C_1  and  C_2
REMARK    2  A    between atoms: C_5  and  C_10
REMARK    3  A    between atoms: C_16  and  C_18
REMARK                            x       y       z     vdW  Elec       q    Type
REMARK                         _______ _______ _______ _____ _____    ______ ____
ROOT
ATOM      1  C   UNL A   1     -24.488   1.166  26.159  0.00  0.00    +0.249 C 
ATOM      2  N   UNL A   1     -24.563   0.164  27.099  0.00  0.00    -0.276 N 
ATOM      3  C   UNL A   1     -23.491  -0.133  27.862  0.00  0.00    +0.094 C 
ATOM      4  O   UNL A   1     -23.446   1.724  25.997  0.00  0.00    -0.270 OA
ATOM      5  C   UNL A   1     -25.740  -0.600  27.364  0.00  0.00    +0.094 C 
ATOM      6  C   UNL A   1     -26.173  -0.451  28.683  0.00  0.00    +0.027 C 
ATOM      7  C   UNL A   1     -25.226  -1.146  29.589  0.00  0.00    +0.038 C 
ATOM      8  C   UNL A   1     -23.841  -0.387  29.332  0.00  0.00    +0.026 C 
ATOM      9  C   UNL A   1     -25.456  -0.802  30.960  0.00  0.00    +0.093 C 
ATOM     10  C   UNL A   1     -22.749  -0.734  30.242  0.00  0.00    +0.021 C 
ATOM     11  N   UNL A   1     -24.673  -0.869  31.944  0.00  0.00    -0.218 NA
ATOM     12  C   UNL A   1     -23.304  -0.416  31.608  0.00  0.00    +0.089 C 
ENDROOT
BRANCH   1  13
ATOM     13  C   UNL A   1     -25.546   1.586  25.752  0.00  0.00    +0.054 A 
ATOM     14  C   UNL A   1     -26.173   2.705  26.265  0.00  0.00    +0.005 A 
ATOM     15  C   UNL A   1     -27.476   3.203  25.865  0.00  0.00    +0.005 A 
ATOM     16  C   UNL A   1     -28.187   2.514  24.858  0.00  0.00    +0.057 A 
ATOM     17  C   UNL A   1     -27.551   1.337  24.325  0.00  0.00    +0.005 A 
ATOM     18  C   UNL A   1     -26.331   0.862  24.746  0.00  0.00    +0.005 A 
BRANCH  16  19
ATOM     19  C   UNL A   1     -29.474   2.949  24.403  0.00  0.00    +0.284 C 
ATOM     20  O   UNL A   1     -29.905   2.573  23.281  0.00  0.00    -0.267 OA
ATOM     21  N   UNL A   1     -29.913   4.275  24.718  0.00  0.00    -0.084 NA
ENDBRANCH  16  19
ENDBRANCH   1  13
BRANCH   7  22
ATOM     22  C   UNL A   1     -25.059  -2.571  29.358  0.00  0.00    -0.021 A 
ATOM     23  C   UNL A   1     -24.182  -2.954  28.891  0.00  0.00    -0.004 A 
ATOM     24  C   UNL A   1     -23.946  -4.429  28.610  0.00  0.00    -0.000 A 
ATOM     25  C   UNL A   1     -24.985  -5.235  29.005  0.00  0.00    -0.000 A 
ATOM     26  C   UNL A   1     -26.081  -4.750  29.624  0.00  0.00    -0.000 A 
ATOM     27  C   UNL A   1     -26.170  -3.433  29.798  0.00  0.00    -0.004 A 
ENDBRANCH   7  22
TORSDOF 3
ENDMDL
ENDMDL
