MODEL 3176
MODEL 1
REMARK VINA RESULT:    -7.606      0.000      0.000
REMARK INTER + INTRA:          -8.344
REMARK INTER:                  -8.050
REMARK INTRA:                  -0.293
REMARK UNBOUND:                -0.293
REMARK  Name = No_3176-gen_results/8p0m/2024-11-27-11-27-31/
REMARK  1 active torsions:
REMARK  status: ('A' for Active; 'I' for Inactive)
REMARK    1  A    between atoms: N_3  and  C_4
REMARK                            x       y       z     vdW  Elec       q    Type
REMARK                         _______ _______ _______ _____ _____    ______ ____
ROOT
ATOM      1  C   UNL A   1     -24.911  -0.972  29.644  0.00  0.00    +0.048 A 
ATOM      2  C   UNL A   1     -25.851  -0.486  30.295  0.00  0.00    +0.015 A 
ATOM      3  C   UNL A   1     -24.961  -2.458  29.416  0.00  0.00    +0.013 A 
ATOM      4  C   UNL A   1     -26.085  -3.132  29.947  0.00  0.00    +0.001 A 
ATOM      5  C   UNL A   1     -27.002  -1.137  30.864  0.00  0.00    +0.001 A 
ATOM      6  C   UNL A   1     -27.120  -2.491  30.593  0.00  0.00    +0.000 A 
ATOM      7  C   UNL A   1     -26.147  -4.621  29.602  0.00  0.00    +0.000 A 
ATOM      8  C   UNL A   1     -25.069  -5.312  29.034  0.00  0.00    +0.000 A 
ATOM      9  C   UNL A   1     -23.919  -3.167  28.754  0.00  0.00    +0.001 A 
ATOM     10  C   UNL A   1     -23.981  -4.559  28.575  0.00  0.00    +0.000 A 
ENDROOT
BRANCH   1  13
ATOM     11  C   UNL A   1     -22.613  -0.265  29.780  0.00  0.00    +0.091 C 
ATOM     12  C   UNL A   1     -21.766  -0.257  29.153  0.00  0.00    +0.023 C 
ATOM     13  N   UNL A   1     -23.843  -0.269  29.141  0.00  0.00    -0.306 N 
ATOM     14  C   UNL A   1     -24.036   0.654  28.160  0.00  0.00    +0.107 C 
ATOM     15  C   UNL A   1     -22.791   1.038  27.455  0.00  0.00    +0.100 C 
ATOM     16  C   UNL A   1     -21.518   0.829  28.144  0.00  0.00    +0.020 C 
ATOM     17 CL   UNL A   1     -22.895   2.101  26.142  0.00  0.00    -0.113 Cl
ENDBRANCH   1  13
TORSDOF 1
ENDMDL
ENDMDL
