REMARK  Name = outputs/IAG933/test6/raw/output_3177_IAG933_linker_design_.xyz
REMARK  10 active torsions:
REMARK  status: ('A' for Active; 'I' for Inactive)
REMARK    1  A    between atoms: C_1  and  C_2
REMARK    2  A    between atoms: C_1  and  C_8
REMARK    3  A    between atoms: C_1  and  N_42
REMARK    4  A    between atoms: C_13  and  C_31
REMARK    5  A    between atoms: C_14  and  C_15
REMARK    6  A    between atoms: C_21  and  O_22
REMARK    7  A    between atoms: O_22  and  C_23
REMARK    8  A    between atoms: C_23  and  C_24
REMARK    9  A    between atoms: C_28  and  C_40
REMARK   10  A    between atoms: N_39  and  C_41
REMARK                            x       y       z     vdW  Elec       q    Type
REMARK                         _______ _______ _______ _____ _____    ______ ____
ROOT
ATOM      1  C   UNK     1     -22.395   0.775  28.238  0.00  0.00    +0.116 C 
ATOM      2  C   UNK     1     -24.671   1.034  27.254  0.00  0.00    +0.074 C 
ATOM      3  N   UNK     1     -21.101   0.824  28.133  0.00  0.00    -0.153 NA
ATOM      4  F   UNK     1     -22.172  -0.599  30.166  0.00  0.00    -0.212 F 
ATOM      5  C   UNK     1     -22.904   0.063  29.308  0.00  0.00    +0.262 C 
ATOM      6  C   UNK     1     -23.331   1.402  27.253  0.00  0.00    +0.140 C 
ATOM      7  C   UNK     1     -24.943   1.035  28.852  0.00  0.00    +0.144 C 
ATOM      8  N   UNK     1     -24.232   0.034  29.390  0.00  0.00    -0.223 NA
ENDROOT
BRANCH   2   9
ATOM      9  C   UNK     1     -25.688   1.614  26.461  0.00  0.00    +0.019 C 
ATOM     10  C   UNK     1     -26.250   2.920  26.395  0.00  0.00    +0.073 C 
ATOM     11  C   UNK     1     -27.438   3.091  25.645  0.00  0.00    +0.106 C 
ATOM     12  N   UNK     1     -28.075   2.089  25.003  0.00  0.00    -0.208 NA
ATOM     13  C   UNK     1     -27.543   0.849  25.079  0.00  0.00    +0.253 C 
ATOM     14  C   UNK     1     -26.354   0.576  25.777  0.00  0.00    +0.189 C 
ATOM     15  F   UNK     1     -25.860  -0.681  25.795  0.00  0.00    -0.200 F 
BRANCH  10  16
ATOM     16  C   UNK     1     -25.642   4.093  27.123  0.00  0.00    +0.266 C 
ATOM     17  N   UNK     1     -25.614   5.252  26.449  0.00  0.00    -0.200 NA
ATOM     18  C   UNK     1     -25.026   6.479  26.963  0.00  0.00    +0.139 C 
ATOM     19  O   UNK     1     -25.143   3.966  28.243  0.00  0.00    -0.268 OA
ENDBRANCH  10  16
BRANCH  13  20
ATOM     20  O   UNK     1     -28.193  -0.208  24.477  0.00  0.00    -0.456 OA
BRANCH  20  21
ATOM     21  C   UNK     1     -29.460   0.005  23.866  0.00  0.00    +0.243 C 
BRANCH  21  22
ATOM     22  C   UNK     1     -30.065  -1.377  23.573  0.00  0.00    +0.229 C 
ATOM     23  O   UNK     1     -30.729  -1.878  24.721  0.00  0.00    -0.216 OA
ENDBRANCH  21  22
ENDBRANCH  20  21
ENDBRANCH  13  20
ENDBRANCH   2   9
BRANCH   7  28
ATOM     24  O   ALA A   1     -27.674  -0.420  28.659  0.00  0.00    -0.273 OA
ATOM     25  C   ALA A   1     -27.187   0.547  29.073  0.00  0.00    +0.245 C 
ATOM     26  CB  ALA A   1     -26.519   3.447  30.268  0.00  0.00    +0.032 C 
ATOM     27  CA  ALA A   1     -27.346   1.920  29.864  0.00  0.00    +0.153 C 
ATOM     28  N   ALA A   1     -26.215   1.223  29.378  0.00  0.00    -0.259 N 
ENDBRANCH   7  28
BRANCH   6  29
ATOM     29  C   UNK     1     -22.867   2.137  26.082  0.00  0.00    +0.316 C 
ATOM     30  F   UNK     1     -21.627   2.503  26.043  0.00  0.00    -0.163 F 
ATOM     31  O   UNK     1     -23.469   2.443  25.150  0.00  0.00    -0.259 OA
ENDBRANCH   6  29
BRANCH   8  32
ATOM     32  C   UNK     1     -24.855  -1.012  30.143  0.00  0.00    +0.100 C 
BRANCH  32  33
ATOM     33  C   UNK     1     -24.973  -2.505  29.788  0.00  0.00    -0.006 C 
ATOM     34  C   UNK     1     -23.906  -3.173  29.146  0.00  0.00    -0.003 C 
ATOM     35  C   UNK     1     -23.989  -4.549  28.853  0.00  0.00    -0.000 C 
ATOM     36  C   UNK     1     -25.137  -5.280  29.205  0.00  0.00    -0.000 C 
ATOM     37  C   UNK     1     -26.232  -4.611  29.784  0.00  0.00    -0.000 C 
ATOM     38  C   UNK     1     -26.155  -3.232  30.065  0.00  0.00    -0.003 C 
ENDBRANCH  32  33
BRANCH  32  39
ATOM     39  C   UNK     1     -25.387  -0.679  31.571  0.00  0.00    +0.092 C 
ATOM     40  C   UNK     1     -25.189   0.773  32.028  0.00  0.00    +0.021 C 
ATOM     41  C   UNK     1     -25.336   0.684  33.544  0.00  0.00    +0.020 C 
ATOM     42  C   UNK     1     -24.829  -0.715  33.905  0.00  0.00    +0.089 C 
ATOM     43  N   UNK     1     -24.758  -1.481  32.646  0.00  0.00    -0.218 NA
ENDBRANCH  32  39
ENDBRANCH   8  32
TORSDOF 10
