MODEL 3177
MODEL 1
REMARK VINA RESULT:    -5.265      0.000      0.000
REMARK INTER + INTRA:          -6.033
REMARK INTER:                  -5.880
REMARK INTRA:                  -0.153
REMARK UNBOUND:                -0.153
REMARK  Name = No_3177-gen_results/8p0m/2024-11-27-11-27-31/
REMARK  2 active torsions:
REMARK  status: ('A' for Active; 'I' for Inactive)
REMARK    1  A    between atoms: C_4  and  C_7
REMARK    2  A    between atoms: C_7  and  C_9
REMARK                            x       y       z     vdW  Elec       q    Type
REMARK                         _______ _______ _______ _____ _____    ______ ____
ROOT
ATOM      1  C   UNL A   1     -26.522  -3.992  29.783  0.00  0.00    +0.000 A 
ATOM      2  C   UNL A   1     -26.022  -4.895  29.572  0.00  0.00    +0.000 A 
ATOM      3  C   UNL A   1     -25.700  -2.735  29.599  0.00  0.00    +0.001 A 
ATOM      4  C   UNL A   1     -24.409  -2.830  29.038  0.00  0.00    +0.015 A 
ATOM      5  C   UNL A   1     -24.726  -5.261  28.958  0.00  0.00    +0.000 A 
ATOM      6  C   UNL A   1     -23.944  -4.130  28.768  0.00  0.00    +0.001 A 
ENDROOT
BRANCH   4   7
ATOM      7  C   UNL A   1     -23.584  -1.684  28.859  0.00  0.00    +0.081 C 
ATOM      8  N   UNL A   1     -22.483  -1.638  29.094  0.00  0.00    -0.153 NA
BRANCH   7   9
ATOM      9  C   UNL A   1     -24.149  -0.451  28.283  0.00  0.00    +0.048 C 
ATOM     10  C   UNL A   1     -23.111   0.445  27.881  0.00  0.00    +0.007 C 
ENDBRANCH   7   9
ENDBRANCH   4   7
TORSDOF 2
ENDMDL
ENDMDL
