MODEL 3179
MODEL 1
REMARK VINA RESULT:    -8.078      0.000      0.000
REMARK INTER + INTRA:         -11.780
REMARK INTER:                 -10.439
REMARK INTRA:                  -1.341
REMARK UNBOUND:                -1.341
REMARK  Name = No_3179-gen_results/8p0m/2024-11-27-11-27-31/
REMARK  5 active torsions:
REMARK  status: ('A' for Active; 'I' for Inactive)
REMARK    1  A    between atoms: C_3  and  C_4
REMARK    2  A    between atoms: C_4  and  C_8
REMARK    3  A    between atoms: C_9  and  C_14
REMARK    4  A    between atoms: C_14  and  C_15
REMARK    5  A    between atoms: C_15  and  C_16
REMARK                            x       y       z     vdW  Elec       q    Type
REMARK                         _______ _______ _______ _____ _____    ______ ____
ROOT
ATOM      1  C   UNL A   1     -24.372   0.761  26.578  0.00  0.00    -0.022 A 
ATOM      2  C   UNL A   1     -23.670   0.437  27.698  0.00  0.00    -0.025 A 
ATOM      3  C   UNL A   1     -23.790   1.606  25.646  0.00  0.00    -0.004 A 
ATOM      4  C   UNL A   1     -22.542   2.167  25.890  0.00  0.00    -0.000 A 
ATOM      5  C   UNL A   1     -22.399   0.967  27.964  0.00  0.00    -0.005 A 
ATOM      6  C   UNL A   1     -21.843   1.859  27.047  0.00  0.00    -0.000 A 
ENDROOT
BRANCH   1   7
ATOM      7  C   UNL A   1     -25.732   0.213  26.446  0.00  0.00    +0.052 C 
BRANCH   7  10
ATOM      8  C   UNL A   1     -27.083   2.350  25.754  0.00  0.00    -0.004 A 
ATOM      9  C   UNL A   1     -27.835   2.687  25.097  0.00  0.00    -0.000 A 
ATOM     10  C   UNL A   1     -26.637   0.958  25.585  0.00  0.00    -0.018 A 
ATOM     11  C   UNL A   1     -28.410   2.088  23.869  0.00  0.00    -0.000 A 
ATOM     12  C   UNL A   1     -28.031   0.771  23.634  0.00  0.00    -0.000 A 
ATOM     13  C   UNL A   1     -27.114   0.150  24.456  0.00  0.00    -0.004 A 
ENDBRANCH   7  10
ENDBRANCH   1   7
BRANCH   2  14
ATOM     14  C   UNL A   1     -24.204  -0.435  28.714  0.00  0.00    +0.031 C 
BRANCH  14  15
ATOM     15  C   UNL A   1     -23.594  -1.672  28.915  0.00  0.00    +0.034 C 
BRANCH  15  16
ATOM     16  C   UNL A   1     -24.453  -2.734  29.140  0.00  0.00    +0.017 A 
ATOM     17  C   UNL A   1     -25.566  -2.541  29.727  0.00  0.00    -0.001 A 
ATOM     18  C   UNL A   1     -26.585  -3.590  29.928  0.00  0.00    -0.000 A 
ATOM     19  C   UNL A   1     -26.268  -4.890  29.591  0.00  0.00    +0.003 A 
ATOM     20  C   UNL A   1     -25.093  -5.119  28.885  0.00  0.00    +0.042 A 
ATOM     21  C   UNL A   1     -24.193  -4.033  28.664  0.00  0.00    +0.192 A 
ATOM     22  O   UNL A   1     -23.782  -4.713  29.303  0.00  0.00    -0.287 OA
ENDBRANCH  15  16
ENDBRANCH  14  15
ENDBRANCH   2  14
TORSDOF 5
ENDMDL
ENDMDL
