MODEL 317
MODEL 1
REMARK VINA RESULT:    -6.712      0.000      0.000
REMARK INTER + INTRA:          -8.824
REMARK INTER:                  -8.282
REMARK INTRA:                  -0.542
REMARK UNBOUND:                -0.542
REMARK  Name = No_317-gen_results/8p0m/2024-11-27-11-27-31/
REMARK  4 active torsions:
REMARK  status: ('A' for Active; 'I' for Inactive)
REMARK    1  A    between atoms: C_3  and  C_7
REMARK    2  A    between atoms: C_7  and  C_8
REMARK    3  A    between atoms: C_8  and  C_9
REMARK    4  A    between atoms: C_11  and  C_12
REMARK                            x       y       z     vdW  Elec       q    Type
REMARK                         _______ _______ _______ _____ _____    ______ ____
ROOT
ATOM      1  C   UNL A   1     -24.649  -0.557  29.754  0.00  0.00    +0.033 C 
ENDROOT
BRANCH   1   2
ATOM      2  C   UNL A   1     -23.573   0.040  28.980  0.00  0.00    -0.003 A 
ATOM      3  C   UNL A   1     -23.566   0.896  28.192  0.00  0.00    -0.005 A 
ATOM      4  C   UNL A   1     -22.649   1.371  27.467  0.00  0.00    -0.003 A 
ATOM      5  C   UNL A   1     -22.183  -0.436  29.381  0.00  0.00    +0.095 A 
ATOM      6  N   UNL A   1     -21.131   0.071  28.782  0.00  0.00    -0.243 NA
ATOM      7  C   UNL A   1     -21.253   0.978  27.787  0.00  0.00    +0.095 A 
BRANCH   4   8
ATOM      8  C   UNL A   1     -22.712   2.378  26.350  0.00  0.00    +0.028 C 
ATOM      9  C   UNL A   1     -23.523   1.992  25.299  0.00  0.00    +0.005 C 
ENDBRANCH   4   8
ENDBRANCH   1   2
BRANCH   1  10
ATOM     10  C   UNL A   1     -25.606  -1.396  29.089  0.00  0.00    +0.031 C 
BRANCH  10  13
ATOM     11  C   UNL A   1     -26.284  -3.759  29.728  0.00  0.00    -0.004 A 
ATOM     12  C   UNL A   1     -26.085  -4.787  29.615  0.00  0.00    -0.000 A 
ATOM     13  C   UNL A   1     -25.303  -2.896  29.058  0.00  0.00    -0.022 A 
ATOM     14  C   UNL A   1     -24.178  -3.372  28.524  0.00  0.00    -0.004 A 
ATOM     15  C   UNL A   1     -24.952  -5.524  29.110  0.00  0.00    -0.000 A 
ATOM     16  C   UNL A   1     -24.040  -4.704  28.514  0.00  0.00    -0.000 A 
ENDBRANCH  10  13
ENDBRANCH   1  10
TORSDOF 4
ENDMDL
ENDMDL
