REMARK  Name = outputs/IAG933/test6/raw/output_3180_IAG933_linker_design_.xyz
REMARK  15 active torsions:
REMARK  status: ('A' for Active; 'I' for Inactive)
REMARK    1  A    between atoms: C_1  and  C_2
REMARK    2  A    between atoms: C_1  and  C_8
REMARK    3  A    between atoms: C_9  and  C_34
REMARK    4  A    between atoms: C_13  and  C_29
REMARK    5  A    between atoms: C_14  and  C_15
REMARK    6  A    between atoms: C_21  and  O_22
REMARK    7  A    between atoms: O_22  and  C_23
REMARK    8  A    between atoms: C_23  and  C_24
REMARK    9  A    between atoms: C_28  and  C_36
REMARK   10  A    between atoms: C_29  and  C_36
REMARK   11  A    between atoms: C_29  and  C_40
REMARK   12  A    between atoms: N_31  and  C_35
REMARK   13  A    between atoms: N_31  and  C_40
REMARK   14  A    between atoms: C_34  and  C_35
REMARK   15  A    between atoms: C_34  and  C_39
REMARK                            x       y       z     vdW  Elec       q    Type
REMARK                         _______ _______ _______ _____ _____    ______ ____
ROOT
ATOM      1  C   UNL A   1     -24.373   1.442  27.058  0.00  0.00    +0.080 C 
ENDROOT
BRANCH   1   2
ATOM      2  C   UNL A   1     -25.688   1.614  26.461  0.00  0.00    +0.020 C 
ATOM      3  C   UNL A   1     -26.250   2.920  26.395  0.00  0.00    +0.073 C 
ATOM      4  C   UNL A   1     -27.438   3.091  25.645  0.00  0.00    +0.106 C 
ATOM      5  N   UNL A   1     -28.075   2.089  25.003  0.00  0.00    -0.208 NA
ATOM      6  C   UNL A   1     -27.543   0.849  25.079  0.00  0.00    +0.253 C 
ATOM      7  C   UNL A   1     -26.354   0.576  25.777  0.00  0.00    +0.189 C 
ATOM      8  F   UNL A   1     -25.860  -0.681  25.795  0.00  0.00    -0.200 F 
BRANCH   3   9
ATOM      9  C   UNL A   1     -25.642   4.093  27.123  0.00  0.00    +0.266 C 
ATOM     10  N   UNL A   1     -25.614   5.252  26.449  0.00  0.00    -0.200 NA
ATOM     11  C   UNL A   1     -25.026   6.479  26.963  0.00  0.00    +0.139 C 
ATOM     12  O   UNL A   1     -25.143   3.966  28.243  0.00  0.00    -0.268 OA
ENDBRANCH   3   9
BRANCH   6  13
ATOM     13  O   UNL A   1     -28.193  -0.208  24.477  0.00  0.00    -0.456 OA
BRANCH  13  14
ATOM     14  C   UNL A   1     -29.460   0.005  23.866  0.00  0.00    +0.243 C 
BRANCH  14  15
ATOM     15  C   UNL A   1     -30.065  -1.377  23.573  0.00  0.00    +0.229 C 
ATOM     16  O   UNL A   1     -30.729  -1.878  24.721  0.00  0.00    -0.216 OA
ENDBRANCH  14  15
ENDBRANCH  13  14
ENDBRANCH   6  13
ENDBRANCH   1   2
BRANCH   1  18
ATOM     17  O   UNL A   1     -22.939   2.780  25.615  0.00  0.00    -0.215 OA
ATOM     18  C   UNL A   1     -23.088   1.900  26.642  0.00  0.00    +0.217 C 
BRANCH  18  19
ATOM     19  C   UNL A   1     -22.156   1.614  27.484  0.00  0.00    +0.222 C 
ATOM     20  O   UNL A   1     -22.418   0.092  29.482  0.00  0.00    -0.229 OA
ATOM     21  C   UNL A   1     -22.485   0.820  28.491  0.00  0.00    +0.161 C 
ATOM     22  F   UNL A   1     -20.936   2.124  27.309  0.00  0.00    -0.195 F 
ENDBRANCH  18  19
ENDBRANCH   1  18
BRANCH   1  23
ATOM     23  C   UNL A   1     -24.547   0.897  28.373  0.00  0.00    +0.096 C 
BRANCH  23  24
ATOM     24  N   UNL A   1     -24.755   1.275  29.579  0.00  0.00    -0.217 NA
BRANCH  24  25
ATOM     25  C   UNL A   1     -25.876   2.107  29.968  0.00  0.00    +0.098 C 
BRANCH  25  26
ATOM     26  C   UNL A   1     -25.546   2.140  31.421  0.00  0.00    +0.099 C 
BRANCH  26  28
ATOM     27  C   UNL A   1     -25.387  -0.679  31.571  0.00  0.00    +0.078 C 
ATOM     28  C   UNL A   1     -25.189   0.773  32.028  0.00  0.00    +0.028 C 
ATOM     29  C   UNL A   1     -25.336   0.684  33.544  0.00  0.00    +0.021 C 
ATOM     30  C   UNL A   1     -24.829  -0.715  33.905  0.00  0.00    +0.089 C 
ATOM     31  N   UNL A   1     -24.758  -1.481  32.646  0.00  0.00    -0.219 NA
BRANCH  27  32
ATOM     32  C   UNL A   1     -24.855  -1.012  30.143  0.00  0.00    +0.044 C 
BRANCH  32  33
ATOM     33  C   UNL A   1     -24.973  -2.505  29.788  0.00  0.00    -0.021 C 
ATOM     34  C   UNL A   1     -23.906  -3.173  29.146  0.00  0.00    -0.004 C 
ATOM     35  C   UNL A   1     -23.989  -4.549  28.853  0.00  0.00    -0.000 C 
ATOM     36  C   UNL A   1     -25.137  -5.280  29.205  0.00  0.00    -0.000 C 
ATOM     37  C   UNL A   1     -26.232  -4.611  29.784  0.00  0.00    -0.000 C 
ATOM     38  C   UNL A   1     -26.155  -3.232  30.065  0.00  0.00    -0.004 C 
ENDBRANCH  32  33
ENDBRANCH  27  32
ENDBRANCH  26  28
BRANCH  26  40
ATOM     39  O   UNL A   1     -24.856   4.120  32.754  0.00  0.00    -0.272 OA
ATOM     40  C   UNL A   1     -25.788   3.359  32.303  0.00  0.00    +0.262 C 
ATOM     41  N   UNL A   1     -27.043   3.634  32.604  0.00  0.00    -0.088 NA
ENDBRANCH  26  40
ENDBRANCH  25  26
ENDBRANCH  24  25
ENDBRANCH  23  24
ENDBRANCH   1  23
TORSDOF 15
