MODEL 3180
MODEL 1
REMARK VINA RESULT:    -6.748      0.000      0.000
REMARK INTER + INTRA:          -7.218
REMARK INTER:                  -7.143
REMARK INTRA:                  -0.075
REMARK UNBOUND:                -0.075
REMARK  Name = No_3180-gen_results/8p0m/2024-11-27-11-27-31/
REMARK  1 active torsions:
REMARK  status: ('A' for Active; 'I' for Inactive)
REMARK    1  A    between atoms: C_10  and  C_12
REMARK                            x       y       z     vdW  Elec       q    Type
REMARK                         _______ _______ _______ _____ _____    ______ ____
ROOT
ATOM      1  C   UNL A   1     -30.765  -9.970  29.595  0.00  0.00    +0.001 A 
ATOM      2  C   UNL A   1     -29.975 -10.257  30.464  0.00  0.00    +0.000 A 
ATOM      3  C   UNL A   1     -28.988 -11.222  30.357  0.00  0.00    +0.001 A 
ATOM      4  C   UNL A   1     -28.883 -11.907  29.111  0.00  0.00    +0.011 A 
ATOM      5  C   UNL A   1     -29.679 -11.460  28.119  0.00  0.00    +0.058 A 
ATOM      6  C   UNL A   1     -30.540 -10.457  28.305  0.00  0.00    +0.011 A 
ATOM      7 CL   UNL A   1     -29.581 -12.059  26.546  0.00  0.00    -0.082 Cl
ATOM      8  C   UNL A   1     -29.980  -9.865  32.003  0.00  0.00    +0.000 A 
ATOM      9  C   UNL A   1     -29.203 -10.280  32.880  0.00  0.00    +0.005 A 
ATOM     10  C   UNL A   1     -28.205 -11.253  32.608  0.00  0.00    +0.057 A 
ATOM     11  C   UNL A   1     -28.118 -11.776  31.419  0.00  0.00    +0.005 A 
ENDROOT
BRANCH  10  12
ATOM     12  C   UNL A   1     -27.302 -11.672  33.729  0.00  0.00    +0.284 C 
ATOM     13  N   UNL A   1     -26.941 -10.760  34.630  0.00  0.00    -0.084 NA
ATOM     14  O   UNL A   1     -26.744 -12.823  33.772  0.00  0.00    -0.267 OA
ENDBRANCH  10  12
TORSDOF 1
ENDMDL
ENDMDL
