MODEL 3181
MODEL 1
REMARK VINA RESULT:    -6.147      0.000      0.000
REMARK INTER + INTRA:          -7.622
REMARK INTER:                  -7.225
REMARK INTRA:                  -0.397
REMARK UNBOUND:                -0.397
REMARK  Name = No_3181-gen_results/8p0m/2024-11-27-11-27-31/
REMARK  3 active torsions:
REMARK  status: ('A' for Active; 'I' for Inactive)
REMARK    1  A    between atoms: C_1  and  C_2
REMARK    2  A    between atoms: C_1  and  C_8
REMARK    3  A    between atoms: C_9  and  C_10
REMARK                            x       y       z     vdW  Elec       q    Type
REMARK                         _______ _______ _______ _____ _____    ______ ____
ROOT
ATOM      1  C   UNL A   1     -23.190  -1.896  29.025  0.00  0.00    +0.052 C 
ENDROOT
BRANCH   1   2
ATOM      2  C   UNL A   1     -24.120  -2.655  29.172  0.00  0.00    -0.018 A 
ATOM      3  C   UNL A   1     -25.339  -2.323  29.739  0.00  0.00    -0.004 A 
ATOM      4  C   UNL A   1     -26.434  -3.226  30.000  0.00  0.00    -0.000 A 
ATOM      5  C   UNL A   1     -26.286  -4.589  29.649  0.00  0.00    -0.000 A 
ATOM      6  C   UNL A   1     -25.061  -4.995  29.059  0.00  0.00    -0.000 A 
ATOM      7  C   UNL A   1     -24.075  -4.074  28.880  0.00  0.00    -0.004 A 
ENDBRANCH   1   2
BRANCH   1   8
ATOM      8  C   UNL A   1     -23.438  -0.491  28.569  0.00  0.00    -0.021 C 
ATOM      9  C   UNL A   1     -22.419   0.481  28.664  0.00  0.00    -0.005 C 
BRANCH   9  10
ATOM     10  C   UNL A   1     -22.379   1.486  27.778  0.00  0.00    -0.005 C 
ATOM     11  C   UNL A   1     -23.230   1.499  26.783  0.00  0.00    -0.026 C 
ATOM     12  C   UNL A   1     -23.090   2.387  25.617  0.00  0.00    +0.031 C 
ENDBRANCH   9  10
ENDBRANCH   1   8
TORSDOF 3
ENDMDL
ENDMDL
