REMARK  Name = outputs/IAG933/test6/raw/output_3182_IAG933_linker_design_.xyz
REMARK  13 active torsions:
REMARK  status: ('A' for Active; 'I' for Inactive)
REMARK    1  A    between atoms: C_1  and  C_2
REMARK    2  A    between atoms: C_1  and  C_8
REMARK    3  A    between atoms: C_1  and  N_33
REMARK    4  A    between atoms: C_13  and  N_29
REMARK    5  A    between atoms: C_14  and  C_15
REMARK    6  A    between atoms: C_21  and  O_22
REMARK    7  A    between atoms: O_22  and  C_23
REMARK    8  A    between atoms: C_23  and  C_24
REMARK    9  A    between atoms: C_28  and  N_29
REMARK   10  A    between atoms: C_28  and  N_33
REMARK   11  A    between atoms: C_28  and  C_37
REMARK   12  A    between atoms: N_29  and  C_36
REMARK   13  A    between atoms: O_31  and  C_36
REMARK                            x       y       z     vdW  Elec       q    Type
REMARK                         _______ _______ _______ _____ _____    ______ ____
ROOT
ATOM      1  N   UNL A   1     -24.409   1.344  27.048  0.00  0.00    -0.246 N 
ENDROOT
BRANCH   1   2
ATOM      2  C   UNL A   1     -25.688   1.614  26.461  0.00  0.00    +0.090 C 
ATOM      3  C   UNL A   1     -26.250   2.920  26.395  0.00  0.00    +0.090 C 
ATOM      4  C   UNL A   1     -27.438   3.091  25.645  0.00  0.00    +0.108 C 
ATOM      5  N   UNL A   1     -28.075   2.089  25.003  0.00  0.00    -0.208 NA
ATOM      6  C   UNL A   1     -27.543   0.849  25.079  0.00  0.00    +0.255 C 
ATOM      7  C   UNL A   1     -26.354   0.576  25.777  0.00  0.00    +0.206 C 
ATOM      8  F   UNL A   1     -25.860  -0.681  25.795  0.00  0.00    -0.198 F 
BRANCH   3   9
ATOM      9  C   UNL A   1     -25.642   4.093  27.123  0.00  0.00    +0.268 C 
ATOM     10  N   UNL A   1     -25.614   5.252  26.449  0.00  0.00    -0.200 NA
ATOM     11  C   UNL A   1     -25.026   6.479  26.963  0.00  0.00    +0.139 C 
ATOM     12  O   UNL A   1     -25.143   3.966  28.243  0.00  0.00    -0.268 OA
ENDBRANCH   3   9
BRANCH   6  13
ATOM     13  O   UNL A   1     -28.193  -0.208  24.477  0.00  0.00    -0.456 OA
BRANCH  13  14
ATOM     14  C   UNL A   1     -29.460   0.005  23.866  0.00  0.00    +0.243 C 
BRANCH  14  15
ATOM     15  C   UNL A   1     -30.065  -1.377  23.573  0.00  0.00    +0.229 C 
ATOM     16  O   UNL A   1     -30.729  -1.878  24.721  0.00  0.00    -0.216 OA
ENDBRANCH  14  15
ENDBRANCH  13  14
ENDBRANCH   6  13
ENDBRANCH   1   2
BRANCH   1  17
ATOM     17  C   UNL A   1     -23.263   1.668  26.356  0.00  0.00    +0.317 C 
ATOM     18 CL   UNL A   1     -23.162   2.506  24.944  0.00  0.00    -0.057 Cl
BRANCH  17  20
ATOM     19  F   UNL A   1     -21.172   1.801  27.050  0.00  0.00    -0.044 F 
ATOM     20  O   UNL A   1     -22.154   1.031  26.616  0.00  0.00    -0.143 OA
ENDBRANCH  17  20
ENDBRANCH   1  17
BRANCH   1  21
ATOM     21  C   UNL A   1     -24.397   0.472  28.177  0.00  0.00    +0.238 C 
BRANCH  21  24
ATOM     22  O   UNL A   1     -23.178   1.855  29.462  0.00  0.00    -0.268 OA
ATOM     23  N   UNL A   1     -22.454  -0.181  29.408  0.00  0.00    -0.085 NA
ATOM     24  C   UNL A   1     -23.316   0.711  29.077  0.00  0.00    +0.299 C 
ENDBRANCH  21  24
BRANCH  21  25
ATOM     25  N   UNL A   1     -25.392  -0.120  29.091  0.00  0.00    -0.247 N 
ATOM     26  C   UNL A   1     -26.671   0.277  28.998  0.00  0.00    +0.305 C 
ATOM     27  O   UNL A   1     -27.645  -0.456  28.967  0.00  0.00    -0.265 OA
BRANCH  25  28
ATOM     28  C   UNL A   1     -24.855  -1.012  30.143  0.00  0.00    +0.116 C 
BRANCH  28  29
ATOM     29  C   UNL A   1     -24.973  -2.505  29.788  0.00  0.00    -0.003 C 
ATOM     30  C   UNL A   1     -23.906  -3.173  29.146  0.00  0.00    -0.003 C 
ATOM     31  C   UNL A   1     -23.989  -4.549  28.853  0.00  0.00    -0.000 C 
ATOM     32  C   UNL A   1     -25.137  -5.280  29.205  0.00  0.00    -0.000 C 
ATOM     33  C   UNL A   1     -26.232  -4.611  29.784  0.00  0.00    -0.000 C 
ATOM     34  C   UNL A   1     -26.155  -3.232  30.065  0.00  0.00    -0.003 C 
ENDBRANCH  28  29
BRANCH  28  35
ATOM     35  C   UNL A   1     -25.387  -0.679  31.571  0.00  0.00    +0.095 C 
ATOM     36  C   UNL A   1     -25.189   0.773  32.028  0.00  0.00    +0.021 C 
ATOM     37  C   UNL A   1     -25.336   0.684  33.544  0.00  0.00    +0.020 C 
ATOM     38  C   UNL A   1     -24.829  -0.715  33.905  0.00  0.00    +0.089 C 
ATOM     39  N   UNL A   1     -24.758  -1.481  32.646  0.00  0.00    -0.217 NA
ENDBRANCH  28  35
ENDBRANCH  25  28
ENDBRANCH  21  25
ENDBRANCH   1  21
TORSDOF 13
