MODEL 3183
MODEL 1
REMARK VINA RESULT:    -7.300      0.000      0.000
REMARK INTER + INTRA:         -15.461
REMARK INTER:                 -11.994
REMARK INTRA:                  -3.467
REMARK UNBOUND:                -3.467
REMARK  Name = No_3183-gen_results/8p0m/2024-11-27-11-27-31/
REMARK  11 active torsions:
REMARK  status: ('A' for Active; 'I' for Inactive)
REMARK    1  A    between atoms: C_3  and  C_7
REMARK    2  A    between atoms: C_6  and  C_24
REMARK    3  A    between atoms: C_7  and  C_8
REMARK    4  A    between atoms: C_12  and  C_14
REMARK    5  A    between atoms: N_15  and  C_16
REMARK    6  A    between atoms: C_21  and  C_27
REMARK    7  A    between atoms: C_24  and  O_26
REMARK    8  A    between atoms: O_26  and  C_30
REMARK    9  A    between atoms: C_30  and  C_31
REMARK   10  A    between atoms: C_32  and  C_33
REMARK   11  A    between atoms: C_33  and  C_34
REMARK                            x       y       z     vdW  Elec       q    Type
REMARK                         _______ _______ _______ _____ _____    ______ ____
ROOT
ATOM      1  C   UNL A   1     -23.365  -0.075  28.002  0.00  0.00    -0.018 A 
ATOM      2  C   UNL A   1     -22.512   0.984  27.895  0.00  0.00    -0.004 A 
ATOM      3  C   UNL A   1     -22.745   2.030  26.942  0.00  0.00    -0.000 A 
ATOM      4  C   UNL A   1     -23.965   1.953  26.220  0.00  0.00    +0.005 A 
ATOM      5  C   UNL A   1     -24.838   0.898  26.345  0.00  0.00    +0.055 A 
ATOM      6  C   UNL A   1     -24.568  -0.105  27.309  0.00  0.00    +0.001 A 
ENDROOT
BRANCH   5   7
ATOM      7  C   UNL A   1     -26.074   0.900  25.529  0.00  0.00    +0.269 C 
ATOM      8  N   UNL A   1     -26.995   1.377  25.429  0.00  0.00    -0.175 NA
ATOM      9  O   UNL A   1     -25.861   0.024  24.434  0.00  0.00    -0.268 OA
BRANCH   8  10
ATOM     10  C   UNL A   1     -28.071   1.235  24.641  0.00  0.00    +0.074 A 
ATOM     11  C   UNL A   1     -28.405   2.279  23.753  0.00  0.00    +0.017 A 
ATOM     12  C   UNL A   1     -29.614   2.222  22.986  0.00  0.00    +0.002 A 
ATOM     13  C   UNL A   1     -30.424   1.088  23.089  0.00  0.00    +0.007 A 
ATOM     14  C   UNL A   1     -30.086   0.099  23.953  0.00  0.00    +0.081 A 
ATOM     15  C   UNL A   1     -28.969   0.201  24.770  0.00  0.00    +0.023 A 
BRANCH  14  16
ATOM     16  C   UNL A   1     -31.007  -1.079  24.130  0.00  0.00    +0.388 C 
ATOM     17  O   UNL A   1     -32.043  -1.226  24.102  0.00  0.00    -0.241 OA
ATOM     18  O   UNL A   1     -30.177  -2.216  24.337  0.00  0.00    -0.241 OA
ENDBRANCH  14  16
ENDBRANCH   8  10
ENDBRANCH   5   7
BRANCH   1  19
ATOM     19  C   UNL A   1     -23.123  -1.051  29.029  0.00  0.00    +0.053 C 
BRANCH  19  22
ATOM     20  C   UNL A   1     -24.084  -3.396  28.904  0.00  0.00    +0.007 A 
ATOM     21  C   UNL A   1     -24.852  -4.068  29.166  0.00  0.00    +0.058 A 
ATOM     22  C   UNL A   1     -24.272  -2.031  29.302  0.00  0.00    -0.017 A 
ATOM     23  C   UNL A   1     -25.414  -1.575  29.826  0.00  0.00    +0.003 A 
ATOM     24  C   UNL A   1     -26.174  -3.796  29.714  0.00  0.00    +0.018 A 
ATOM     25  C   UNL A   1     -26.372  -2.533  30.067  0.00  0.00    +0.076 A 
ATOM     26 CL   UNL A   1     -24.694  -5.847  28.688  0.00  0.00    -0.082 Cl
BRANCH  25  27
ATOM     27  C   UNL A   1     -27.701  -2.114  30.684  0.00  0.00    +0.342 C 
ATOM     28  O   UNL A   1     -27.982  -2.089  31.767  0.00  0.00    -0.245 OA
BRANCH  27  29
ATOM     29  O   UNL A   1     -28.515  -1.491  29.696  0.00  0.00    -0.441 OA
BRANCH  29  30
ATOM     30  C   UNL A   1     -28.622  -0.125  29.764  0.00  0.00    +0.235 C 
BRANCH  30  31
ATOM     31  C   UNL A   1     -28.123   0.547  28.755  0.00  0.00    +0.017 C 
ATOM     32  C   UNL A   1     -27.375   1.688  28.917  0.00  0.00    -0.022 C 
BRANCH  32  33
ATOM     33  C   UNL A   1     -26.721   1.864  30.061  0.00  0.00    +0.052 C 
BRANCH  33  34
ATOM     34  C   UNL A   1     -25.406   2.293  30.070  0.00  0.00    -0.021 C 
ATOM     35  C   UNL A   1     -24.544   1.782  31.052  0.00  0.00    -0.005 C 
ENDBRANCH  33  34
ENDBRANCH  32  33
ENDBRANCH  30  31
ENDBRANCH  29  30
ENDBRANCH  27  29
ENDBRANCH  25  27
ENDBRANCH  19  22
ENDBRANCH   1  19
TORSDOF 11
ENDMDL
ENDMDL
