MODEL 3184
MODEL 1
REMARK VINA RESULT:    -4.300      0.000      0.000
REMARK INTER + INTRA:          -4.300
REMARK INTER:                  -4.300
REMARK INTRA:                   0.000
REMARK UNBOUND:                 0.000
REMARK  Name = No_3184-gen_results/8p0m/2024-11-27-11-27-31/
REMARK  0 active torsions:
REMARK  status: ('A' for Active; 'I' for Inactive)
REMARK                            x       y       z     vdW  Elec       q    Type
REMARK                         _______ _______ _______ _____ _____    ______ ____
ROOT
ATOM      1  C   UNL A   1     -24.950  -5.438  28.984  0.00  0.00    +0.000 A 
ATOM      2  C   UNL A   1     -24.189  -4.757  28.723  0.00  0.00    +0.000 A 
ATOM      3  C   UNL A   1     -26.118  -4.804  29.596  0.00  0.00    +0.000 A 
ATOM      4  C   UNL A   1     -26.197  -3.446  29.782  0.00  0.00    +0.000 A 
ATOM      5  C   UNL A   1     -24.002  -3.308  28.796  0.00  0.00    +0.000 A 
ATOM      6  C   UNL A   1     -25.128  -2.685  29.386  0.00  0.00    +0.000 A 
ENDROOT
TORSDOF 0
ENDMDL
ENDMDL
