MODEL 3185
MODEL 1
REMARK VINA RESULT:    -5.890      0.000      0.000
REMARK INTER + INTRA:          -6.857
REMARK INTER:                  -6.579
REMARK INTRA:                  -0.278
REMARK UNBOUND:                -0.278
REMARK  Name = No_3185-gen_results/8p0m/2024-11-27-11-27-31/
REMARK  2 active torsions:
REMARK  status: ('A' for Active; 'I' for Inactive)
REMARK    1  A    between atoms: C_2  and  C_11
REMARK    2  A    between atoms: C_3  and  C_7
REMARK                            x       y       z     vdW  Elec       q    Type
REMARK                         _______ _______ _______ _____ _____    ______ ____
ROOT
ATOM      1  C   UNL A   1     -28.340 -11.855  31.135  0.00  0.00    +0.010 A 
ATOM      2  C   UNL A   1     -28.274 -11.499  32.124  0.00  0.00    +0.080 A 
ATOM      3  C   UNL A   1     -29.310 -11.129  30.315  0.00  0.00    +0.072 A 
ATOM      4  C   UNL A   1     -30.036 -10.073  30.808  0.00  0.00    +0.004 A 
ATOM      5  C   UNL A   1     -28.897 -10.428  32.902  0.00  0.00    +0.007 A 
ATOM      6  C   UNL A   1     -29.837  -9.719  32.117  0.00  0.00    +0.000 A 
ENDROOT
BRANCH   3   7
ATOM      7  C   UNL A   1     -29.517 -11.459  28.875  0.00  0.00    +0.419 C 
ATOM      8  F   UNL A   1     -28.538 -11.760  28.356  0.00  0.00    -0.166 F 
ATOM      9  F   UNL A   1     -30.461 -12.467  28.804  0.00  0.00    -0.166 F 
ATOM     10  F   UNL A   1     -30.136 -10.458  28.132  0.00  0.00    -0.166 F 
ENDBRANCH   3   7
BRANCH   2  11
ATOM     11  C   UNL A   1     -27.153 -12.175  33.099  0.00  0.00    +0.388 C 
ATOM     12  O   UNL A   1     -26.396 -13.038  32.566  0.00  0.00    -0.241 OA
ATOM     13  O   UNL A   1     -27.369 -12.327  34.269  0.00  0.00    -0.241 OA
ENDBRANCH   2  11
TORSDOF 2
ENDMDL
ENDMDL
