MODEL 3186
MODEL 1
REMARK VINA RESULT:    -6.473      0.000      0.000
REMARK INTER + INTRA:          -6.645
REMARK INTER:                  -6.852
REMARK INTRA:                   0.207
REMARK UNBOUND:                 0.207
REMARK  Name = No_3186-gen_results/8p0m/2024-11-27-11-27-31/
REMARK  1 active torsions:
REMARK  status: ('A' for Active; 'I' for Inactive)
REMARK    1  A    between atoms: C_2  and  C_3
REMARK                            x       y       z     vdW  Elec       q    Type
REMARK                         _______ _______ _______ _____ _____    ______ ____
ROOT
ATOM      1  O   UNL A   1     -25.178  -1.410  31.118  0.00  0.00    -0.270 OA
ATOM      2  C   UNL A   1     -24.797  -1.677  30.064  0.00  0.00    +0.249 C 
ATOM      3  N   UNL A   1     -25.315  -2.809  29.274  0.00  0.00    -0.276 N 
ATOM      4  C   UNL A   1     -26.087  -3.618  29.605  0.00  0.00    +0.094 C 
ATOM      5  C   UNL A   1     -26.173  -4.668  29.722  0.00  0.00    +0.022 C 
ATOM      6  C   UNL A   1     -24.954  -5.456  29.280  0.00  0.00    +0.004 C 
ATOM      7  C   UNL A   1     -24.129  -4.773  28.440  0.00  0.00    +0.022 C 
ATOM      8  C   UNL A   1     -24.202  -3.322  28.427  0.00  0.00    +0.094 C 
ENDROOT
BRANCH   2   9
ATOM      9  C   UNL A   1     -23.910  -0.862  29.390  0.00  0.00    +0.054 A 
ATOM     10  C   UNL A   1     -24.310   0.134  28.462  0.00  0.00    +0.004 A 
ATOM     11  C   UNL A   1     -22.475  -0.956  29.595  0.00  0.00    +0.004 A 
ATOM     12  C   UNL A   1     -23.353   0.853  27.710  0.00  0.00    +0.000 A 
ATOM     13  C   UNL A   1     -21.526  -0.074  29.008  0.00  0.00    +0.000 A 
ATOM     14  C   UNL A   1     -22.029   0.833  28.031  0.00  0.00    +0.000 A 
ENDBRANCH   2   9
TORSDOF 1
ENDMDL
ENDMDL
