MODEL 3187
MODEL 1
REMARK VINA RESULT:    -7.330      0.000      0.000
REMARK INTER + INTRA:         -11.499
REMARK INTER:                  -9.900
REMARK INTRA:                  -1.599
REMARK UNBOUND:                -1.599
REMARK  Name = No_3187-gen_results/8p0m/2024-11-27-11-27-31/
REMARK  6 active torsions:
REMARK  status: ('A' for Active; 'I' for Inactive)
REMARK    1  A    between atoms: C_2  and  C_23
REMARK    2  A    between atoms: C_4  and  C_7
REMARK    3  A    between atoms: C_7  and  C_8
REMARK    4  A    between atoms: C_8  and  C_11
REMARK    5  A    between atoms: C_11  and  C_12
REMARK    6  A    between atoms: C_12  and  C_14
REMARK                            x       y       z     vdW  Elec       q    Type
REMARK                         _______ _______ _______ _____ _____    ______ ____
ROOT
ATOM      1  C   UNL A   1     -23.574   0.562  28.828  0.00  0.00    -0.026 C 
ATOM      2  C   UNL A   1     -24.003   1.653  28.022  0.00  0.00    +0.068 C 
ATOM      3  C   UNL A   1     -24.498   1.459  26.758  0.00  0.00    +0.093 C 
ATOM      4  C   UNL A   1     -24.480   2.616  25.867  0.00  0.00    +0.099 C 
ATOM      5  N   UNL A   1     -24.479   3.688  26.579  0.00  0.00    -0.162 NA
ATOM      6  N   UNL A   1     -23.981   3.094  27.975  0.00  0.00    -0.122 NA
ENDROOT
BRANCH   1   7
ATOM      7  C   UNL A   1     -22.962   0.771  30.071  0.00  0.00    +0.052 C 
BRANCH   7  11
ATOM      8  C   UNL A   1     -25.579   1.358  32.822  0.00  0.00    +0.036 A 
ATOM      9  C   UNL A   1     -25.397   0.476  33.368  0.00  0.00    +0.082 A 
ATOM     10  C   UNL A   1     -24.725   1.594  31.647  0.00  0.00    +0.137 A 
ATOM     11  C   UNL A   1     -23.804   0.598  31.208  0.00  0.00    +0.009 A 
ATOM     12  C   UNL A   1     -24.559  -0.725  33.101  0.00  0.00    +0.006 A 
ATOM     13  C   UNL A   1     -23.745  -0.541  32.024  0.00  0.00    -0.002 A 
ATOM     14  F   UNL A   1     -24.799   2.699  30.914  0.00  0.00    -0.204 F 
BRANCH   9  15
ATOM     15  C   UNL A   1     -26.385   0.227  34.640  0.00  0.00    +0.388 C 
ATOM     16  O   UNL A   1     -26.713   1.257  35.335  0.00  0.00    -0.241 OA
ATOM     17  O   UNL A   1     -26.480  -0.909  35.102  0.00  0.00    -0.241 OA
ENDBRANCH   9  15
ENDBRANCH   7  11
ENDBRANCH   1   7
BRANCH   1  18
ATOM     18  C   UNL A   1     -23.885  -0.741  28.309  0.00  0.00    +0.028 C 
BRANCH  18  19
ATOM     19  C   UNL A   1     -23.260  -1.897  28.929  0.00  0.00    +0.031 C 
BRANCH  19  20
ATOM     20  C   UNL A   1     -24.325  -3.007  29.192  0.00  0.00    -0.021 A 
ATOM     21  C   UNL A   1     -24.018  -4.086  28.885  0.00  0.00    -0.004 A 
ATOM     22  C   UNL A   1     -25.007  -5.201  29.046  0.00  0.00    +0.000 A 
ATOM     23  C   UNL A   1     -26.224  -4.887  29.628  0.00  0.00    +0.007 A 
ATOM     24  C   UNL A   1     -26.528  -3.585  30.036  0.00  0.00    +0.034 A 
ATOM     25  C   UNL A   1     -25.558  -2.618  29.790  0.00  0.00    +0.002 A 
ATOM     26 BR   UNL A   1     -28.202  -3.149  30.745  0.00  0.00    -0.049 Br
ENDBRANCH  19  20
ENDBRANCH  18  19
ENDBRANCH   1  18
TORSDOF 6
ENDMDL
ENDMDL
