REMARK  Name = No_3188-gen_results/8p0m/2024-11-27-11-27-31/
REMARK  8 active torsions:
REMARK  status: ('A' for Active; 'I' for Inactive)
REMARK    1  A    between atoms: C_5  and  C_11
REMARK    2  A    between atoms: C_7  and  C_17
REMARK    3  A    between atoms: C_8  and  C_14
REMARK    4  A    between atoms: C_23  and  C_25
REMARK    5  A    between atoms: C_25  and  N_26
REMARK    6  A    between atoms: N_26  and  C_27
REMARK    7  A    between atoms: C_28  and  C_29
REMARK    8  A    between atoms: C_29  and  C_30
REMARK                            x       y       z     vdW  Elec       q    Type
REMARK                         _______ _______ _______ _____ _____    ______ ____
ROOT
ATOM      1  C   UNL A   1     -28.016  -0.814  28.878  0.00  0.00    +0.007 A 
ATOM      2  C   UNL A   1     -27.064  -0.119  28.608  0.00  0.00    +0.005 A 
ATOM      3  C   UNL A   1     -25.765  -0.390  29.036  0.00  0.00    +0.000 A 
ATOM      4  C   UNL A   1     -24.552   0.406  28.765  0.00  0.00    +0.007 A 
ATOM      5  C   UNL A   1     -24.696   1.448  27.799  0.00  0.00    +0.080 A 
ATOM      6  C   UNL A   1     -26.001   1.678  27.297  0.00  0.00    +0.011 A 
ATOM      7  C   UNL A   1     -27.074   0.968  27.650  0.00  0.00    +0.054 A 
ATOM      8  C   UNL A   1     -27.940  -1.646  30.120  0.00  0.00    +0.080 A 
ATOM      9  C   UNL A   1     -26.641  -2.138  30.494  0.00  0.00    +0.007 A 
ATOM     10  C   UNL A   1     -25.529  -1.402  30.089  0.00  0.00    +0.000 A 
ENDROOT
BRANCH   7  11
ATOM     11  C   UNL A   1     -28.388   1.301  26.992  0.00  0.00    +0.249 C 
ATOM     12  O   UNL A   1     -29.099   2.008  27.528  0.00  0.00    -0.270 OA
ATOM     13  N   UNL A   1     -28.584   0.652  25.830  0.00  0.00    -0.276 N 
ATOM     14  C   UNL A   1     -29.816   0.753  25.088  0.00  0.00    +0.095 C 
ATOM     15  C   UNL A   1     -27.599  -0.127  25.069  0.00  0.00    +0.094 C 
ATOM     16  C   UNL A   1     -27.925  -0.698  23.886  0.00  0.00    +0.022 C 
ATOM     17  C   UNL A   1     -30.098   0.003  24.015  0.00  0.00    +0.042 C 
ATOM     18  C   UNL A   1     -29.133  -0.701  23.362  0.00  0.00    +0.005 C 
BRANCH  17  19
ATOM     19  C   UNL A   1     -31.472  -0.018  23.383  0.00  0.00    +0.114 C 
BRANCH  19  20
ATOM     20  N   UNL A   1     -32.369  -0.934  23.846  0.00  0.00    -0.237 NA
BRANCH  20  21
ATOM     21  C   UNL A   1     -32.603  -1.054  25.186  0.00  0.00    +0.076 C 
ATOM     22  C   UNL A   1     -33.240  -2.272  25.654  0.00  0.00    -0.004 C 
BRANCH  22  23
ATOM     23  C   UNL A   1     -33.444  -3.104  24.961  0.00  0.00    +0.053 C 
BRANCH  23  24
ATOM     24  C   UNL A   1     -34.158  -4.305  25.433  0.00  0.00    -0.026 C 
ATOM     25  C   UNL A   1     -34.381  -4.465  26.703  0.00  0.00    -0.030 C 
ATOM     26  C   UNL A   1     -34.084  -3.483  27.617  0.00  0.00    +0.030 C 
ENDBRANCH  23  24
ENDBRANCH  22  23
ENDBRANCH  20  21
ENDBRANCH  19  20
ENDBRANCH  17  19
ENDBRANCH   7  11
BRANCH   5  27
ATOM     27  C   UNL A   1     -23.502   2.236  27.434  0.00  0.00    +0.388 C 
ATOM     28  O   UNL A   1     -23.546   2.941  26.362  0.00  0.00    -0.241 OA
ATOM     29  O   UNL A   1     -22.368   2.096  28.028  0.00  0.00    -0.241 OA
ENDBRANCH   5  27
BRANCH   8  30
ATOM     30  C   UNL A   1     -29.087  -2.490  30.550  0.00  0.00    +0.388 C 
ATOM     31  O   UNL A   1     -30.028  -2.034  30.911  0.00  0.00    -0.241 OA
ATOM     32  O   UNL A   1     -28.874  -3.779  30.583  0.00  0.00    -0.241 OA
ENDBRANCH   8  30
TORSDOF 8
