MODEL 3188
MODEL 1
REMARK VINA RESULT:    -6.306      0.000      0.000
REMARK INTER + INTRA:         -11.431
REMARK INTER:                  -9.255
REMARK INTRA:                  -2.175
REMARK UNBOUND:                -2.175
REMARK  Name = No_3188-gen_results/8p0m/2024-11-27-11-27-31/
REMARK  8 active torsions:
REMARK  status: ('A' for Active; 'I' for Inactive)
REMARK    1  A    between atoms: C_5  and  C_11
REMARK    2  A    between atoms: C_7  and  C_17
REMARK    3  A    between atoms: C_8  and  C_14
REMARK    4  A    between atoms: C_23  and  C_25
REMARK    5  A    between atoms: C_25  and  N_26
REMARK    6  A    between atoms: N_26  and  C_27
REMARK    7  A    between atoms: C_28  and  C_29
REMARK    8  A    between atoms: C_29  and  C_30
REMARK                            x       y       z     vdW  Elec       q    Type
REMARK                         _______ _______ _______ _____ _____    ______ ____
ROOT
ATOM      1  C   UNL A   1     -13.431   2.788  38.125  0.00  0.00    +0.007 A 
ATOM      2  C   UNL A   1     -12.780   2.381  37.191  0.00  0.00    +0.005 A 
ATOM      3  C   UNL A   1     -13.142   2.571  35.858  0.00  0.00    +0.000 A 
ATOM      4  C   UNL A   1     -12.417   2.101  34.661  0.00  0.00    +0.007 A 
ATOM      5  C   UNL A   1     -11.111   1.572  34.894  0.00  0.00    +0.080 A 
ATOM      6  C   UNL A   1     -10.703   1.450  36.245  0.00  0.00    +0.011 A 
ATOM      7  C   UNL A   1     -11.447   1.823  37.288  0.00  0.00    +0.054 A 
ATOM      8  C   UNL A   1     -14.897   3.002  37.912  0.00  0.00    +0.080 A 
ATOM      9  C   UNL A   1     -15.308   3.414  36.596  0.00  0.00    +0.007 A 
ATOM     10  C   UNL A   1     -14.502   3.045  35.521  0.00  0.00    +0.000 A 
ENDROOT
BRANCH   7  11
ATOM     11  C   UNL A   1     -10.855   1.675  38.666  0.00  0.00    +0.249 C 
ATOM     12  O   UNL A   1     -10.308   2.563  39.119  0.00  0.00    -0.270 OA
ATOM     13  N   UNL A   1     -11.009   0.444  39.185  0.00  0.00    -0.276 N 
ATOM     14  C   UNL A   1     -10.432   0.062  40.450  0.00  0.00    +0.095 C 
ATOM     15  C   UNL A   1     -11.852  -0.641  38.667  0.00  0.00    +0.094 C 
ATOM     16  C   UNL A   1     -11.943  -1.825  39.317  0.00  0.00    +0.022 C 
ATOM     17  C   UNL A   1     -10.437  -1.193  40.918  0.00  0.00    +0.042 C 
ATOM     18  C   UNL A   1     -11.241  -2.152  40.382  0.00  0.00    +0.005 C 
BRANCH  17  19
ATOM     19  C   UNL A   1      -9.649  -1.601  42.143  0.00  0.00    +0.114 C 
BRANCH  19  20
ATOM     20  N   UNL A   1      -9.917  -0.956  43.313  0.00  0.00    -0.237 NA
BRANCH  20  21
ATOM     21  C   UNL A   1     -10.873  -1.436  44.163  0.00  0.00    +0.076 C 
ATOM     22  C   UNL A   1     -12.138  -0.726  44.226  0.00  0.00    -0.004 C 
BRANCH  22  23
ATOM     23  C   UNL A   1     -12.348   0.115  43.546  0.00  0.00    +0.053 C 
BRANCH  23  24
ATOM     24  C   UNL A   1     -13.451   0.025  42.571  0.00  0.00    -0.026 C 
ATOM     25  C   UNL A   1     -13.738   1.050  41.826  0.00  0.00    -0.030 C 
ATOM     26  C   UNL A   1     -12.961   2.183  41.827  0.00  0.00    +0.030 C 
ENDBRANCH  23  24
ENDBRANCH  22  23
ENDBRANCH  20  21
ENDBRANCH  19  20
ENDBRANCH  17  19
ENDBRANCH   7  11
BRANCH   5  27
ATOM     27  C   UNL A   1     -10.309   1.148  33.729  0.00  0.00    +0.388 C 
ATOM     28  O   UNL A   1     -10.885   1.094  32.584  0.00  0.00    -0.241 OA
ATOM     29  O   UNL A   1      -9.127   0.649  33.844  0.00  0.00    -0.241 OA
ENDBRANCH   5  27
BRANCH   8  30
ATOM     30  C   UNL A   1     -15.777   3.454  39.023  0.00  0.00    +0.388 C 
ATOM     31  O   UNL A   1     -15.393   4.113  39.824  0.00  0.00    -0.241 OA
ATOM     32  O   UNL A   1     -16.977   2.937  39.054  0.00  0.00    -0.241 OA
ENDBRANCH   8  30
TORSDOF 8
ENDMDL
ENDMDL
