MODEL 3189
MODEL 1
REMARK VINA RESULT:    -6.101      0.000      0.000
REMARK INTER + INTRA:          -8.397
REMARK INTER:                  -7.528
REMARK INTRA:                  -0.869
REMARK UNBOUND:                -0.869
REMARK  Name = No_3189-gen_results/8p0m/2024-11-27-11-27-31/
REMARK  4 active torsions:
REMARK  status: ('A' for Active; 'I' for Inactive)
REMARK    1  A    between atoms: C_4  and  C_7
REMARK    2  A    between atoms: C_8  and  C_14
REMARK    3  A    between atoms: N_16  and  C_17
REMARK    4  A    between atoms: N_16  and  C_19
REMARK                            x       y       z     vdW  Elec       q    Type
REMARK                         _______ _______ _______ _____ _____    ______ ____
ROOT
ATOM      1  C   UNL A   1     -24.389  -1.099  28.866  0.00  0.00    +0.027 C 
ATOM      2  C   UNL A   1     -24.874  -0.887  30.222  0.00  0.00    +0.081 C 
ATOM      3  C   UNL A   1     -25.620  -1.903  30.810  0.00  0.00    +0.009 C 
ATOM      4  C   UNL A   1     -26.098  -2.973  30.005  0.00  0.00    +0.001 C 
ATOM      5  C   UNL A   1     -25.551  -1.085  28.010  0.00  0.00    +0.005 C 
ATOM      6  C   UNL A   1     -23.922  -2.670  28.921  0.00  0.00    +0.004 C 
ATOM      7  C   UNL A   1     -25.184  -3.449  29.194  0.00  0.00    +0.000 C 
ENDROOT
BRANCH   1  11
ATOM      8  C   UNL A   1     -20.775  -0.007  28.546  0.00  0.00    -0.000 A 
ATOM      9  C   UNL A   1     -20.914   0.877  27.988  0.00  0.00    -0.000 A 
ATOM     10  C   UNL A   1     -21.985  -0.781  28.865  0.00  0.00    -0.004 A 
ATOM     11  C   UNL A   1     -23.095  -0.368  28.548  0.00  0.00    -0.022 A 
ATOM     12  C   UNL A   1     -23.294   0.812  27.789  0.00  0.00    -0.004 A 
ATOM     13  C   UNL A   1     -22.150   1.498  27.496  0.00  0.00    -0.000 A 
ENDBRANCH   1  11
BRANCH   2  14
ATOM     14  C   UNL A   1     -24.519   0.314  30.972  0.00  0.00    +0.233 C 
ATOM     15  O   UNL A   1     -23.464   0.508  31.498  0.00  0.00    -0.274 OA
ATOM     16  N   UNL A   1     -25.310   1.416  30.759  0.00  0.00    -0.235 N 
BRANCH  16  17
ATOM     17  C   UNL A   1     -25.094   2.740  31.451  0.00  0.00    +0.068 C 
ATOM     18  C   UNL A   1     -25.738   2.743  32.704  0.00  0.00    -0.009 C 
ATOM     19  C   UNL A   1     -26.076   3.415  33.786  0.00  0.00    +0.032 C 
ENDBRANCH  16  17
BRANCH  16  20
ATOM     20  C   UNL A   1     -26.504   1.480  29.988  0.00  0.00    +0.072 C 
ATOM     21  C   UNL A   1     -26.624   2.237  29.144  0.00  0.00    +0.018 C 
ENDBRANCH  16  20
ENDBRANCH   2  14
TORSDOF 4
ENDMDL
ENDMDL
