MODEL 318
MODEL 1
REMARK VINA RESULT:    -6.381      0.000      0.000
REMARK INTER + INTRA:          -7.575
REMARK INTER:                  -7.127
REMARK INTRA:                  -0.447
REMARK UNBOUND:                -0.447
REMARK  Name = No_318-gen_results/8p0m/2024-11-27-11-27-31/
REMARK  2 active torsions:
REMARK  status: ('A' for Active; 'I' for Inactive)
REMARK    1  A    between atoms: C_2  and  C_7
REMARK    2  A    between atoms: C_7  and  C_8
REMARK                            x       y       z     vdW  Elec       q    Type
REMARK                         _______ _______ _______ _____ _____    ______ ____
ROOT
ATOM      1  C   UNL A   1     -24.369  -1.206  29.539  0.00  0.00    +0.053 C 
ENDROOT
BRANCH   1   3
ATOM      2  C   UNL A   1     -23.832  -3.391  28.714  0.00  0.00    -0.004 A 
ATOM      3  C   UNL A   1     -24.621  -2.685  29.298  0.00  0.00    -0.018 A 
ATOM      4  C   UNL A   1     -25.801  -3.124  29.805  0.00  0.00    -0.004 A 
ATOM      5  C   UNL A   1     -26.132  -4.483  29.646  0.00  0.00    -0.000 A 
ATOM      6  C   UNL A   1     -24.062  -4.809  28.598  0.00  0.00    -0.000 A 
ATOM      7  C   UNL A   1     -25.246  -5.295  29.066  0.00  0.00    -0.000 A 
ENDBRANCH   1   3
BRANCH   1   8
ATOM      8  C   UNL A   1     -24.373  -0.381  28.286  0.00  0.00    -0.018 A 
ATOM      9  C   UNL A   1     -25.286  -0.551  27.265  0.00  0.00    -0.004 A 
ATOM     10  C   UNL A   1     -25.169   0.228  26.086  0.00  0.00    -0.000 A 
ATOM     11  C   UNL A   1     -23.362   0.609  28.160  0.00  0.00    -0.004 A 
ATOM     12  C   UNL A   1     -23.246   1.293  26.932  0.00  0.00    -0.000 A 
ATOM     13  C   UNL A   1     -24.201   1.132  25.937  0.00  0.00    -0.000 A 
ENDBRANCH   1   8
TORSDOF 2
ENDMDL
ENDMDL
