MODEL 3190
MODEL 1
REMARK VINA RESULT:    -7.618      0.000      0.000
REMARK INTER + INTRA:          -8.928
REMARK INTER:                  -8.955
REMARK INTRA:                   0.026
REMARK UNBOUND:                 0.026
REMARK  Name = No_3190-gen_results/8p0m/2024-11-27-11-27-31/
REMARK  3 active torsions:
REMARK  status: ('A' for Active; 'I' for Inactive)
REMARK    1  A    between atoms: C_2  and  C_3
REMARK    2  A    between atoms: N_4  and  C_17
REMARK    3  A    between atoms: C_6  and  C_8
REMARK                            x       y       z     vdW  Elec       q    Type
REMARK                         _______ _______ _______ _____ _____    ______ ____
ROOT
ATOM      1  C   UNL A   1     -25.566  -0.039  29.780  0.00  0.00    +0.054 A 
ATOM      2  C   UNL A   1     -25.619   1.218  30.221  0.00  0.00    +0.004 A 
ATOM      3  C   UNL A   1     -25.282  -1.128  30.674  0.00  0.00    +0.004 A 
ATOM      4  C   UNL A   1     -25.218   1.514  31.659  0.00  0.00    +0.000 A 
ATOM      5  C   UNL A   1     -24.778   0.515  32.438  0.00  0.00    +0.000 A 
ATOM      6  C   UNL A   1     -24.883  -0.857  32.014  0.00  0.00    +0.000 A 
ENDROOT
BRANCH   3   7
ATOM      7  C   UNL A   1     -25.291  -2.438  30.191  0.00  0.00    +0.000 A 
ATOM      8  C   UNL A   1     -26.427  -3.193  30.256  0.00  0.00    +0.000 A 
ATOM      9  C   UNL A   1     -26.538  -4.487  29.714  0.00  0.00    +0.000 A 
ATOM     10  C   UNL A   1     -25.461  -5.038  29.073  0.00  0.00    +0.000 A 
ATOM     11  C   UNL A   1     -24.231  -4.308  29.002  0.00  0.00    +0.000 A 
ATOM     12  C   UNL A   1     -24.140  -3.031  29.477  0.00  0.00    +0.000 A 
ENDBRANCH   3   7
BRANCH   1  14
ATOM     13  O   UNL A   1     -26.801  -0.661  28.052  0.00  0.00    -0.270 OA
ATOM     14  C   UNL A   1     -25.790  -0.262  28.436  0.00  0.00    +0.253 C 
ATOM     15  N   UNL A   1     -24.703   0.187  27.547  0.00  0.00    -0.253 N 
ATOM     16  C   UNL A   1     -24.907   0.109  26.127  0.00  0.00    +0.120 C 
BRANCH  15  17
ATOM     17  C   UNL A   1     -23.466   0.626  28.053  0.00  0.00    +0.054 A 
ATOM     18  C   UNL A   1     -22.983   1.747  27.545  0.00  0.00    +0.015 A 
ATOM     19  C   UNL A   1     -21.542   1.802  27.459  0.00  0.00    +0.001 A 
ATOM     20  C   UNL A   1     -20.768   0.787  28.029  0.00  0.00    +0.000 A 
ATOM     21  C   UNL A   1     -21.338  -0.336  28.603  0.00  0.00    +0.001 A 
ATOM     22  C   UNL A   1     -22.719  -0.387  28.710  0.00  0.00    +0.015 A 
ENDBRANCH  15  17
ENDBRANCH   1  14
TORSDOF 3
ENDMDL
ENDMDL
