MODEL 3191
MODEL 1
REMARK VINA RESULT:    -6.360      0.000      0.000
REMARK INTER + INTRA:          -6.360
REMARK INTER:                  -6.360
REMARK INTRA:                   0.000
REMARK UNBOUND:                 0.000
REMARK  Name = No_3191-gen_results/8p0m/2024-11-27-11-27-31/
REMARK  0 active torsions:
REMARK  status: ('A' for Active; 'I' for Inactive)
REMARK                            x       y       z     vdW  Elec       q    Type
REMARK                         _______ _______ _______ _____ _____    ______ ____
ROOT
ATOM      1  C   UNL A   1     -29.292 -10.250  32.802  0.00  0.00    +0.003 A 
ATOM      2  C   UNL A   1     -29.480 -10.668  31.683  0.00  0.00    -0.000 A 
ATOM      3  C   UNL A   1     -28.733 -11.656  31.065  0.00  0.00    +0.004 A 
ATOM      4  C   UNL A   1     -27.679 -12.243  31.826  0.00  0.00    +0.042 A 
ATOM      5  C   UNL A   1     -27.592 -11.875  33.114  0.00  0.00    +0.196 A 
ATOM      6  C   UNL A   1     -28.371 -10.965  33.625  0.00  0.00    +0.042 A 
ATOM      7  C   UNL A   1     -28.918 -12.043  29.621  0.00  0.00    +0.014 A 
ATOM      8  C   UNL A   1     -29.539 -11.100  28.892  0.00  0.00    +0.044 A 
ATOM      9  C   UNL A   1     -30.323 -10.053  29.459  0.00  0.00    -0.007 A 
ATOM     10  C   UNL A   1     -30.283  -9.798  30.728  0.00  0.00    -0.003 A 
ATOM     11  N   UNL A   1     -29.917 -11.170  27.511  0.00  0.00    -0.306 N 
ATOM     12  C   UNL A   1     -29.594 -12.242  26.704  0.00  0.00    +0.112 C 
ATOM     13  C   UNL A   1     -30.969 -10.377  27.022  0.00  0.00    +0.096 C 
ATOM     14  C   UNL A   1     -31.215  -9.334  28.562  0.00  0.00    +0.049 C 
ATOM     15  O   UNL A   1     -26.690 -12.549  33.894  0.00  0.00    -0.287 OA
ENDROOT
TORSDOF 0
ENDMDL
ENDMDL
