MODEL 3192
MODEL 1
REMARK VINA RESULT:    -8.706      0.000      0.000
REMARK INTER + INTRA:         -14.294
REMARK INTER:                 -11.250
REMARK INTRA:                  -3.044
REMARK UNBOUND:                -3.044
REMARK  Name = No_3192-gen_results/8p0m/2024-11-27-11-27-31/
REMARK  5 active torsions:
REMARK  status: ('A' for Active; 'I' for Inactive)
REMARK    1  A    between atoms: C_2  and  C_3
REMARK    2  A    between atoms: C_5  and  C_13
REMARK    3  A    between atoms: C_19  and  C_21
REMARK    4  A    between atoms: C_22  and  C_27
REMARK    5  A    between atoms: C_31  and  C_33
REMARK                            x       y       z     vdW  Elec       q    Type
REMARK                         _______ _______ _______ _____ _____    ______ ____
ROOT
ATOM      1  C   UNL A   1     -23.527   1.460  26.337  0.00  0.00    +0.249 C 
ATOM      2  O   UNL A   1     -22.750   2.220  25.868  0.00  0.00    -0.270 OA
ATOM      3  N   UNL A   1     -23.250   0.856  27.499  0.00  0.00    -0.276 N 
ATOM      4  C   UNL A   1     -22.022   1.124  28.211  0.00  0.00    +0.094 C 
ATOM      5  C   UNL A   1     -21.642   0.182  28.949  0.00  0.00    +0.022 C 
ATOM      6  C   UNL A   1     -22.484  -0.866  29.342  0.00  0.00    +0.008 C 
ATOM      7  C   UNL A   1     -23.682  -1.151  28.633  0.00  0.00    +0.042 C 
ATOM      8  C   UNL A   1     -23.977  -0.326  27.762  0.00  0.00    +0.098 C 
ENDROOT
BRANCH   1  11
ATOM      9  C   UNL A   1     -26.005   1.893  25.833  0.00  0.00    +0.004 A 
ATOM     10  C   UNL A   1     -27.003   1.574  25.229  0.00  0.00    +0.000 A 
ATOM     11  C   UNL A   1     -24.835   1.035  25.687  0.00  0.00    +0.054 A 
ATOM     12  C   UNL A   1     -24.984  -0.293  25.357  0.00  0.00    +0.004 A 
ATOM     13  C   UNL A   1     -27.209   0.168  24.760  0.00  0.00    +0.000 A 
ATOM     14  C   UNL A   1     -26.170  -0.721  24.821  0.00  0.00    +0.000 A 
BRANCH  10  15
ATOM     15  C   UNL A   1     -28.097   2.402  25.068  0.00  0.00    +0.000 A 
ATOM     16  C   UNL A   1     -28.110   3.547  25.512  0.00  0.00    +0.000 A 
ATOM     17  C   UNL A   1     -29.282   4.456  25.345  0.00  0.00    +0.000 A 
ATOM     18  C   UNL A   1     -30.401   3.992  24.672  0.00  0.00    +0.000 A 
ATOM     19  C   UNL A   1     -29.296   1.993  24.309  0.00  0.00    +0.000 A 
ATOM     20  C   UNL A   1     -30.393   2.782  24.140  0.00  0.00    +0.000 A 
ENDBRANCH  10  15
ENDBRANCH   1  11
BRANCH   7  21
ATOM     21  C   UNL A   1     -24.439  -2.361  29.009  0.00  0.00    -0.021 A 
ATOM     22  C   UNL A   1     -25.804  -2.216  29.420  0.00  0.00    -0.004 A 
ATOM     23  C   UNL A   1     -23.952  -3.646  28.713  0.00  0.00    -0.004 A 
ATOM     24  C   UNL A   1     -26.568  -3.311  29.743  0.00  0.00    -0.000 A 
ATOM     25  C   UNL A   1     -24.765  -4.783  29.013  0.00  0.00    -0.000 A 
ATOM     26  C   UNL A   1     -26.067  -4.585  29.515  0.00  0.00    -0.000 A 
BRANCH  22  27
ATOM     27  C   UNL A   1     -26.394  -0.879  29.716  0.00  0.00    -0.001 A 
ATOM     28  C   UNL A   1     -26.232  -0.358  30.943  0.00  0.00    -0.000 A 
ATOM     29  C   UNL A   1     -27.036   0.621  31.219  0.00  0.00    -0.000 A 
ATOM     30  C   UNL A   1     -27.341  -0.268  28.884  0.00  0.00    -0.004 A 
ATOM     31  C   UNL A   1     -28.138   0.822  29.168  0.00  0.00    -0.022 A 
ATOM     32  C   UNL A   1     -27.912   1.337  30.456  0.00  0.00    -0.004 A 
BRANCH  31  33
ATOM     33  C   UNL A   1     -29.060   1.463  28.271  0.00  0.00    +0.022 C 
ATOM     34  C   UNL A   1     -29.850   2.590  28.813  0.00  0.00    +0.005 C 
ATOM     35  C   UNL A   1     -30.058   0.460  27.627  0.00  0.00    +0.005 C 
ENDBRANCH  31  33
ENDBRANCH  22  27
ENDBRANCH   7  21
TORSDOF 5
ENDMDL
ENDMDL
