REMARK  Name = No_3192-gen_results/8p0m/2024-11-27-11-27-31/
REMARK  5 active torsions:
REMARK  status: ('A' for Active; 'I' for Inactive)
REMARK    1  A    between atoms: C_2  and  C_3
REMARK    2  A    between atoms: C_5  and  C_13
REMARK    3  A    between atoms: C_19  and  C_21
REMARK    4  A    between atoms: C_22  and  C_27
REMARK    5  A    between atoms: C_31  and  C_33
REMARK                            x       y       z     vdW  Elec       q    Type
REMARK                         _______ _______ _______ _____ _____    ______ ____
ROOT
ATOM      1  C   UNL A   1     -29.292  -2.182  30.634  0.00  0.00    +0.249 C 
ATOM      2  O   UNL A   1     -29.293  -3.318  30.968  0.00  0.00    -0.270 OA
ATOM      3  N   UNL A   1     -30.447  -1.512  30.546  0.00  0.00    -0.276 N 
ATOM      4  C   UNL A   1     -31.707  -2.141  30.868  0.00  0.00    +0.094 C 
ATOM      5  C   UNL A   1     -32.696  -1.637  30.280  0.00  0.00    +0.022 C 
ATOM      6  C   UNL A   1     -32.660  -0.377  29.670  0.00  0.00    +0.008 C 
ATOM      7  C   UNL A   1     -31.425   0.238  29.329  0.00  0.00    +0.042 C 
ATOM      8  C   UNL A   1     -30.421  -0.352  29.741  0.00  0.00    +0.098 C 
ENDROOT
BRANCH   1  11
ATOM      9  C   UNL A   1     -28.016  -0.814  28.878  0.00  0.00    +0.004 A 
ATOM     10  C   UNL A   1     -27.064  -0.119  28.608  0.00  0.00    +0.000 A 
ATOM     11  C   UNL A   1     -28.059  -1.396  30.214  0.00  0.00    +0.054 A 
ATOM     12  C   UNL A   1     -26.895  -1.608  30.918  0.00  0.00    +0.004 A 
ATOM     13  C   UNL A   1     -25.784  -0.225  29.376  0.00  0.00    +0.000 A 
ATOM     14  C   UNL A   1     -25.752  -0.958  30.532  0.00  0.00    +0.000 A 
BRANCH  10  15
ATOM     15  C   UNL A   1     -27.001   0.691  27.491  0.00  0.00    +0.000 A 
ATOM     16  C   UNL A   1     -27.178   1.904  27.563  0.00  0.00    +0.000 A 
ATOM     17  C   UNL A   1     -27.111   2.794  26.367  0.00  0.00    +0.000 A 
ATOM     18  C   UNL A   1     -26.846   2.234  25.127  0.00  0.00    +0.000 A 
ATOM     19  C   UNL A   1     -26.662   0.169  26.151  0.00  0.00    +0.000 A 
ATOM     20  C   UNL A   1     -26.600   0.939  25.030  0.00  0.00    +0.000 A 
ENDBRANCH  10  15
ENDBRANCH   1  11
BRANCH   7  21
ATOM     21  C   UNL A   1     -31.467   1.493  28.553  0.00  0.00    -0.021 A 
ATOM     22  C   UNL A   1     -30.859   2.665  29.110  0.00  0.00    -0.004 A 
ATOM     23  C   UNL A   1     -31.833   1.498  27.195  0.00  0.00    -0.004 A 
ATOM     24  C   UNL A   1     -30.834   3.850  28.415  0.00  0.00    -0.000 A 
ATOM     25  C   UNL A   1     -31.768   2.724  26.463  0.00  0.00    -0.000 A 
ATOM     26  C   UNL A   1     -31.256   3.876  27.093  0.00  0.00    -0.000 A 
BRANCH  22  27
ATOM     27  C   UNL A   1     -30.417   2.716  30.533  0.00  0.00    -0.001 A 
ATOM     28  C   UNL A   1     -30.936   3.656  31.339  0.00  0.00    -0.000 A 
ATOM     29  C   UNL A   1     -30.273   3.846  32.436  0.00  0.00    -0.000 A 
ATOM     30  C   UNL A   1     -29.291   2.026  31.001  0.00  0.00    -0.004 A 
ATOM     31  C   UNL A   1     -28.640   2.189  32.207  0.00  0.00    -0.022 A 
ATOM     32  C   UNL A   1     -29.237   3.171  33.016  0.00  0.00    -0.004 A 
BRANCH  31  33
ATOM     33  C   UNL A   1     -27.521   1.424  32.684  0.00  0.00    +0.022 C 
ATOM     34  C   UNL A   1     -27.723   0.640  33.922  0.00  0.00    +0.005 C 
ATOM     35  C   UNL A   1     -26.248   2.294  32.885  0.00  0.00    +0.005 C 
ENDBRANCH  31  33
ENDBRANCH  22  27
ENDBRANCH   7  21
TORSDOF 5
