REMARK  Name = No_3193-gen_results/8p0m/2024-11-27-11-27-31/
REMARK  2 active torsions:
REMARK  status: ('A' for Active; 'I' for Inactive)
REMARK    1  A    between atoms: C_2  and  C_14
REMARK    2  A    between atoms: C_9  and  C_10
REMARK                            x       y       z     vdW  Elec       q    Type
REMARK                         _______ _______ _______ _____ _____    ______ ____
ROOT
ATOM      1  C   UNL A   1     -28.016  -0.814  28.878  0.00  0.00    +0.002 A 
ATOM      2  C   UNL A   1     -28.469  -0.785  29.829  0.00  0.00    +0.018 A 
ATOM      3  C   UNL A   1     -27.087   0.290  28.638  0.00  0.00    +0.000 A 
ATOM      4  C   UNL A   1     -26.768   1.027  29.472  0.00  0.00    +0.000 A 
ATOM      5  C   UNL A   1     -28.276   0.027  31.015  0.00  0.00    +0.002 A 
ATOM      6  C   UNL A   1     -27.329   1.054  30.753  0.00  0.00    +0.000 A 
ATOM      7  C   UNL A   1     -26.386   0.301  27.266  0.00  0.00    +0.000 A 
ATOM      8  C   UNL A   1     -26.005   1.546  26.860  0.00  0.00    +0.007 A 
ATOM      9  C   UNL A   1     -25.454   2.449  27.824  0.00  0.00    +0.080 A 
ATOM     10  C   UNL A   1     -25.912   2.265  29.247  0.00  0.00    +0.007 A 
ENDROOT
BRANCH   2  11
ATOM     11  C   UNL A   1     -29.478  -2.026  30.278  0.00  0.00    +0.081 A 
ATOM     12  N   UNL A   1     -29.090  -3.249  30.460  0.00  0.00    -0.244 NA
ATOM     13  C   UNL A   1     -30.903  -1.808  30.430  0.00  0.00    +0.019 A 
ATOM     14  C   UNL A   1     -29.884  -4.311  30.522  0.00  0.00    +0.099 A 
ATOM     15  C   UNL A   1     -31.752  -2.828  30.566  0.00  0.00    +0.003 A 
ATOM     16  C   UNL A   1     -31.213  -4.150  30.673  0.00  0.00    +0.021 A 
ENDBRANCH   2  11
BRANCH   9  17
ATOM     17  C   UNL A   1     -24.756   3.664  27.523  0.00  0.00    +0.388 C 
ATOM     18  O   UNL A   1     -24.599   4.564  28.289  0.00  0.00    -0.241 OA
ATOM     19  O   UNL A   1     -24.000   3.520  26.423  0.00  0.00    -0.241 OA
ENDBRANCH   9  17
TORSDOF 2
