MODEL 3193
MODEL 1
REMARK VINA RESULT:    -6.898      0.000      0.000
REMARK INTER + INTRA:          -8.070
REMARK INTER:                  -7.705
REMARK INTRA:                  -0.366
REMARK UNBOUND:                -0.366
REMARK  Name = No_3193-gen_results/8p0m/2024-11-27-11-27-31/
REMARK  2 active torsions:
REMARK  status: ('A' for Active; 'I' for Inactive)
REMARK    1  A    between atoms: C_2  and  C_14
REMARK    2  A    between atoms: C_9  and  C_10
REMARK                            x       y       z     vdW  Elec       q    Type
REMARK                         _______ _______ _______ _____ _____    ______ ____
ROOT
ATOM      1  C   UNL A   1     -30.857  -9.910  29.543  0.00  0.00    +0.002 A 
ATOM      2  C   UNL A   1     -30.886 -10.384  28.602  0.00  0.00    +0.018 A 
ATOM      3  C   UNL A   1     -29.843 -10.458  30.444  0.00  0.00    +0.000 A 
ATOM      4  C   UNL A   1     -29.052 -11.228  30.095  0.00  0.00    +0.000 A 
ATOM      5  C   UNL A   1     -30.052 -11.370  27.942  0.00  0.00    +0.002 A 
ATOM      6  C   UNL A   1     -29.051 -11.838  28.836  0.00  0.00    +0.000 A 
ATOM      7  C   UNL A   1     -29.746  -9.802  31.835  0.00  0.00    +0.000 A 
ATOM      8  C   UNL A   1     -29.246 -10.634  32.794  0.00  0.00    +0.007 A 
ATOM      9  C   UNL A   1     -28.157 -11.500  32.459  0.00  0.00    +0.080 A 
ATOM     10  C   UNL A   1     -28.064 -11.926  31.018  0.00  0.00    +0.007 A 
ENDROOT
BRANCH   2  11
ATOM     11  C   UNL A   1     -31.925  -9.806  27.442  0.00  0.00    +0.081 A 
ATOM     12  N   UNL A   1     -32.076  -8.550  27.161  0.00  0.00    -0.244 NA
ATOM     13  C   UNL A   1     -32.792 -10.705  26.705  0.00  0.00    +0.019 A 
ATOM     14  C   UNL A   1     -33.084  -8.027  26.474  0.00  0.00    +0.099 A 
ATOM     15  C   UNL A   1     -33.783 -10.245  25.940  0.00  0.00    +0.003 A 
ATOM     16  C   UNL A   1     -33.906  -8.829  25.769  0.00  0.00    +0.021 A 
ENDBRANCH   2  11
BRANCH   9  17
ATOM     17  C   UNL A   1     -27.344 -12.215  33.398  0.00  0.00    +0.388 C 
ATOM     18  O   UNL A   1     -27.605 -12.357  34.552  0.00  0.00    -0.241 OA
ATOM     19  O   UNL A   1     -26.461 -13.001  32.762  0.00  0.00    -0.241 OA
ENDBRANCH   9  17
TORSDOF 2
ENDMDL
ENDMDL
