MODEL 3194
MODEL 1
REMARK VINA RESULT:    -5.876      0.000      0.000
REMARK INTER + INTRA:          -7.855
REMARK INTER:                  -7.250
REMARK INTRA:                  -0.605
REMARK UNBOUND:                -0.605
REMARK  Name = No_3194-gen_results/8p0m/2024-11-27-11-27-31/
REMARK  4 active torsions:
REMARK  status: ('A' for Active; 'I' for Inactive)
REMARK    1  A    between atoms: C_1  and  C_2
REMARK    2  A    between atoms: C_5  and  C_7
REMARK    3  A    between atoms: C_14  and  O_16
REMARK    4  A    between atoms: O_16  and  C_17
REMARK                            x       y       z     vdW  Elec       q    Type
REMARK                         _______ _______ _______ _____ _____    ______ ____
ROOT
ATOM      1  C   UNL A   1      -8.460   0.436  35.709  0.00  0.00    +0.021 A 
ATOM      2  C   UNL A   1      -9.199   1.058  34.536  0.00  0.00    +0.002 A 
ATOM      3  C   UNL A   1     -10.561   1.394  34.669  0.00  0.00    +0.003 A 
ATOM      4  C   UNL A   1     -11.221   1.021  35.796  0.00  0.00    +0.037 A 
ATOM      5  C   UNL A   1     -10.621   0.279  36.731  0.00  0.00    +0.145 A 
ATOM      6  C   UNL A   1      -9.364  -0.309  36.443  0.00  0.00    +0.039 A 
ENDROOT
BRANCH   1   7
ATOM      7  C   UNL A   1      -7.382  -0.032  35.426  0.00  0.00    +0.081 A 
ATOM      8  N   UNL A   1      -6.212   0.442  35.879  0.00  0.00    -0.244 NA
ATOM      9  C   UNL A   1      -4.947  -0.064  35.632  0.00  0.00    +0.100 A 
ATOM     10  C   UNL A   1      -4.866  -1.320  35.036  0.00  0.00    +0.035 A 
ATOM     11  C   UNL A   1      -7.277  -1.265  34.656  0.00  0.00    +0.019 A 
ATOM     12  C   UNL A   1      -6.002  -1.959  34.474  0.00  0.00    +0.004 A 
BRANCH  10  13
ATOM     13  C   UNL A   1      -3.525  -1.931  34.821  0.00  0.00    +0.082 C 
ATOM     14  N   UNL A   1      -2.805  -2.264  35.868  0.00  0.00    -0.153 NA
ATOM     15  C   UNL A   1      -3.069  -2.357  33.543  0.00  0.00    +0.054 C 
ENDBRANCH  10  13
ENDBRANCH   1   7
BRANCH   5  16
ATOM     16  O   UNL A   1     -11.372  -0.238  37.739  0.00  0.00    -0.450 OA
BRANCH  16  17
ATOM     17  C   UNL A   1     -11.226  -1.328  38.188  0.00  0.00    +0.180 C 
ATOM     18  C   UNL A   1     -11.860  -2.238  38.809  0.00  0.00    +0.044 C 
ENDBRANCH  16  17
ENDBRANCH   5  16
TORSDOF 4
ENDMDL
ENDMDL
