REMARK  Name = outputs/IAG933/test6/raw/output_3194_IAG933_linker_design_.xyz
REMARK  11 active torsions:
REMARK  status: ('A' for Active; 'I' for Inactive)
REMARK    1  A    between atoms: C_1  and  C_2
REMARK    2  A    between atoms: C_1  and  C_8
REMARK    3  A    between atoms: C_1  and  C_35
REMARK    4  A    between atoms: C_13  and  C_32
REMARK    5  A    between atoms: C_14  and  C_15
REMARK    6  A    between atoms: C_21  and  O_22
REMARK    7  A    between atoms: O_22  and  C_23
REMARK    8  A    between atoms: C_23  and  C_24
REMARK    9  A    between atoms: C_30  and  C_46
REMARK   10  A    between atoms: C_35  and  C_38
REMARK   11  A    between atoms: C_43  and  C_46
REMARK                            x       y       z     vdW  Elec       q    Type
REMARK                         _______ _______ _______ _____ _____    ______ ____
ROOT
ATOM      1  C   UNL A   1     -27.812  -0.527  28.270  0.00  0.00    +0.051 C 
ATOM      2  C   UNL A   1     -25.223  -0.279  28.932  0.00  0.00    +0.021 C 
ATOM      3  C   UNL A   1     -26.565  -0.541  28.519  0.00  0.00    -0.107 C 
ENDROOT
BRANCH   2   7
ATOM      4  C   UNL A   1     -21.861   1.303  27.704  0.00  0.00    +0.242 C 
ATOM      5  C   UNL A   1     -24.539   1.376  26.984  0.00  0.00    +0.086 C 
ATOM      6  O   UNL A   1     -20.558   1.325  27.960  0.00  0.00    -0.282 OA
ATOM      7  C   UNL A   1     -24.212   0.533  28.149  0.00  0.00    +0.052 C 
ATOM      8  C   UNL A   1     -22.373   2.018  26.511  0.00  0.00    +0.143 C 
ATOM      9  C   UNL A   1     -22.758   0.539  28.436  0.00  0.00    +0.182 C 
ATOM     10  N   UNL A   1     -23.630   2.003  26.253  0.00  0.00    -0.240 NA
ATOM     11  F   UNL A   1     -22.181  -0.170  29.451  0.00  0.00    -0.201 F 
BRANCH   5  12
ATOM     12  C   UNL A   1     -25.688   1.614  26.461  0.00  0.00    +0.056 C 
ATOM     13  C   UNL A   1     -26.250   2.920  26.395  0.00  0.00    +0.078 C 
ATOM     14  C   UNL A   1     -27.438   3.091  25.645  0.00  0.00    +0.107 C 
ATOM     15  N   UNL A   1     -28.075   2.089  25.003  0.00  0.00    -0.208 NA
ATOM     16  C   UNL A   1     -27.543   0.849  25.079  0.00  0.00    +0.253 C 
ATOM     17  C   UNL A   1     -26.354   0.576  25.777  0.00  0.00    +0.195 C 
ATOM     18  F   UNL A   1     -25.860  -0.681  25.795  0.00  0.00    -0.199 F 
BRANCH  13  19
ATOM     19  C   UNL A   1     -25.642   4.093  27.123  0.00  0.00    +0.267 C 
ATOM     20  N   UNL A   1     -25.614   5.252  26.449  0.00  0.00    -0.200 NA
ATOM     21  C   UNL A   1     -25.026   6.479  26.963  0.00  0.00    +0.139 C 
ATOM     22  O   UNL A   1     -25.143   3.966  28.243  0.00  0.00    -0.268 OA
ENDBRANCH  13  19
BRANCH  16  23
ATOM     23  O   UNL A   1     -28.193  -0.208  24.477  0.00  0.00    -0.456 OA
BRANCH  23  24
ATOM     24  C   UNL A   1     -29.460   0.005  23.866  0.00  0.00    +0.243 C 
BRANCH  24  25
ATOM     25  C   UNL A   1     -30.065  -1.377  23.573  0.00  0.00    +0.229 C 
ATOM     26  O   UNL A   1     -30.729  -1.878  24.721  0.00  0.00    -0.216 OA
ENDBRANCH  24  25
ENDBRANCH  23  24
ENDBRANCH  16  23
ENDBRANCH   5  12
ENDBRANCH   2   7
BRANCH   1  28
ATOM     27  O   UNL A   1     -30.082  -0.654  27.936  0.00  0.00    -0.213 OA
ATOM     28  C   UNL A   1     -29.060  -0.528  29.067  0.00  0.00    +0.200 C 
BRANCH  28  34
ATOM     29  C   UNL A   1     -29.221   2.006  32.215  0.00  0.00    +0.005 C 
ATOM     30  C   UNL A   1     -28.152   1.943  31.482  0.00  0.00    +0.004 C 
ATOM     31  C   UNL A   1     -30.411   0.793  30.495  0.00  0.00    -0.032 C 
ATOM     32  C   UNL A   1     -30.681   1.986  31.354  0.00  0.00    +0.025 C 
ATOM     33  C   UNL A   1     -28.265   1.872  29.991  0.00  0.00    +0.021 C 
ATOM     34  C   UNL A   1     -29.214   0.689  29.771  0.00  0.00    -0.014 C 
ATOM     35  C   UNL A   1     -28.847   3.172  29.345  0.00  0.00    +0.004 C 
ENDBRANCH  28  34
ENDBRANCH   1  28
BRANCH   2  36
ATOM     36  C   UNL A   1     -24.855  -1.012  30.143  0.00  0.00    +0.068 C 
BRANCH  36  37
ATOM     37  C   UNL A   1     -24.973  -2.505  29.788  0.00  0.00    -0.017 C 
ATOM     38  C   UNL A   1     -23.906  -3.173  29.146  0.00  0.00    -0.004 C 
ATOM     39  C   UNL A   1     -23.989  -4.549  28.853  0.00  0.00    -0.000 C 
ATOM     40  C   UNL A   1     -25.137  -5.280  29.205  0.00  0.00    -0.000 C 
ATOM     41  C   UNL A   1     -26.232  -4.611  29.784  0.00  0.00    -0.000 C 
ATOM     42  C   UNL A   1     -26.155  -3.232  30.065  0.00  0.00    -0.004 C 
ENDBRANCH  36  37
BRANCH  36  43
ATOM     43  C   UNL A   1     -25.387  -0.679  31.571  0.00  0.00    +0.081 C 
ATOM     44  C   UNL A   1     -25.189   0.773  32.028  0.00  0.00    +0.019 C 
ATOM     45  C   UNL A   1     -25.336   0.684  33.544  0.00  0.00    +0.020 C 
ATOM     46  C   UNL A   1     -24.829  -0.715  33.905  0.00  0.00    +0.089 C 
ATOM     47  N   UNL A   1     -24.758  -1.481  32.646  0.00  0.00    -0.219 NA
ENDBRANCH  36  43
ENDBRANCH   2  36
TORSDOF 11
