REMARK  Name = No_3195-gen_results/8p0m/2024-11-27-11-27-31/
REMARK  1 active torsions:
REMARK  status: ('A' for Active; 'I' for Inactive)
REMARK    1  A    between atoms: C_7  and  C_15
REMARK                            x       y       z     vdW  Elec       q    Type
REMARK                         _______ _______ _______ _____ _____    ______ ____
ROOT
ATOM      1  C   UNL A   1     -28.016  -0.814  28.878  0.00  0.00    -0.000 A 
ATOM      2  C   UNL A   1     -27.064  -0.119  28.608  0.00  0.00    -0.000 A 
ATOM      3  C   UNL A   1     -25.765  -0.390  29.036  0.00  0.00    +0.000 A 
ATOM      4  C   UNL A   1     -24.552   0.406  28.765  0.00  0.00    +0.003 A 
ATOM      5  C   UNL A   1     -24.696   1.448  27.799  0.00  0.00    +0.015 A 
ATOM      6  C   UNL A   1     -25.976   1.725  27.308  0.00  0.00    -0.020 A 
ATOM      7  C   UNL A   1     -27.072   1.013  27.654  0.00  0.00    -0.004 A 
ATOM      8  C   UNL A   1     -27.965  -1.622  30.136  0.00  0.00    -0.000 A 
ATOM      9  C   UNL A   1     -26.674  -2.151  30.496  0.00  0.00    +0.000 A 
ATOM     10  C   UNL A   1     -25.553  -1.413  30.082  0.00  0.00    +0.000 A 
ATOM     11  C   UNL A   1     -23.413   1.844  27.310  0.00  0.00    +0.099 A 
ATOM     12  N   UNL A   1     -22.226   1.551  27.856  0.00  0.00    -0.242 NA
ATOM     13  C   UNL A   1     -23.238   0.018  29.168  0.00  0.00    +0.021 A 
ATOM     14  C   UNL A   1     -22.078   0.680  28.774  0.00  0.00    +0.099 A 
ATOM     15  C   UNL A   1     -26.051   2.907  26.345  0.00  0.00    +0.031 C 
ENDROOT
BRANCH   7  16
ATOM     16  C   UNL A   1     -28.379   1.348  27.070  0.00  0.00    -0.000 A 
ATOM     17  C   UNL A   1     -28.922   1.062  26.248  0.00  0.00    -0.000 A 
ATOM     18  C   UNL A   1     -30.257   1.288  25.848  0.00  0.00    -0.000 A 
ATOM     19  C   UNL A   1     -29.072   2.362  27.979  0.00  0.00    -0.000 A 
ATOM     20  C   UNL A   1     -30.361   2.779  27.686  0.00  0.00    -0.000 A 
ATOM     21  C   UNL A   1     -30.929   2.261  26.539  0.00  0.00    -0.000 A 
ENDBRANCH   7  16
TORSDOF 1
