REMARK  Name = outputs/IAG933/test6/raw/output_3196_IAG933_linker_design_.xyz
REMARK  11 active torsions:
REMARK  status: ('A' for Active; 'I' for Inactive)
REMARK    1  A    between atoms: C_1  and  C_2
REMARK    2  A    between atoms: C_1  and  C_8
REMARK    3  A    between atoms: C_1  and  C_36
REMARK    4  A    between atoms: C_13  and  C_41
REMARK    5  A    between atoms: C_14  and  C_15
REMARK    6  A    between atoms: C_21  and  O_22
REMARK    7  A    between atoms: O_22  and  C_23
REMARK    8  A    between atoms: C_23  and  C_24
REMARK    9  A    between atoms: C_34  and  O_37
REMARK   10  A    between atoms: C_36  and  O_37
REMARK   11  A    between atoms: C_36  and  C_42
REMARK                            x       y       z     vdW  Elec       q    Type
REMARK                         _______ _______ _______ _____ _____    ______ ____
ROOT
ATOM      1  C   UNL A   1     -21.567   1.327  28.052  0.00  0.00    -0.018 C 
ATOM      2  C   UNL A   1     -22.748   0.780  28.455  0.00  0.00    +0.090 C 
ATOM      3  C   UNL A   1     -23.870   0.807  27.784  0.00  0.00    +0.117 C 
ATOM      4  C   UNL A   1     -22.107   2.209  25.809  0.00  0.00    -0.001 C 
ATOM      5  C   UNL A   1     -23.414   1.978  25.660  0.00  0.00    -0.001 C 
ATOM      6  C   UNL A   1     -21.295   1.928  26.866  0.00  0.00    -0.004 C 
ATOM      7  C   UNL A   1     -24.272   1.468  26.638  0.00  0.00    +0.015 C 
ENDROOT
BRANCH   7   8
ATOM      8  C   UNL A   1     -25.688   1.614  26.461  0.00  0.00    +0.095 C 
ATOM      9  C   UNL A   1     -26.250   2.920  26.395  0.00  0.00    +0.059 C 
ATOM     10  C   UNL A   1     -27.438   3.091  25.645  0.00  0.00    +0.102 C 
ATOM     11  N   UNL A   1     -28.075   2.089  25.003  0.00  0.00    -0.212 NA
ATOM     12  C   UNL A   1     -27.543   0.849  25.079  0.00  0.00    +0.234 C 
ATOM     13  C   UNL A   1     -26.354   0.576  25.777  0.00  0.00    +0.244 C 
ATOM     14  F   UNL A   1     -25.860  -0.681  25.795  0.00  0.00    -0.227 F 
BRANCH   9  15
ATOM     15  C   UNL A   1     -25.642   4.093  27.123  0.00  0.00    +0.263 C 
ATOM     16  N   UNL A   1     -25.614   5.252  26.449  0.00  0.00    -0.200 NA
ATOM     17  C   UNL A   1     -25.026   6.479  26.963  0.00  0.00    +0.139 C 
ATOM     18  O   UNL A   1     -25.143   3.966  28.243  0.00  0.00    -0.269 OA
ENDBRANCH   9  15
BRANCH  12  19
ATOM     19  O   UNL A   1     -28.193  -0.208  24.477  0.00  0.00    -0.459 OA
BRANCH  19  20
ATOM     20  C   UNL A   1     -29.460   0.005  23.866  0.00  0.00    +0.242 C 
BRANCH  20  21
ATOM     21  C   UNL A   1     -30.065  -1.377  23.573  0.00  0.00    +0.229 C 
ATOM     22  O   UNL A   1     -30.729  -1.878  24.721  0.00  0.00    -0.216 OA
ENDBRANCH  20  21
ENDBRANCH  19  20
ENDBRANCH  12  19
ENDBRANCH   7   8
BRANCH   3  23
ATOM     23  O   UNL A   1     -24.937  -0.092  28.105  0.00  0.00    -0.479 OA
BRANCH  23  24
ATOM     24  C   UNL A   1     -25.897  -0.417  29.166  0.00  0.00    +0.193 C 
BRANCH  24  30
ATOM     25  C   UNL A   1     -29.208   1.000  27.828  0.00  0.00    -0.000 C 
ATOM     26  C   UNL A   1     -29.215   2.420  28.197  0.00  0.00    -0.000 C 
ATOM     27  C   UNL A   1     -28.246   0.030  28.304  0.00  0.00    -0.001 C 
ATOM     28  C   UNL A   1     -27.533   1.887  29.828  0.00  0.00    -0.001 C 
ATOM     29  C   UNL A   1     -28.403   2.852  29.247  0.00  0.00    -0.000 C 
ATOM     30  C   UNL A   1     -27.260   0.530  29.201  0.00  0.00    +0.018 C 
ENDBRANCH  24  30
BRANCH  24  31
ATOM     31  C   UNL A   1     -24.855  -1.012  30.143  0.00  0.00    +0.083 C 
BRANCH  31  32
ATOM     32  C   UNL A   1     -24.973  -2.505  29.788  0.00  0.00    -0.017 C 
ATOM     33  C   UNL A   1     -23.906  -3.173  29.146  0.00  0.00    -0.004 C 
ATOM     34  C   UNL A   1     -23.989  -4.549  28.853  0.00  0.00    -0.000 C 
ATOM     35  C   UNL A   1     -25.137  -5.280  29.205  0.00  0.00    -0.000 C 
ATOM     36  C   UNL A   1     -26.232  -4.611  29.784  0.00  0.00    -0.000 C 
ATOM     37  C   UNL A   1     -26.155  -3.232  30.065  0.00  0.00    -0.004 C 
ENDBRANCH  31  32
BRANCH  31  38
ATOM     38  C   UNL A   1     -25.387  -0.679  31.571  0.00  0.00    +0.081 C 
ATOM     39  C   UNL A   1     -25.189   0.773  32.028  0.00  0.00    +0.019 C 
ATOM     40  C   UNL A   1     -25.336   0.684  33.544  0.00  0.00    +0.020 C 
ATOM     41  C   UNL A   1     -24.829  -0.715  33.905  0.00  0.00    +0.089 C 
ATOM     42  N   UNL A   1     -24.758  -1.481  32.646  0.00  0.00    -0.219 NA
ENDBRANCH  31  38
ENDBRANCH  24  31
ENDBRANCH  23  24
ENDBRANCH   3  23
TORSDOF 11
