MODEL 3196
MODEL 1
REMARK VINA RESULT:    -7.762      0.000      0.000
REMARK INTER + INTRA:         -11.585
REMARK INTER:                 -10.938
REMARK INTRA:                  -0.647
REMARK UNBOUND:                -0.647
REMARK  Name = No_3196-gen_results/8p0m/2024-11-27-11-27-31/
REMARK  7 active torsions:
REMARK  status: ('A' for Active; 'I' for Inactive)
REMARK    1  A    between atoms: C_1  and  C_2
REMARK    2  A    between atoms: C_1  and  N_8
REMARK    3  A    between atoms: C_7  and  C_19
REMARK    4  A    between atoms: C_17  and  C_22
REMARK    5  A    between atoms: C_19  and  O_21
REMARK    6  A    between atoms: O_21  and  C_26
REMARK    7  A    between atoms: C_26  and  C_27
REMARK                            x       y       z     vdW  Elec       q    Type
REMARK                         _______ _______ _______ _____ _____    ______ ____
ROOT
ATOM      1  C   UNL A   1     -23.665  -0.776  28.813  0.00  0.00    -0.000 A 
ATOM      2  C   UNL A   1     -24.225  -0.398  27.597  0.00  0.00    -0.006 A 
ATOM      3  C   UNL A   1     -24.677   0.973  27.224  0.00  0.00    -0.008 A 
ATOM      4  C   UNL A   1     -24.670   1.939  28.274  0.00  0.00    +0.052 A 
ATOM      5  C   UNL A   1     -24.154   1.518  29.516  0.00  0.00    +0.010 A 
ATOM      6  C   UNL A   1     -23.712   0.279  29.775  0.00  0.00    +0.073 A 
ATOM      7  C   UNL A   1     -25.178   3.252  27.975  0.00  0.00    +0.265 C 
ATOM      8  N   UNL A   1     -25.738   3.516  26.744  0.00  0.00    -0.201 NA
ATOM      9  C   UNL A   1     -25.794   2.581  25.750  0.00  0.00    +0.128 C 
ATOM     10  C   UNL A   1     -25.311   1.309  25.958  0.00  0.00    +0.139 C 
ATOM     11  O   UNL A   1     -25.346   4.222  28.808  0.00  0.00    -0.268 OA
ENDROOT
BRANCH  10  12
ATOM     12  C   UNL A   1     -25.421   0.295  24.914  0.00  0.00    +0.403 C 
ATOM     13  F   UNL A   1     -24.358   0.211  24.314  0.00  0.00    -0.170 F 
ATOM     14  F   UNL A   1     -25.838  -0.852  25.448  0.00  0.00    -0.170 F 
ATOM     15  F   UNL A   1     -26.384   0.660  24.048  0.00  0.00    -0.170 F 
ENDBRANCH  10  12
BRANCH   6  16
ATOM     16  C   UNL A   1     -23.169  -0.001  31.138  0.00  0.00    +0.341 C 
ATOM     17  O   UNL A   1     -22.238  -0.308  31.438  0.00  0.00    -0.245 OA
BRANCH  16  18
ATOM     18  O   UNL A   1     -24.128   0.133  32.107  0.00  0.00    -0.441 OA
BRANCH  18  19
ATOM     19  C   UNL A   1     -24.340  -1.030  32.883  0.00  0.00    +0.235 C 
BRANCH  19  20
ATOM     20  C   UNL A   1     -24.770  -0.709  34.113  0.00  0.00    +0.016 C 
ATOM     21  C   UNL A   1     -24.578  -1.093  35.185  0.00  0.00    -0.027 C 
ATOM     22  C   UNL A   1     -24.772  -0.757  36.259  0.00  0.00    +0.030 C 
ENDBRANCH  19  20
ENDBRANCH  18  19
ENDBRANCH  16  18
ENDBRANCH   6  16
BRANCH   1  23
ATOM     23  C   UNL A   1     -23.322  -1.918  29.014  0.00  0.00    +0.099 C 
BRANCH  23  24
ATOM     24  N   UNL A   1     -24.342  -2.843  29.271  0.00  0.00    -0.269 NA
ATOM     25  C   UNL A   1     -25.545  -2.555  29.762  0.00  0.00    +0.072 C 
ATOM     26  C   UNL A   1     -26.483  -3.612  29.935  0.00  0.00    +0.017 C 
ATOM     27  C   UNL A   1     -24.223  -4.229  28.918  0.00  0.00    +0.072 C 
ATOM     28  C   UNL A   1     -25.091  -5.200  29.078  0.00  0.00    +0.017 C 
ATOM     29  C   UNL A   1     -26.276  -4.901  29.590  0.00  0.00    +0.003 C 
ENDBRANCH  23  24
ENDBRANCH   1  23
TORSDOF 7
ENDMDL
ENDMDL
