MODEL 3197
MODEL 1
REMARK VINA RESULT:    -6.803      0.000      0.000
REMARK INTER + INTRA:          -8.014
REMARK INTER:                  -7.598
REMARK INTRA:                  -0.416
REMARK UNBOUND:                -0.416
REMARK  Name = No_3197-gen_results/8p0m/2024-11-27-11-27-31/
REMARK  2 active torsions:
REMARK  status: ('A' for Active; 'I' for Inactive)
REMARK    1  A    between atoms: C_3  and  C_4
REMARK    2  A    between atoms: C_10  and  C_13
REMARK                            x       y       z     vdW  Elec       q    Type
REMARK                         _______ _______ _______ _____ _____    ______ ____
ROOT
ATOM      1  C   UNL A   1     -29.132 -10.264  32.736  0.00  0.00    +0.007 A 
ATOM      2  C   UNL A   1     -29.722  -9.987  31.717  0.00  0.00    +0.000 A 
ATOM      3  C   UNL A   1     -29.577 -10.697  30.525  0.00  0.00    +0.000 A 
ATOM      4  C   UNL A   1     -28.049 -11.236  32.730  0.00  0.00    +0.080 A 
ATOM      5  C   UNL A   1     -27.869 -12.095  31.655  0.00  0.00    +0.007 A 
ATOM      6  C   UNL A   1     -28.605 -11.815  30.489  0.00  0.00    +0.000 A 
ENDROOT
BRANCH   3   7
ATOM      7  C   UNL A   1     -30.244 -10.424  29.237  0.00  0.00    +0.001 A 
ATOM      8  C   UNL A   1     -29.857 -11.262  28.147  0.00  0.00    +0.011 A 
ATOM      9  C   UNL A   1     -30.417 -11.037  26.890  0.00  0.00    +0.058 A 
ATOM     10  C   UNL A   1     -31.219  -9.903  26.703  0.00  0.00    +0.011 A 
ATOM     11  C   UNL A   1     -31.579  -9.081  27.744  0.00  0.00    +0.001 A 
ATOM     12  C   UNL A   1     -31.040  -9.336  29.023  0.00  0.00    +0.000 A 
ATOM     13 CL   UNL A   1     -29.936 -12.013  25.566  0.00  0.00    -0.082 Cl
ENDBRANCH   3   7
BRANCH   4  14
ATOM     14  C   UNL A   1     -27.279 -11.540  33.960  0.00  0.00    +0.388 C 
ATOM     15  O   UNL A   1     -26.733 -12.697  34.032  0.00  0.00    -0.241 OA
ATOM     16  O   UNL A   1     -26.814 -10.721  34.694  0.00  0.00    -0.241 OA
ENDBRANCH   4  14
TORSDOF 2
ENDMDL
ENDMDL
