REMARK  Name = outputs/IAG933/test6/raw/output_3197_IAG933_linker_design_.xyz
REMARK  12 active torsions:
REMARK  status: ('A' for Active; 'I' for Inactive)
REMARK    1  A    between atoms: C_1  and  C_2
REMARK    2  A    between atoms: C_1  and  C_8
REMARK    3  A    between atoms: C_1  and  N_40
REMARK    4  A    between atoms: C_13  and  C_28
REMARK    5  A    between atoms: C_14  and  C_15
REMARK    6  A    between atoms: C_21  and  O_22
REMARK    7  A    between atoms: O_22  and  C_23
REMARK    8  A    between atoms: C_23  and  C_24
REMARK    9  A    between atoms: C_30  and  N_40
REMARK   10  A    between atoms: C_34  and  C_37
REMARK   11  A    between atoms: C_39  and  N_40
REMARK   12  A    between atoms: C_39  and  C_42
REMARK                            x       y       z     vdW  Elec       q    Type
REMARK                         _______ _______ _______ _____ _____    ______ ____
ROOT
ATOM      1  C   UNL A   1     -24.871   1.138  27.529  0.00  0.00    +0.055 C 
ATOM      2  C   UNL A   1     -24.772   0.250  28.259  0.00  0.00    +0.090 C 
ATOM      3  C   UNL A   1     -23.799   0.573  28.108  0.00  0.00    +0.155 C 
ATOM      4  O   UNL A   1     -22.924   0.092  28.956  0.00  0.00    -0.223 OA
ENDROOT
BRANCH   1   5
ATOM      5  C   UNL A   1     -25.688   1.614  26.461  0.00  0.00    +0.074 C 
ATOM      6  C   UNL A   1     -26.250   2.920  26.395  0.00  0.00    +0.055 C 
ATOM      7  C   UNL A   1     -27.438   3.091  25.645  0.00  0.00    +0.102 C 
ATOM      8  N   UNL A   1     -28.075   2.089  25.003  0.00  0.00    -0.212 NA
ATOM      9  C   UNL A   1     -27.543   0.849  25.079  0.00  0.00    +0.234 C 
ATOM     10  C   UNL A   1     -26.354   0.576  25.777  0.00  0.00    +0.240 C 
ATOM     11  F   UNL A   1     -25.860  -0.681  25.795  0.00  0.00    -0.227 F 
BRANCH   6  12
ATOM     12  C   UNL A   1     -25.642   4.093  27.123  0.00  0.00    +0.262 C 
ATOM     13  N   UNL A   1     -25.614   5.252  26.449  0.00  0.00    -0.200 NA
ATOM     14  C   UNL A   1     -25.026   6.479  26.963  0.00  0.00    +0.139 C 
ATOM     15  O   UNL A   1     -25.143   3.966  28.243  0.00  0.00    -0.269 OA
ENDBRANCH   6  12
BRANCH   9  16
ATOM     16  O   UNL A   1     -28.193  -0.208  24.477  0.00  0.00    -0.459 OA
BRANCH  16  17
ATOM     17  C   UNL A   1     -29.460   0.005  23.866  0.00  0.00    +0.242 C 
BRANCH  17  18
ATOM     18  C   UNL A   1     -30.065  -1.377  23.573  0.00  0.00    +0.229 C 
ATOM     19  O   UNL A   1     -30.729  -1.878  24.721  0.00  0.00    -0.216 OA
ENDBRANCH  17  18
ENDBRANCH  16  17
ENDBRANCH   9  16
ENDBRANCH   1   5
BRANCH   3  22
ATOM     20 CL   UNL A   1     -22.948   2.353  25.689  0.00  0.00    -0.112 Cl
ATOM     21  C   UNL A   1     -21.339   1.718  27.624  0.00  0.00    +0.020 C 
ATOM     22  C   UNL A   1     -22.798   1.312  27.265  0.00  0.00    +0.109 C 
ENDBRANCH   3  22
BRANCH   2  23
ATOM     23  N   UNL A   1     -25.645  -0.105  29.310  0.00  0.00    -0.268 NA
BRANCH  23  24
ATOM     24  C   UNL A   1     -24.855  -1.012  30.143  0.00  0.00    +0.096 C 
BRANCH  24  25
ATOM     25  C   UNL A   1     -24.973  -2.505  29.788  0.00  0.00    -0.006 C 
ATOM     26  C   UNL A   1     -23.906  -3.173  29.146  0.00  0.00    -0.003 C 
ATOM     27  C   UNL A   1     -23.989  -4.549  28.853  0.00  0.00    -0.000 C 
ATOM     28  C   UNL A   1     -25.137  -5.280  29.205  0.00  0.00    -0.000 C 
ATOM     29  C   UNL A   1     -26.232  -4.611  29.784  0.00  0.00    -0.000 C 
ATOM     30  C   UNL A   1     -26.155  -3.232  30.065  0.00  0.00    -0.003 C 
ENDBRANCH  24  25
BRANCH  24  31
ATOM     31  C   UNL A   1     -25.387  -0.679  31.571  0.00  0.00    +0.092 C 
ATOM     32  C   UNL A   1     -25.189   0.773  32.028  0.00  0.00    +0.021 C 
ATOM     33  C   UNL A   1     -25.336   0.684  33.544  0.00  0.00    +0.020 C 
ATOM     34  C   UNL A   1     -24.829  -0.715  33.905  0.00  0.00    +0.089 C 
ATOM     35  N   UNL A   1     -24.758  -1.481  32.646  0.00  0.00    -0.218 NA
ENDBRANCH  24  31
ENDBRANCH  23  24
BRANCH  23  36
ATOM     36  C   UNL A   1     -27.087  -0.071  28.532  0.00  0.00    +0.078 C 
BRANCH  36  42
ATOM     37  O   UNL A   1     -28.895  -1.548  29.420  0.00  0.00    -0.190 OA
ATOM     38  C   UNL A   1     -30.748   0.592  28.623  0.00  0.00    +0.145 C 
ATOM     39  C   UNL A   1     -29.446   1.153  28.005  0.00  0.00    +0.039 C 
ATOM     40  O   UNL A   1     -30.456   0.154  29.962  0.00  0.00    -0.329 OA
ATOM     41  C   UNL A   1     -29.038  -0.199  29.987  0.00  0.00    +0.270 C 
ATOM     42  C   UNL A   1     -28.326   0.738  29.088  0.00  0.00    +0.078 C 
ENDBRANCH  36  42
ENDBRANCH  23  36
ENDBRANCH   2  23
TORSDOF 12
