REMARK  Name = outputs/IAG933/test6/raw/output_3198_IAG933_linker_design_.xyz
REMARK  11 active torsions:
REMARK  status: ('A' for Active; 'I' for Inactive)
REMARK    1  A    between atoms: C_1  and  C_2
REMARK    2  A    between atoms: C_1  and  C_8
REMARK    3  A    between atoms: C_1  and  C_31
REMARK    4  A    between atoms: C_13  and  C_30
REMARK    5  A    between atoms: C_14  and  C_15
REMARK    6  A    between atoms: C_21  and  O_22
REMARK    7  A    between atoms: O_22  and  C_23
REMARK    8  A    between atoms: C_23  and  C_24
REMARK    9  A    between atoms: C_29  and  C_37
REMARK   10  A    between atoms: C_31  and  N_34
REMARK   11  A    between atoms: C_31  and  C_38
REMARK                            x       y       z     vdW  Elec       q    Type
REMARK                         _______ _______ _______ _____ _____    ______ ____
ROOT
ATOM      1  C   UNL A   1     -22.019   1.633  27.304  0.00  0.00    +0.151 C 
ATOM      2  C   UNL A   1     -24.413   1.312  27.139  0.00  0.00    +0.013 C 
ATOM      3  C   UNL A   1     -23.199   0.574  29.096  0.00  0.00    -0.000 C 
ATOM      4  C   UNL A   1     -24.393   0.619  28.378  0.00  0.00    -0.001 C 
ATOM      5  F   UNL A   1     -20.885   1.994  26.729  0.00  0.00    -0.203 F 
ATOM      6  C   UNL A   1     -22.018   1.075  28.576  0.00  0.00    +0.030 C 
ATOM      7 CL   UNL A   1     -23.160   2.554  24.998  0.00  0.00    -0.080 Cl
ATOM      8  C   UNL A   1     -23.209   1.768  26.579  0.00  0.00    +0.085 C 
ENDROOT
BRANCH   2   9
ATOM      9  C   UNL A   1     -25.688   1.614  26.461  0.00  0.00    +0.039 C 
ATOM     10  C   UNL A   1     -26.250   2.920  26.395  0.00  0.00    +0.077 C 
ATOM     11  C   UNL A   1     -27.438   3.091  25.645  0.00  0.00    +0.107 C 
ATOM     12  N   UNL A   1     -28.075   2.089  25.003  0.00  0.00    -0.208 NA
ATOM     13  C   UNL A   1     -27.543   0.849  25.079  0.00  0.00    +0.253 C 
ATOM     14  C   UNL A   1     -26.354   0.576  25.777  0.00  0.00    +0.193 C 
ATOM     15  F   UNL A   1     -25.860  -0.681  25.795  0.00  0.00    -0.199 F 
BRANCH  10  16
ATOM     16  C   UNL A   1     -25.642   4.093  27.123  0.00  0.00    +0.266 C 
ATOM     17  N   UNL A   1     -25.614   5.252  26.449  0.00  0.00    -0.200 NA
ATOM     18  C   UNL A   1     -25.026   6.479  26.963  0.00  0.00    +0.139 C 
ATOM     19  O   UNL A   1     -25.143   3.966  28.243  0.00  0.00    -0.268 OA
ENDBRANCH  10  16
BRANCH  13  20
ATOM     20  O   UNL A   1     -28.193  -0.208  24.477  0.00  0.00    -0.456 OA
BRANCH  20  21
ATOM     21  C   UNL A   1     -29.460   0.005  23.866  0.00  0.00    +0.243 C 
BRANCH  21  22
ATOM     22  C   UNL A   1     -30.065  -1.377  23.573  0.00  0.00    +0.229 C 
ATOM     23  O   UNL A   1     -30.729  -1.878  24.721  0.00  0.00    -0.216 OA
ENDBRANCH  21  22
ENDBRANCH  20  21
ENDBRANCH  13  20
ENDBRANCH   2   9
BRANCH   4  24
ATOM     24  C   UNL A   1     -25.504  -0.089  29.105  0.00  0.00    +0.123 C 
BRANCH  24  26
ATOM     25  C   UNL A   1     -27.901   0.656  28.814  0.00  0.00    +0.265 C 
ATOM     26  N   UNL A   1     -26.659   0.188  28.902  0.00  0.00    -0.199 NA
ATOM     27  O   UNL A   1     -28.696  -0.222  28.561  0.00  0.00    -0.268 OA
BRANCH  25  30
ATOM     28  C   UNL A   1     -28.967   4.873  28.953  0.00  0.00    +0.000 C 
ATOM     29  C   UNL A   1     -29.350   2.594  28.137  0.00  0.00    +0.005 C 
ATOM     30  C   UNL A   1     -28.330   2.102  28.988  0.00  0.00    +0.055 C 
ATOM     31  C   UNL A   1     -29.646   3.968  28.102  0.00  0.00    +0.000 C 
ATOM     32  C   UNL A   1     -28.032   4.382  29.881  0.00  0.00    +0.000 C 
ATOM     33  C   UNL A   1     -27.744   3.000  29.909  0.00  0.00    +0.005 C 
ENDBRANCH  25  30
ENDBRANCH  24  26
BRANCH  24  34
ATOM     34  C   UNL A   1     -24.855  -1.012  30.143  0.00  0.00    +0.062 C 
BRANCH  34  35
ATOM     35  C   UNL A   1     -24.973  -2.505  29.788  0.00  0.00    -0.019 C 
ATOM     36  C   UNL A   1     -23.906  -3.173  29.146  0.00  0.00    -0.004 C 
ATOM     37  C   UNL A   1     -23.989  -4.549  28.853  0.00  0.00    -0.000 C 
ATOM     38  C   UNL A   1     -25.137  -5.280  29.205  0.00  0.00    -0.000 C 
ATOM     39  C   UNL A   1     -26.232  -4.611  29.784  0.00  0.00    -0.000 C 
ATOM     40  C   UNL A   1     -26.155  -3.232  30.065  0.00  0.00    -0.004 C 
ENDBRANCH  34  35
BRANCH  34  41
ATOM     41  C   UNL A   1     -25.387  -0.679  31.571  0.00  0.00    +0.079 C 
ATOM     42  C   UNL A   1     -25.189   0.773  32.028  0.00  0.00    +0.019 C 
ATOM     43  C   UNL A   1     -25.336   0.684  33.544  0.00  0.00    +0.020 C 
ATOM     44  C   UNL A   1     -24.829  -0.715  33.905  0.00  0.00    +0.089 C 
ATOM     45  N   UNL A   1     -24.758  -1.481  32.646  0.00  0.00    -0.219 NA
ENDBRANCH  34  41
ENDBRANCH  24  34
ENDBRANCH   4  24
TORSDOF 11
