MODEL 3198
MODEL 1
REMARK VINA RESULT:    -6.424      0.000      0.000
REMARK INTER + INTRA:         -10.261
REMARK INTER:                  -8.302
REMARK INTRA:                  -1.959
REMARK UNBOUND:                -1.959
REMARK  Name = No_3198-gen_results/8p0m/2024-11-27-11-27-31/
REMARK  5 active torsions:
REMARK  status: ('A' for Active; 'I' for Inactive)
REMARK    1  A    between atoms: C_1  and  C_2
REMARK    2  A    between atoms: C_1  and  C_11
REMARK    3  A    between atoms: C_5  and  C_6
REMARK    4  A    between atoms: C_11  and  C_22
REMARK    5  A    between atoms: N_20  and  C_21
REMARK                            x       y       z     vdW  Elec       q    Type
REMARK                         _______ _______ _______ _____ _____    ______ ____
ROOT
ATOM      1  C   UNL A   1     -20.069 -22.171   6.605  0.00  0.00    +0.081 C 
ATOM      2  C   UNL A   1     -19.740 -21.963   8.027  0.00  0.00    +0.027 C 
ATOM      3  C   UNL A   1     -18.400 -21.830   8.214  0.00  0.00    +0.030 C 
ATOM      4  C   UNL A   1     -17.709 -22.321   7.597  0.00  0.00    -0.009 A 
ATOM      5  C   UNL A   1     -16.291 -22.219   7.959  0.00  0.00    -0.003 A 
ATOM      6  C   UNL A   1     -15.222 -22.825   7.163  0.00  0.00    -0.000 A 
ATOM      7  C   UNL A   1     -15.607 -23.399   5.966  0.00  0.00    +0.001 A 
ATOM      8  C   UNL A   1     -16.914 -23.489   5.574  0.00  0.00    +0.014 A 
ATOM      9  C   UNL A   1     -17.918 -22.947   6.336  0.00  0.00    +0.044 A 
ATOM     10  N   UNL A   1     -19.472 -23.503   6.462  0.00  0.00    -0.309 N 
ENDROOT
BRANCH  10  11
ATOM     11  C   UNL A   1     -19.907 -24.686   6.223  0.00  0.00    +0.076 C 
ATOM     12  C   UNL A   1     -19.565 -25.314   4.977  0.00  0.00    +0.037 C 
ATOM     13  C   UNL A   1     -19.970 -26.581   4.742  0.00  0.00    +0.074 C 
ATOM     14  C   UNL A   1     -19.365 -25.620   7.296  0.00  0.00    +0.037 C 
ATOM     15  C   UNL A   1     -19.946 -26.984   7.174  0.00  0.00    +0.074 C 
ATOM     16  N   UNL A   1     -19.575 -27.520   5.815  0.00  0.00    -0.271 NA
ATOM     17  C   UNL A   1     -19.954 -28.918   5.580  0.00  0.00    +0.090 C 
ENDBRANCH  10  11
BRANCH   1  18
ATOM     18  C   UNL A   1     -21.577 -22.583   6.452  0.00  0.00    -0.006 A 
ATOM     19  C   UNL A   1     -22.436 -21.772   7.383  0.00  0.00    -0.003 A 
ATOM     20  C   UNL A   1     -23.614 -21.247   6.816  0.00  0.00    -0.000 A 
ATOM     21  C   UNL A   1     -24.040 -21.542   5.505  0.00  0.00    -0.000 A 
ATOM     22  C   UNL A   1     -23.604 -22.614   4.679  0.00  0.00    -0.000 A 
ATOM     23  C   UNL A   1     -22.055 -22.466   4.966  0.00  0.00    -0.003 A 
ENDBRANCH   1  18
BRANCH   1  24
ATOM     24  C   UNL A   1     -19.495 -21.145   5.581  0.00  0.00    +0.049 C 
BRANCH  24  25
ATOM     25  C   UNL A   1     -20.097 -20.100   5.681  0.00  0.00    -0.020 A 
ATOM     26  C   UNL A   1     -20.038 -19.234   6.652  0.00  0.00    -0.004 A 
ATOM     27  C   UNL A   1     -20.790 -17.958   6.736  0.00  0.00    +0.004 A 
ATOM     28  C   UNL A   1     -21.618 -17.637   5.623  0.00  0.00    +0.057 A 
ATOM     29  C   UNL A   1     -20.971 -19.613   4.522  0.00  0.00    -0.004 A 
ATOM     30  C   UNL A   1     -21.687 -18.430   4.510  0.00  0.00    +0.004 A 
BRANCH  28  31
ATOM     31  C   UNL A   1     -22.319 -16.405   5.622  0.00  0.00    +0.284 C 
ATOM     32  N   UNL A   1     -23.074 -15.684   6.383  0.00  0.00    -0.084 NA
ATOM     33  O   UNL A   1     -22.285 -15.810   4.375  0.00  0.00    -0.267 OA
ENDBRANCH  28  31
ENDBRANCH  24  25
ENDBRANCH   1  24
TORSDOF 5
ENDMDL
ENDMDL
