MODEL 319
MODEL 1
REMARK VINA RESULT:    -6.551      0.000      0.000
REMARK INTER + INTRA:         -11.980
REMARK INTER:                  -8.849
REMARK INTRA:                  -3.131
REMARK UNBOUND:                -3.131
REMARK  Name = No_319-gen_results/8p0m/2024-11-27-11-27-31/
REMARK  6 active torsions:
REMARK  status: ('A' for Active; 'I' for Inactive)
REMARK    1  A    between atoms: C_10  and  C_11
REMARK    2  A    between atoms: C_16  and  O_18
REMARK    3  A    between atoms: O_18  and  C_19
REMARK    4  A    between atoms: C_24  and  C_25
REMARK    5  A    between atoms: C_26  and  C_27
REMARK    6  A    between atoms: C_28  and  C_29
REMARK                            x       y       z     vdW  Elec       q    Type
REMARK                         _______ _______ _______ _____ _____    ______ ____
ROOT
ATOM      1  C   UNL A   1     -33.214  -9.930   8.822  0.00  0.00    +0.037 A 
ATOM      2  C   UNL A   1     -32.602  -9.103   9.045  0.00  0.00    +0.135 A 
ATOM      3  C   UNL A   1     -32.970 -11.088   9.682  0.00  0.00    +0.003 A 
ATOM      4  C   UNL A   1     -33.773 -12.331   9.634  0.00  0.00    +0.000 A 
ATOM      5  C   UNL A   1     -31.553  -8.830  10.019  0.00  0.00    +0.015 A 
ATOM      6  C   UNL A   1     -31.284  -9.904  10.841  0.00  0.00    -0.001 A 
ATOM      7  C   UNL A   1     -32.014 -11.029  10.729  0.00  0.00    +0.006 A 
ATOM      8  C   UNL A   1     -33.225 -13.436  10.312  0.00  0.00    +0.000 A 
ATOM      9  C   UNL A   1     -32.275 -13.332  11.321  0.00  0.00    +0.007 A 
ATOM     10  C   UNL A   1     -31.569 -12.166  11.467  0.00  0.00    +0.080 A 
ATOM     11  O   UNL A   1     -32.881  -7.856   8.254  0.00  0.00    -0.472 OA
ATOM     12  C   UNL A   1     -32.491  -6.629   8.718  0.00  0.00    +0.249 C 
ATOM     13  C   UNL A   1     -31.202  -6.464   8.946  0.00  0.00    +0.214 C 
ATOM     14  C   UNL A   1     -30.833  -7.446  10.169  0.00  0.00    +0.077 C 
ENDROOT
BRANCH  10  15
ATOM     15  C   UNL A   1     -30.518 -12.150  12.509  0.00  0.00    +0.388 C 
ATOM     16  O   UNL A   1     -30.904 -11.590  13.584  0.00  0.00    -0.241 OA
ATOM     17  O   UNL A   1     -29.460 -12.769  12.406  0.00  0.00    -0.241 OA
ENDBRANCH  10  15
BRANCH  13  18
ATOM     18  O   UNL A   1     -30.352  -6.790   7.848  0.00  0.00    -0.475 OA
BRANCH  18  19
ATOM     19  C   UNL A   1     -29.287  -6.251   7.630  0.00  0.00    +0.139 A 
ATOM     20  C   UNL A   1     -28.724  -6.450   6.322  0.00  0.00    +0.037 A 
ATOM     21  C   UNL A   1     -27.791  -6.710   6.038  0.00  0.00    +0.003 A 
ATOM     22  C   UNL A   1     -26.501  -6.475   6.895  0.00  0.00    +0.000 A 
ATOM     23  C   UNL A   1     -26.927  -6.218   8.247  0.00  0.00    +0.003 A 
ATOM     24  C   UNL A   1     -28.108  -6.682   8.612  0.00  0.00    +0.034 A 
BRANCH  24  25
ATOM     25  C   UNL A   1     -27.779  -8.195   8.206  0.00  0.00    +0.003 C 
ATOM     26  C   UNL A   1     -27.481  -9.066   9.251  0.00  0.00    +0.000 C 
BRANCH  26  27
ATOM     27  C   UNL A   1     -27.485 -10.504   8.978  0.00  0.00    -0.000 C 
ATOM     28  C   UNL A   1     -28.578 -11.226   9.342  0.00  0.00    -0.000 C 
BRANCH  28  29
ATOM     29  C   UNL A   1     -28.657 -12.594   8.962  0.00  0.00    -0.005 C 
ATOM     30  C   UNL A   1     -29.605 -13.002   8.012  0.00  0.00    -0.026 C 
ATOM     31  C   UNL A   1     -30.439 -12.062   7.431  0.00  0.00    +0.031 C 
ENDBRANCH  28  29
ENDBRANCH  26  27
ENDBRANCH  24  25
ENDBRANCH  18  19
ENDBRANCH  13  18
TORSDOF 6
ENDMDL
ENDMDL
