REMARK  Name = outputs/IAG933/test6/raw/output_3200_IAG933_linker_design_.xyz
REMARK  11 active torsions:
REMARK  status: ('A' for Active; 'I' for Inactive)
REMARK    1  A    between atoms: C_1  and  C_2
REMARK    2  A    between atoms: C_1  and  C_8
REMARK    3  A    between atoms: C_1  and  C_33
REMARK    4  A    between atoms: C_13  and  C_30
REMARK    5  A    between atoms: C_14  and  C_15
REMARK    6  A    between atoms: C_21  and  O_22
REMARK    7  A    between atoms: O_22  and  C_23
REMARK    8  A    between atoms: C_23  and  C_24
REMARK    9  A    between atoms: C_30  and  C_34
REMARK   10  A    between atoms: C_30  and  N_41
REMARK   11  A    between atoms: C_33  and  N_41
REMARK                            x       y       z     vdW  Elec       q    Type
REMARK                         _______ _______ _______ _____ _____    ______ ____
ROOT
ATOM      1  N   UNL A   1     -27.530   2.879  29.712  0.00  0.00    -0.261 N 
ATOM      2  C   UNL A   1     -27.012   3.749  30.848  0.00  0.00    +0.112 C 
ATOM      3  C   UNL A   1     -27.228   1.592  29.460  0.00  0.00    +0.307 C 
ATOM      4  C   UNL A   1     -28.647   4.903  28.936  0.00  0.00    +0.094 C 
ATOM      5  C   UNL A   1     -28.129   6.868  30.301  0.00  0.00    +0.090 C 
ATOM      6  C   UNL A   1     -28.168   4.610  31.378  0.00  0.00    +0.094 C 
ATOM      7  N   UNL A   1     -25.886   1.141  29.025  0.00  0.00    -0.261 N 
ATOM      8  C   UNL A   1     -28.806   3.395  29.138  0.00  0.00    +0.112 C 
ATOM      9  N   UNL A   1     -28.696   5.490  30.310  0.00  0.00    -0.269 NA
ATOM     10  O   UNL A   1     -28.093   0.720  29.666  0.00  0.00    -0.252 OA
ENDROOT
BRANCH   7  11
ATOM     11  C   UNL A   1     -24.942   1.323  27.747  0.00  0.00    +0.108 C 
BRANCH  11  12
ATOM     12  C   UNL A   1     -25.688   1.614  26.461  0.00  0.00    +0.092 C 
ATOM     13  C   UNL A   1     -26.250   2.920  26.395  0.00  0.00    +0.057 C 
ATOM     14  C   UNL A   1     -27.438   3.091  25.645  0.00  0.00    +0.102 C 
ATOM     15  N   UNL A   1     -28.075   2.089  25.003  0.00  0.00    -0.212 NA
ATOM     16  C   UNL A   1     -27.543   0.849  25.079  0.00  0.00    +0.234 C 
ATOM     17  C   UNL A   1     -26.354   0.576  25.777  0.00  0.00    +0.242 C 
ATOM     18  F   UNL A   1     -25.860  -0.681  25.795  0.00  0.00    -0.227 F 
BRANCH  13  19
ATOM     19  C   UNL A   1     -25.642   4.093  27.123  0.00  0.00    +0.263 C 
ATOM     20  N   UNL A   1     -25.614   5.252  26.449  0.00  0.00    -0.200 NA
ATOM     21  C   UNL A   1     -25.026   6.479  26.963  0.00  0.00    +0.139 C 
ATOM     22  O   UNL A   1     -25.143   3.966  28.243  0.00  0.00    -0.269 OA
ENDBRANCH  13  19
BRANCH  16  23
ATOM     23  O   UNL A   1     -28.193  -0.208  24.477  0.00  0.00    -0.459 OA
BRANCH  23  24
ATOM     24  C   UNL A   1     -29.460   0.005  23.866  0.00  0.00    +0.242 C 
BRANCH  24  25
ATOM     25  C   UNL A   1     -30.065  -1.377  23.573  0.00  0.00    +0.229 C 
ATOM     26  O   UNL A   1     -30.729  -1.878  24.721  0.00  0.00    -0.216 OA
ENDBRANCH  24  25
ENDBRANCH  23  24
ENDBRANCH  16  23
ENDBRANCH  11  12
BRANCH  11  28
ATOM     27  C   UNL A   1     -22.751   2.156  25.351  0.00  0.00    +0.075 C 
ATOM     28  C   UNL A   1     -23.537   1.444  27.826  0.00  0.00    +0.041 C 
ATOM     29  C   UNL A   1     -22.842   1.216  28.955  0.00  0.00    +0.222 C 
ATOM     30  O   UNL A   1     -21.433   1.417  27.257  0.00  0.00    -0.338 OA
ATOM     31  O   UNL A   1     -21.619   0.957  28.628  0.00  0.00    -0.168 OA
ATOM     32  C   UNL A   1     -22.591   1.697  26.771  0.00  0.00    +0.157 C 
ENDBRANCH  11  28
ENDBRANCH   7  11
BRANCH   7  33
ATOM     33  C   UNL A   1     -25.886  -0.453  29.082  0.00  0.00    +0.101 C 
BRANCH  33  34
ATOM     34  C   UNL A   1     -24.855  -1.012  30.143  0.00  0.00    +0.058 C 
BRANCH  34  35
ATOM     35  C   UNL A   1     -24.973  -2.505  29.788  0.00  0.00    -0.019 C 
ATOM     36  C   UNL A   1     -23.906  -3.173  29.146  0.00  0.00    -0.004 C 
ATOM     37  C   UNL A   1     -23.989  -4.549  28.853  0.00  0.00    -0.000 C 
ATOM     38  C   UNL A   1     -25.137  -5.280  29.205  0.00  0.00    -0.000 C 
ATOM     39  C   UNL A   1     -26.232  -4.611  29.784  0.00  0.00    -0.000 C 
ATOM     40  C   UNL A   1     -26.155  -3.232  30.065  0.00  0.00    -0.004 C 
ENDBRANCH  34  35
BRANCH  34  41
ATOM     41  C   UNL A   1     -25.387  -0.679  31.571  0.00  0.00    +0.079 C 
ATOM     42  C   UNL A   1     -25.189   0.773  32.028  0.00  0.00    +0.019 C 
ATOM     43  C   UNL A   1     -25.336   0.684  33.544  0.00  0.00    +0.020 C 
ATOM     44  C   UNL A   1     -24.829  -0.715  33.905  0.00  0.00    +0.089 C 
ATOM     45  N   UNL A   1     -24.758  -1.481  32.646  0.00  0.00    -0.219 NA
ENDBRANCH  34  41
ENDBRANCH  33  34
ENDBRANCH   7  33
TORSDOF 11
