MODEL 3200
MODEL 1
REMARK VINA RESULT:    -9.475      0.000      0.000
REMARK INTER + INTRA:         -14.950
REMARK INTER:                 -13.906
REMARK INTRA:                  -1.044
REMARK UNBOUND:                -1.044
REMARK  Name = No_3200-gen_results/8p0m/2024-11-27-11-27-31/
REMARK  8 active torsions:
REMARK  status: ('A' for Active; 'I' for Inactive)
REMARK    1  A    between atoms: C_1  and  C_2
REMARK    2  A    between atoms: C_1  and  N_8
REMARK    3  A    between atoms: C_3  and  C_19
REMARK    4  A    between atoms: C_5  and  C_9
REMARK    5  A    between atoms: N_8  and  C_13
REMARK    6  A    between atoms: N_8  and  C_23
REMARK    7  A    between atoms: N_20  and  C_22
REMARK    8  A    between atoms: C_22  and  C_30
REMARK                            x       y       z     vdW  Elec       q    Type
REMARK                         _______ _______ _______ _____ _____    ______ ____
ROOT
ATOM      1  C   UNL A   1     -25.288   0.321  28.115  0.00  0.00    +0.002 A 
ATOM      2  C   UNL A   1     -25.687   0.651  26.831  0.00  0.00    +0.053 A 
ATOM      3  C   UNL A   1     -24.871   1.273  25.816  0.00  0.00    +0.008 A 
ATOM      4  C   UNL A   1     -23.530   1.596  26.131  0.00  0.00    +0.071 A 
ATOM      5  C   UNL A   1     -23.058   1.287  27.433  0.00  0.00    +0.004 A 
ATOM      6  C   UNL A   1     -23.896   0.673  28.311  0.00  0.00    -0.003 A 
ENDROOT
BRANCH   4   7
ATOM      7  C   UNL A   1     -22.647   2.229  25.181  0.00  0.00    +0.419 C 
ATOM      8  F   UNL A   1     -22.700   1.726  24.043  0.00  0.00    -0.166 F 
ATOM      9  F   UNL A   1     -23.071   3.539  24.994  0.00  0.00    -0.166 F 
ATOM     10  F   UNL A   1     -21.394   2.231  25.604  0.00  0.00    -0.166 F 
ENDBRANCH   4   7
BRANCH   2  11
ATOM     11  C   UNL A   1     -27.040   0.319  26.424  0.00  0.00    +0.265 C 
ATOM     12  N   UNL A   1     -27.377   0.149  25.120  0.00  0.00    -0.197 NA
ATOM     13  O   UNL A   1     -27.910  -0.004  27.266  0.00  0.00    -0.268 OA
BRANCH  12  14
ATOM     14  C   UNL A   1     -28.609  -0.303  24.600  0.00  0.00    +0.142 C 
BRANCH  14  15
ATOM     15  C   UNL A   1     -29.228   0.644  23.951  0.00  0.00    -0.001 A 
ATOM     16  C   UNL A   1     -28.779   1.929  24.324  0.00  0.00    -0.003 A 
ATOM     17  C   UNL A   1     -29.470   2.978  24.095  0.00  0.00    -0.000 A 
ATOM     18  C   UNL A   1     -30.610   2.993  23.190  0.00  0.00    -0.000 A 
ATOM     19  C   UNL A   1     -31.067   1.709  22.823  0.00  0.00    -0.000 A 
ATOM     20  C   UNL A   1     -30.462   0.601  23.284  0.00  0.00    -0.003 A 
ENDBRANCH  14  15
ENDBRANCH  12  14
ENDBRANCH   2  11
BRANCH   1  21
ATOM     21  C   UNL A   1     -25.968  -0.263  28.927  0.00  0.00    +0.118 C 
BRANCH  21  22
ATOM     22  N   UNL A   1     -25.403  -1.228  29.702  0.00  0.00    -0.298 N 
BRANCH  22  23
ATOM     23  C   UNL A   1     -24.771  -0.842  31.055  0.00  0.00    +0.118 C 
ATOM     24  C   UNL A   1     -23.501  -0.848  31.271  0.00  0.00    -0.002 C 
ATOM     25  C   UNL A   1     -23.048  -1.261  32.189  0.00  0.00    -0.003 C 
ATOM     26  C   UNL A   1     -23.724  -1.320  33.507  0.00  0.00    -0.000 C 
ATOM     27  C   UNL A   1     -25.768  -0.430  31.964  0.00  0.00    -0.002 C 
ATOM     28  C   UNL A   1     -25.447  -0.219  33.155  0.00  0.00    -0.003 C 
ATOM     29  C   UNL A   1     -24.627  -0.737  34.030  0.00  0.00    -0.000 C 
ENDBRANCH  22  23
BRANCH  22  30
ATOM     30  C   UNL A   1     -25.288  -2.588  29.370  0.00  0.00    +0.049 A 
ATOM     31  C   UNL A   1     -26.190  -3.413  29.720  0.00  0.00    +0.015 A 
ATOM     32  C   UNL A   1     -26.105  -4.520  29.690  0.00  0.00    +0.001 A 
ATOM     33  C   UNL A   1     -25.001  -5.203  29.020  0.00  0.00    +0.000 A 
ATOM     34  C   UNL A   1     -23.977  -4.418  28.594  0.00  0.00    +0.001 A 
ATOM     35  C   UNL A   1     -24.069  -3.045  28.794  0.00  0.00    +0.015 A 
ENDBRANCH  22  30
ENDBRANCH  21  22
ENDBRANCH   1  21
TORSDOF 8
ENDMDL
ENDMDL
