MODEL 3201
MODEL 1
REMARK VINA RESULT:    -6.700      0.000      0.000
REMARK INTER + INTRA:          -9.035
REMARK INTER:                  -8.266
REMARK INTRA:                  -0.768
REMARK UNBOUND:                -0.768
REMARK  Name = No_3201-gen_results/8p0m/2024-11-27-11-27-31/
REMARK  4 active torsions:
REMARK  status: ('A' for Active; 'I' for Inactive)
REMARK    1  A    between atoms: C_3  and  C_7
REMARK    2  A    between atoms: C_6  and  O_14
REMARK    3  A    between atoms: C_7  and  C_8
REMARK    4  A    between atoms: O_14  and  C_15
REMARK                            x       y       z     vdW  Elec       q    Type
REMARK                         _______ _______ _______ _____ _____    ______ ____
ROOT
ATOM      1  C   UNL A   1     -23.401   0.563  28.252  0.00  0.00    -0.004 A 
ATOM      2  C   UNL A   1     -23.190   1.078  27.358  0.00  0.00    +0.003 A 
ATOM      3  C   UNL A   1     -24.528  -0.326  28.221  0.00  0.00    -0.015 A 
ATOM      4  C   UNL A   1     -25.376  -0.391  27.190  0.00  0.00    +0.034 A 
ATOM      5  C   UNL A   1     -23.975   1.174  26.135  0.00  0.00    +0.037 A 
ATOM      6  C   UNL A   1     -25.034   0.375  26.099  0.00  0.00    +0.145 A 
ENDROOT
BRANCH   3   7
ATOM      7  C   UNL A   1     -24.593  -1.118  29.503  0.00  0.00    +0.053 C 
BRANCH   7   8
ATOM      8  C   UNL A   1     -24.825  -2.573  29.269  0.00  0.00    -0.018 A 
ATOM      9  C   UNL A   1     -25.988  -3.128  29.762  0.00  0.00    -0.004 A 
ATOM     10  C   UNL A   1     -26.207  -4.534  29.640  0.00  0.00    -0.000 A 
ATOM     11  C   UNL A   1     -25.195  -5.295  29.043  0.00  0.00    -0.000 A 
ATOM     12  C   UNL A   1     -24.032  -4.752  28.531  0.00  0.00    -0.000 A 
ATOM     13  C   UNL A   1     -23.813  -3.363  28.708  0.00  0.00    -0.004 A 
ENDBRANCH   7   8
ENDBRANCH   3   7
BRANCH   6  14
ATOM     14  O   UNL A   1     -25.896   0.309  25.033  0.00  0.00    -0.451 OA
BRANCH  14  15
ATOM     15  C   UNL A   1     -27.029   0.291  24.991  0.00  0.00    +0.175 C 
ATOM     16  C   UNL A   1     -27.600   0.638  23.826  0.00  0.00    +0.015 C 
ATOM     17  C   UNL A   1     -29.008   0.419  23.563  0.00  0.00    +0.034 C 
ENDBRANCH  14  15
ENDBRANCH   6  14
TORSDOF 4
ENDMDL
ENDMDL
