MODEL 3202
MODEL 1
REMARK VINA RESULT:    -7.215      0.000      0.000
REMARK INTER + INTRA:          -8.269
REMARK INTER:                  -7.637
REMARK INTRA:                  -0.632
REMARK UNBOUND:                -0.632
REMARK  Name = No_3202-gen_results/8p0m/2024-11-27-11-27-31/
REMARK  1 active torsions:
REMARK  status: ('A' for Active; 'I' for Inactive)
REMARK    1  A    between atoms: C_14  and  C_15
REMARK                            x       y       z     vdW  Elec       q    Type
REMARK                         _______ _______ _______ _____ _____    ______ ____
ROOT
ATOM      1  C   UNL A   1     -23.802   1.736  25.819  0.00  0.00    -0.004 A 
ATOM      2  C   UNL A   1     -24.158   1.096  26.781  0.00  0.00    -0.011 A 
ATOM      3  C   UNL A   1     -23.315   0.756  27.838  0.00  0.00    -0.003 A 
ATOM      4  C   UNL A   1     -21.915   1.129  27.772  0.00  0.00    -0.000 A 
ATOM      5  C   UNL A   1     -21.569   1.866  26.616  0.00  0.00    -0.000 A 
ATOM      6  C   UNL A   1     -22.434   2.133  25.670  0.00  0.00    -0.000 A 
ATOM      7  C   UNL A   1     -23.497   0.064  29.156  0.00  0.00    +0.003 A 
ATOM      8  C   UNL A   1     -22.684  -0.126  30.122  0.00  0.00    +0.000 A 
ATOM      9  C   UNL A   1     -23.037  -0.802  31.332  0.00  0.00    +0.000 A 
ATOM     10  C   UNL A   1     -24.322  -1.098  31.673  0.00  0.00    +0.000 A 
ATOM     11  C   UNL A   1     -24.910  -0.509  29.305  0.00  0.00    +0.035 A 
ATOM     12  C   UNL A   1     -25.876  -0.307  28.369  0.00  0.00    +0.181 C 
ATOM     13  C   UNL A   1     -25.297  -1.090  30.588  0.00  0.00    +0.003 A 
ATOM     14  C   UNL A   1     -25.538   0.512  27.131  0.00  0.00    +0.106 C 
ATOM     15  O   UNL A   1     -27.019  -0.785  28.467  0.00  0.00    -0.291 OA
ENDROOT
BRANCH  14  16
ATOM     16  C   UNL A   1     -26.599   0.831  26.165  0.00  0.00    -0.011 A 
ATOM     17  C   UNL A   1     -27.239   1.995  26.413  0.00  0.00    -0.004 A 
ATOM     18  C   UNL A   1     -27.760   2.709  25.367  0.00  0.00    -0.000 A 
ATOM     19  C   UNL A   1     -26.763   0.055  25.077  0.00  0.00    -0.004 A 
ATOM     20  C   UNL A   1     -27.514   0.660  24.004  0.00  0.00    -0.000 A 
ATOM     21  C   UNL A   1     -28.110   1.920  24.227  0.00  0.00    -0.000 A 
ENDBRANCH  14  16
TORSDOF 1
ENDMDL
ENDMDL
