REMARK  Name = outputs/IAG933/test6/raw/output_3202_IAG933_linker_design_.xyz
REMARK  11 active torsions:
REMARK  status: ('A' for Active; 'I' for Inactive)
REMARK    1  A    between atoms: C_1  and  C_2
REMARK    2  A    between atoms: C_1  and  C_8
REMARK    3  A    between atoms: C_1  and  N_42
REMARK    4  A    between atoms: C_13  and  C_41
REMARK    5  A    between atoms: C_14  and  C_15
REMARK    6  A    between atoms: C_21  and  O_22
REMARK    7  A    between atoms: O_22  and  C_23
REMARK    8  A    between atoms: C_23  and  C_24
REMARK    9  A    between atoms: C_28  and  N_42
REMARK   10  A    between atoms: C_29  and  N_42
REMARK   11  A    between atoms: C_30  and  O_44
REMARK                            x       y       z     vdW  Elec       q    Type
REMARK                         _______ _______ _______ _____ _____    ______ ____
ROOT
ATOM      1  C   UNL A   1     -24.471   0.521  28.263  0.00  0.00    +0.335 C 
ATOM      2  C   UNL A   1     -22.031   1.845  26.424  0.00  0.00    +0.213 C 
ATOM      3  N   UNL A   1     -23.125   0.302  28.834  0.00  0.00    +0.006 NA
ATOM      4  O   UNL A   1     -21.309   1.393  27.545  0.00  0.00    -0.407 OA
ATOM      5  C   UNL A   1     -21.953   0.766  28.610  0.00  0.00    +0.426 C 
ATOM      6  F   UNL A   1     -23.756   2.377  25.089  0.00  0.00    -0.201 F 
ATOM      7  C   UNL A   1     -24.502   1.233  27.105  0.00  0.00    +0.116 C 
ATOM      8  C   UNL A   1     -23.389   1.765  26.230  0.00  0.00    +0.185 C 
ENDROOT
BRANCH   7   9
ATOM      9  C   UNL A   1     -25.688   1.614  26.461  0.00  0.00    +0.048 C 
ATOM     10  C   UNL A   1     -26.250   2.920  26.395  0.00  0.00    +0.077 C 
ATOM     11  C   UNL A   1     -27.438   3.091  25.645  0.00  0.00    +0.107 C 
ATOM     12  N   UNL A   1     -28.075   2.089  25.003  0.00  0.00    -0.208 NA
ATOM     13  C   UNL A   1     -27.543   0.849  25.079  0.00  0.00    +0.253 C 
ATOM     14  C   UNL A   1     -26.354   0.576  25.777  0.00  0.00    +0.193 C 
ATOM     15  F   UNL A   1     -25.860  -0.681  25.795  0.00  0.00    -0.199 F 
BRANCH  10  16
ATOM     16  C   UNL A   1     -25.642   4.093  27.123  0.00  0.00    +0.266 C 
ATOM     17  N   UNL A   1     -25.614   5.252  26.449  0.00  0.00    -0.200 NA
ATOM     18  C   UNL A   1     -25.026   6.479  26.963  0.00  0.00    +0.139 C 
ATOM     19  O   UNL A   1     -25.143   3.966  28.243  0.00  0.00    -0.268 OA
ENDBRANCH  10  16
BRANCH  13  20
ATOM     20  O   UNL A   1     -28.193  -0.208  24.477  0.00  0.00    -0.456 OA
BRANCH  20  21
ATOM     21  C   UNL A   1     -29.460   0.005  23.866  0.00  0.00    +0.243 C 
BRANCH  21  22
ATOM     22  C   UNL A   1     -30.065  -1.377  23.573  0.00  0.00    +0.229 C 
ATOM     23  O   UNL A   1     -30.729  -1.878  24.721  0.00  0.00    -0.216 OA
ENDBRANCH  21  22
ENDBRANCH  20  21
ENDBRANCH  13  20
ENDBRANCH   7   9
BRANCH   1  24
ATOM     24  N   UNL A   1     -25.366  -0.325  28.989  0.00  0.00    -0.163 N 
BRANCH  24  25
ATOM     25  C   UNL A   1     -26.898  -0.583  28.659  0.00  0.00    +0.217 C 
ATOM     26  C   UNL A   1     -29.514   2.037  29.618  0.00  0.00    +0.202 C 
ATOM     27  O   UNL A   1     -27.251   1.773  29.296  0.00  0.00    -0.461 OA
ATOM     28  C   UNL A   1     -29.349   0.884  28.996  0.00  0.00    +0.266 C 
ATOM     29  C   UNL A   1     -27.854   0.609  28.937  0.00  0.00    +0.221 C 
ATOM     30  C   UNL A   1     -28.191   2.469  30.061  0.00  0.00    +0.272 C 
ATOM     31  O   UNL A   1     -30.483   0.081  28.624  0.00  0.00    -0.280 OA
BRANCH  26  33
ATOM     32  C   UNL A   1     -31.424   2.794  28.464  0.00  0.00    +0.252 C 
ATOM     33  O   UNL A   1     -30.744   2.642  29.822  0.00  0.00    -0.469 OA
ENDBRANCH  26  33
ENDBRANCH  24  25
BRANCH  24  34
ATOM     34  C   UNL A   1     -24.855  -1.012  30.143  0.00  0.00    +0.203 C 
BRANCH  34  35
ATOM     35  C   UNL A   1     -24.973  -2.505  29.788  0.00  0.00    +0.022 C 
ATOM     36  C   UNL A   1     -23.906  -3.173  29.146  0.00  0.00    -0.000 C 
ATOM     37  C   UNL A   1     -23.989  -4.549  28.853  0.00  0.00    -0.000 C 
ATOM     38  C   UNL A   1     -25.137  -5.280  29.205  0.00  0.00    -0.000 C 
ATOM     39  C   UNL A   1     -26.232  -4.611  29.784  0.00  0.00    -0.000 C 
ATOM     40  C   UNL A   1     -26.155  -3.232  30.065  0.00  0.00    -0.000 C 
ENDBRANCH  34  35
BRANCH  34  41
ATOM     41  C   UNL A   1     -25.387  -0.679  31.571  0.00  0.00    +0.120 C 
ATOM     42  C   UNL A   1     -25.189   0.773  32.028  0.00  0.00    +0.023 C 
ATOM     43  C   UNL A   1     -25.336   0.684  33.544  0.00  0.00    +0.020 C 
ATOM     44  C   UNL A   1     -24.829  -0.715  33.905  0.00  0.00    +0.089 C 
ATOM     45  N   UNL A   1     -24.758  -1.481  32.646  0.00  0.00    -0.215 NA
ENDBRANCH  34  41
ENDBRANCH  24  34
ENDBRANCH   1  24
TORSDOF 11
