MODEL 3203
MODEL 1
REMARK VINA RESULT:    -5.915      0.000      0.000
REMARK INTER + INTRA:          -6.928
REMARK INTER:                  -6.606
REMARK INTRA:                  -0.322
REMARK UNBOUND:                -0.322
REMARK  Name = No_3203-gen_results/8p0m/2024-11-27-11-27-31/
REMARK  2 active torsions:
REMARK  status: ('A' for Active; 'I' for Inactive)
REMARK    1  A    between atoms: C_3  and  C_4
REMARK    2  A    between atoms: C_8  and  C_9
REMARK                            x       y       z     vdW  Elec       q    Type
REMARK                         _______ _______ _______ _____ _____    ______ ____
ROOT
ATOM      1  C   UNL A   1     -24.194  -4.477  28.789  0.00  0.00    -0.000 A 
ATOM      2  C   UNL A   1     -25.015  -5.091  29.035  0.00  0.00    +0.000 A 
ATOM      3  C   UNL A   1     -24.280  -3.103  29.103  0.00  0.00    -0.000 A 
ATOM      4  C   UNL A   1     -26.310  -4.776  29.664  0.00  0.00    +0.000 A 
ATOM      5  C   UNL A   1     -26.467  -3.431  30.000  0.00  0.00    +0.000 A 
ATOM      6  C   UNL A   1     -25.444  -2.567  29.774  0.00  0.00    -0.000 A 
ENDROOT
BRANCH   3   7
ATOM      7  C   UNL A   1     -23.175  -2.126  28.924  0.00  0.00    -0.000 C 
ATOM      8  C   UNL A   1     -23.028  -1.022  29.134  0.00  0.00    -0.000 C 
BRANCH   8   9
ATOM      9  C   UNL A   1     -21.899  -0.170  28.942  0.00  0.00    -0.005 C 
ATOM     10  C   UNL A   1     -21.883   0.947  28.126  0.00  0.00    -0.026 C 
ATOM     11  C   UNL A   1     -23.036   1.240  27.391  0.00  0.00    +0.031 C 
ENDBRANCH   8   9
ENDBRANCH   3   7
TORSDOF 2
ENDMDL
ENDMDL
