MODEL 3204
MODEL 1
REMARK VINA RESULT:    -5.021      0.000      0.000
REMARK INTER + INTRA:          -5.332
REMARK INTER:                  -5.315
REMARK INTRA:                  -0.017
REMARK UNBOUND:                -0.017
REMARK  Name = No_3204-gen_results/8p0m/2024-11-27-11-27-31/
REMARK  1 active torsions:
REMARK  status: ('A' for Active; 'I' for Inactive)
REMARK    1  A    between atoms: C_1  and  C_2
REMARK                            x       y       z     vdW  Elec       q    Type
REMARK                         _______ _______ _______ _____ _____    ______ ____
ROOT
ATOM      1  C   UNL A   1      -9.777 -10.421  18.155  0.00  0.00    +0.011 A 
ATOM      2  C   UNL A   1      -8.358 -10.421  18.374  0.00  0.00    -0.002 A 
ATOM      3  C   UNL A   1      -7.798 -10.209  19.724  0.00  0.00    -0.000 A 
ATOM      4  C   UNL A   1      -8.517  -9.428  20.648  0.00  0.00    -0.000 A 
ATOM      5  C   UNL A   1      -9.832  -9.031  20.328  0.00  0.00    -0.000 A 
ATOM      6  C   UNL A   1     -10.387  -9.371  19.150  0.00  0.00    -0.002 A 
ENDROOT
BRANCH   1   7
ATOM      7  C   UNL A   1     -10.092 -10.424  17.150  0.00  0.00    +0.209 C 
ATOM      8  O   UNL A   1     -11.441 -10.510  16.798  0.00  0.00    -0.215 OA
ENDBRANCH   1   7
TORSDOF 1
ENDMDL
ENDMDL
