MODEL 3205
MODEL 1
REMARK VINA RESULT:    -6.923      0.000      0.000
REMARK INTER + INTRA:          -9.294
REMARK INTER:                  -8.137
REMARK INTRA:                  -1.157
REMARK UNBOUND:                -1.157
REMARK  Name = No_3205-gen_results/8p0m/2024-11-27-11-27-31/
REMARK  3 active torsions:
REMARK  status: ('A' for Active; 'I' for Inactive)
REMARK    1  A    between atoms: C_5  and  C_8
REMARK    2  A    between atoms: C_7  and  C_11
REMARK    3  A    between atoms: C_17  and  C_18
REMARK                            x       y       z     vdW  Elec       q    Type
REMARK                         _______ _______ _______ _____ _____    ______ ____
ROOT
ATOM      1  C   UNL A   1     -24.650  -1.481  28.893  0.00  0.00    +0.001 A 
ATOM      2  C   UNL A   1     -24.801  -1.140  27.695  0.00  0.00    -0.004 A 
ATOM      3  C   UNL A   1     -25.143  -0.013  27.429  0.00  0.00    -0.022 A 
ATOM      4  C   UNL A   1     -25.439   0.497  26.021  0.00  0.00    +0.031 C 
ATOM      5  C   UNL A   1     -25.339   1.082  28.388  0.00  0.00    -0.004 A 
ATOM      6  C   UNL A   1     -25.657   0.790  29.609  0.00  0.00    -0.000 A 
ATOM      7  C   UNL A   1     -24.873  -0.490  30.044  0.00  0.00    +0.000 A 
ENDROOT
BRANCH   1  14
ATOM      8 CL   UNL A   1     -23.915  -4.335  28.506  0.00  0.00    -0.082 Cl
ATOM      9  C   UNL A   1     -25.092  -3.941  29.241  0.00  0.00    +0.058 A 
ATOM     10  C   UNL A   1     -26.058  -4.869  29.598  0.00  0.00    +0.012 A 
ATOM     11  C   UNL A   1     -27.342  -4.521  30.077  0.00  0.00    +0.007 A 
ATOM     12  C   UNL A   1     -27.694  -3.201  30.251  0.00  0.00    +0.080 A 
ATOM     13  C   UNL A   1     -26.777  -2.253  29.876  0.00  0.00    +0.007 A 
ATOM     14  C   UNL A   1     -25.594  -2.592  29.356  0.00  0.00    +0.011 A 
BRANCH  12  15
ATOM     15  C   UNL A   1     -29.016  -2.918  30.792  0.00  0.00    +0.388 C 
ATOM     16  O   UNL A   1     -29.485  -2.321  31.532  0.00  0.00    -0.241 OA
ATOM     17  O   UNL A   1     -29.918  -3.783  30.044  0.00  0.00    -0.241 OA
ENDBRANCH  12  15
ENDBRANCH   1  14
BRANCH   7  18
ATOM     18  C   UNL A   1     -24.605  -0.679  31.420  0.00  0.00    +0.000 A 
ATOM     19  C   UNL A   1     -25.354  -0.157  32.423  0.00  0.00    +0.000 A 
ATOM     20  C   UNL A   1     -23.333  -1.183  31.666  0.00  0.00    +0.000 A 
ATOM     21  C   UNL A   1     -25.122  -0.470  33.764  0.00  0.00    +0.000 A 
ATOM     22  C   UNL A   1     -23.036  -1.495  33.063  0.00  0.00    +0.000 A 
ATOM     23  C   UNL A   1     -23.879  -1.074  34.069  0.00  0.00    +0.000 A 
ENDBRANCH   7  18
TORSDOF 3
ENDMDL
ENDMDL
