MODEL 3206
MODEL 1
REMARK VINA RESULT:    -7.951      0.000      0.000
REMARK INTER + INTRA:         -14.748
REMARK INTER:                 -11.670
REMARK INTRA:                  -3.078
REMARK UNBOUND:                -3.078
REMARK  Name = No_3206-gen_results/8p0m/2024-11-27-11-27-31/
REMARK  8 active torsions:
REMARK  status: ('A' for Active; 'I' for Inactive)
REMARK    1  A    between atoms: C_2  and  C_24
REMARK    2  A    between atoms: C_3  and  C_7
REMARK    3  A    between atoms: C_8  and  C_15
REMARK    4  A    between atoms: C_10  and  O_13
REMARK    5  A    between atoms: O_13  and  C_14
REMARK    6  A    between atoms: C_17  and  C_21
REMARK    7  A    between atoms: N_25  and  C_26
REMARK    8  A    between atoms: C_26  and  C_28
REMARK                            x       y       z     vdW  Elec       q    Type
REMARK                         _______ _______ _______ _____ _____    ______ ____
ROOT
ATOM      1  C   UNL A   1     -24.994   1.722  27.491  0.00  0.00    +0.034 A 
ATOM      2  C   UNL A   1     -25.175   1.768  26.292  0.00  0.00    +0.003 A 
ATOM      3  C   UNL A   1     -24.019   1.771  25.367  0.00  0.00    +0.000 A 
ATOM      4  C   UNL A   1     -23.694   1.777  28.043  0.00  0.00    +0.138 A 
ATOM      5  C   UNL A   1     -22.594   2.003  27.273  0.00  0.00    +0.037 A 
ATOM      6  C   UNL A   1     -22.779   1.951  25.861  0.00  0.00    +0.003 A 
ENDROOT
BRANCH   1   9
ATOM      7  C   UNL A   1     -26.632   0.332  28.888  0.00  0.00    +0.005 A 
ATOM      8  C   UNL A   1     -27.407   0.330  29.602  0.00  0.00    +0.055 A 
ATOM      9  C   UNL A   1     -26.121   1.581  28.474  0.00  0.00    +0.003 A 
ATOM     10  C   UNL A   1     -26.614   2.773  28.968  0.00  0.00    +0.000 A 
ATOM     11  C   UNL A   1     -28.101   1.442  30.282  0.00  0.00    +0.005 A 
ATOM     12  C   UNL A   1     -27.642   2.657  29.913  0.00  0.00    +0.000 A 
BRANCH   8  13
ATOM     13  C   UNL A   1     -28.070  -1.024  30.146  0.00  0.00    +0.265 C 
ATOM     14  N   UNL A   1     -27.397  -1.868  30.687  0.00  0.00    -0.197 NA
ATOM     15  O   UNL A   1     -29.197  -1.351  29.606  0.00  0.00    -0.268 OA
BRANCH  14  16
ATOM     16  C   UNL A   1     -27.486  -3.231  30.519  0.00  0.00    +0.163 C 
BRANCH  16  17
ATOM     17  C   UNL A   1     -26.189  -3.690  29.938  0.00  0.00    +0.210 C 
ATOM     18  O   UNL A   1     -25.374  -2.773  29.829  0.00  0.00    -0.470 OA
ATOM     19  C   UNL A   1     -24.267  -2.975  28.912  0.00  0.00    +0.173 C 
ATOM     20  C   UNL A   1     -23.967  -4.202  28.767  0.00  0.00    +0.040 C 
ATOM     21  C   UNL A   1     -24.857  -5.275  28.901  0.00  0.00    +0.002 C 
ATOM     22  C   UNL A   1     -26.029  -4.990  29.516  0.00  0.00    +0.018 C 
ENDBRANCH  16  17
ENDBRANCH  14  16
ENDBRANCH   8  13
ENDBRANCH   1   9
BRANCH   2  23
ATOM     23  C   UNL A   1     -26.382   1.752  25.425  0.00  0.00    +0.000 A 
ATOM     24  C   UNL A   1     -26.913   0.723  25.025  0.00  0.00    +0.007 A 
ATOM     25  C   UNL A   1     -28.145   0.627  24.331  0.00  0.00    +0.080 A 
ATOM     26  C   UNL A   1     -28.733   1.825  24.040  0.00  0.00    +0.007 A 
ATOM     27  C   UNL A   1     -27.213   2.925  25.090  0.00  0.00    +0.000 A 
ATOM     28  C   UNL A   1     -28.290   2.995  24.477  0.00  0.00    +0.000 A 
BRANCH  25  29
ATOM     29  C   UNL A   1     -28.728  -0.674  23.840  0.00  0.00    +0.388 C 
ATOM     30  O   UNL A   1     -28.350  -1.596  23.552  0.00  0.00    -0.241 OA
ATOM     31  O   UNL A   1     -30.113  -0.371  23.427  0.00  0.00    -0.241 OA
ENDBRANCH  25  29
ENDBRANCH   2  23
BRANCH   4  32
ATOM     32  O   UNL A   1     -23.484   1.831  29.395  0.00  0.00    -0.479 OA
BRANCH  32  33
ATOM     33  C   UNL A   1     -23.211   0.740  30.144  0.00  0.00    +0.166 C 
ATOM     34  C   UNL A   1     -22.208  -0.098  29.600  0.00  0.00    +0.047 C 
ATOM     35  C   UNL A   1     -23.886   0.407  31.304  0.00  0.00    +0.047 C 
ENDBRANCH  32  33
ENDBRANCH   4  32
TORSDOF 8
ENDMDL
ENDMDL
