MODEL 3207
MODEL 1
REMARK VINA RESULT:    -6.994      0.000      0.000
REMARK INTER + INTRA:         -10.760
REMARK INTER:                  -9.038
REMARK INTRA:                  -1.722
REMARK UNBOUND:                -1.722
REMARK  Name = No_3207-gen_results/8p0m/2024-11-27-11-27-31/
REMARK  5 active torsions:
REMARK  status: ('A' for Active; 'I' for Inactive)
REMARK    1  A    between atoms: C_3  and  C_7
REMARK    2  A    between atoms: C_7  and  C_8
REMARK    3  A    between atoms: C_7  and  C_16
REMARK    4  A    between atoms: C_8  and  C_9
REMARK    5  A    between atoms: C_9  and  C_10
REMARK                            x       y       z     vdW  Elec       q    Type
REMARK                         _______ _______ _______ _____ _____    ______ ____
ROOT
ATOM      1  C   UNL A   1     -23.584  -1.053  30.408  0.00  0.00    +0.089 C 
ENDROOT
BRANCH   1   4
ATOM      2  C   UNL A   1     -23.819  -3.222  29.112  0.00  0.00    -0.004 A 
ATOM      3  C   UNL A   1     -24.385  -4.085  28.900  0.00  0.00    -0.000 A 
ATOM      4  C   UNL A   1     -24.426  -2.268  29.996  0.00  0.00    -0.017 A 
ATOM      5  C   UNL A   1     -25.694  -2.360  30.408  0.00  0.00    -0.004 A 
ATOM      6  C   UNL A   1     -25.774  -4.385  29.219  0.00  0.00    -0.000 A 
ATOM      7  C   UNL A   1     -26.357  -3.501  30.017  0.00  0.00    -0.000 A 
ENDBRANCH   1   4
BRANCH   1   8
ATOM      8  C   UNL A   1     -23.529  -0.742  31.738  0.00  0.00    +0.322 C 
ATOM      9  F   UNL A   1     -23.737   0.305  32.012  0.00  0.00    -0.198 F 
ATOM     10  F   UNL A   1     -22.313  -1.192  32.179  0.00  0.00    -0.198 F 
ENDBRANCH   1   8
BRANCH   1  11
ATOM     11  C   UNL A   1     -22.976  -0.257  29.357  0.00  0.00    +0.014 C 
ATOM     12  C   UNL A   1     -21.596  -0.572  29.144  0.00  0.00    +0.001 C 
BRANCH  11  13
ATOM     13  C   UNL A   1     -23.681   0.678  28.656  0.00  0.00    +0.027 C 
BRANCH  13  14
ATOM     14  C   UNL A   1     -24.024   0.470  27.318  0.00  0.00    -0.022 A 
ATOM     15  C   UNL A   1     -23.759   1.465  26.302  0.00  0.00    -0.004 A 
ATOM     16  C   UNL A   1     -24.303   1.239  25.018  0.00  0.00    -0.000 A 
ATOM     17  C   UNL A   1     -25.217   0.223  24.766  0.00  0.00    -0.000 A 
ATOM     18  C   UNL A   1     -25.708  -0.538  25.849  0.00  0.00    -0.000 A 
ATOM     19  C   UNL A   1     -25.191  -0.362  27.070  0.00  0.00    -0.004 A 
ENDBRANCH  13  14
ENDBRANCH  11  13
ENDBRANCH   1  11
TORSDOF 5
ENDMDL
ENDMDL
