REMARK  Name = outputs/IAG933/test6/raw/output_3208_IAG933_linker_design_.xyz
REMARK  14 active torsions:
REMARK  status: ('A' for Active; 'I' for Inactive)
REMARK    1  A    between atoms: C_1  and  C_2
REMARK    2  A    between atoms: C_1  and  C_8
REMARK    3  A    between atoms: C_1  and  N_38
REMARK    4  A    between atoms: C_13  and  C_37
REMARK    5  A    between atoms: C_14  and  C_15
REMARK    6  A    between atoms: C_21  and  O_22
REMARK    7  A    between atoms: O_22  and  C_23
REMARK    8  A    between atoms: C_23  and  C_24
REMARK    9  A    between atoms: C_29  and  N_38
REMARK   10  A    between atoms: C_30  and  C_40
REMARK   11  A    between atoms: C_35  and  C_36
REMARK   12  A    between atoms: C_35  and  C_44
REMARK   13  A    between atoms: C_36  and  C_40
REMARK   14  A    between atoms: N_38  and  C_44
REMARK                            x       y       z     vdW  Elec       q    Type
REMARK                         _______ _______ _______ _____ _____    ______ ____
ROOT
ATOM      1  C   UNL A   1     -23.555   1.246  27.235  0.00  0.00    +0.047 C 
ATOM      2  C   UNL A   1     -23.781   0.679  28.041  0.00  0.00    +0.123 C 
ATOM      3  F   UNL A   1     -22.285  -0.506  29.934  0.00  0.00    -0.227 F 
ATOM      4  C   UNL A   1     -20.175  -0.253  28.250  0.00  0.00    +0.038 C 
ATOM      5  C   UNL A   1     -21.245   0.458  28.051  0.00  0.00    +0.154 C 
ATOM      6  C   UNL A   1     -24.500   1.176  27.203  0.00  0.00    -0.000 C 
ATOM      7  F   UNL A   1     -22.507   2.662  25.441  0.00  0.00    -0.184 F 
ATOM      8  C   UNL A   1     -22.509   0.247  28.810  0.00  0.00    +0.237 C 
ATOM      9  O   UNL A   1     -21.228   1.477  27.046  0.00  0.00    -0.448 OA
ATOM     10  C   UNL A   1     -22.380   1.889  26.530  0.00  0.00    +0.348 C 
ENDROOT
BRANCH   6  11
ATOM     11  C   UNL A   1     -25.688   1.614  26.461  0.00  0.00    +0.035 C 
ATOM     12  C   UNL A   1     -26.250   2.920  26.395  0.00  0.00    +0.076 C 
ATOM     13  C   UNL A   1     -27.438   3.091  25.645  0.00  0.00    +0.107 C 
ATOM     14  N   UNL A   1     -28.075   2.089  25.003  0.00  0.00    -0.208 NA
ATOM     15  C   UNL A   1     -27.543   0.849  25.079  0.00  0.00    +0.253 C 
ATOM     16  C   UNL A   1     -26.354   0.576  25.777  0.00  0.00    +0.193 C 
ATOM     17  F   UNL A   1     -25.860  -0.681  25.795  0.00  0.00    -0.199 F 
BRANCH  12  18
ATOM     18  C   UNL A   1     -25.642   4.093  27.123  0.00  0.00    +0.266 C 
ATOM     19  N   UNL A   1     -25.614   5.252  26.449  0.00  0.00    -0.200 NA
ATOM     20  C   UNL A   1     -25.026   6.479  26.963  0.00  0.00    +0.139 C 
ATOM     21  O   UNL A   1     -25.143   3.966  28.243  0.00  0.00    -0.268 OA
ENDBRANCH  12  18
BRANCH  15  22
ATOM     22  O   UNL A   1     -28.193  -0.208  24.477  0.00  0.00    -0.456 OA
BRANCH  22  23
ATOM     23  C   UNL A   1     -29.460   0.005  23.866  0.00  0.00    +0.243 C 
BRANCH  23  24
ATOM     24  C   UNL A   1     -30.065  -1.377  23.573  0.00  0.00    +0.229 C 
ATOM     25  O   UNL A   1     -30.729  -1.878  24.721  0.00  0.00    -0.216 OA
ENDBRANCH  23  24
ENDBRANCH  22  23
ENDBRANCH  15  22
ENDBRANCH   6  11
BRANCH   2  26
ATOM     26  N   UNL A   1     -25.032  -0.052  29.274  0.00  0.00    -0.263 NA
BRANCH  26  27
ATOM     27  C   UNL A   1     -24.855  -1.012  30.143  0.00  0.00    +0.097 C 
BRANCH  27  28
ATOM     28  C   UNL A   1     -24.973  -2.505  29.788  0.00  0.00    -0.006 C 
ATOM     29  C   UNL A   1     -23.906  -3.173  29.146  0.00  0.00    -0.003 C 
ATOM     30  C   UNL A   1     -23.989  -4.549  28.853  0.00  0.00    -0.000 C 
ATOM     31  C   UNL A   1     -25.137  -5.280  29.205  0.00  0.00    -0.000 C 
ATOM     32  C   UNL A   1     -26.232  -4.611  29.784  0.00  0.00    -0.000 C 
ATOM     33  C   UNL A   1     -26.155  -3.232  30.065  0.00  0.00    -0.003 C 
ENDBRANCH  27  28
BRANCH  27  34
ATOM     34  C   UNL A   1     -25.387  -0.679  31.571  0.00  0.00    +0.092 C 
ATOM     35  C   UNL A   1     -25.189   0.773  32.028  0.00  0.00    +0.021 C 
ATOM     36  C   UNL A   1     -25.336   0.684  33.544  0.00  0.00    +0.020 C 
ATOM     37  C   UNL A   1     -24.829  -0.715  33.905  0.00  0.00    +0.089 C 
ATOM     38  N   UNL A   1     -24.758  -1.481  32.646  0.00  0.00    -0.218 NA
ENDBRANCH  27  34
ENDBRANCH  26  27
BRANCH  26  39
ATOM     39  C   UNL A   1     -26.293   0.020  28.570  0.00  0.00    +0.073 C 
BRANCH  39  40
ATOM     40  C   UNL A   1     -27.143   1.042  29.198  0.00  0.00    +0.017 C 
BRANCH  40  41
ATOM     41  C   UNL A   1     -28.177   0.029  29.655  0.00  0.00    +0.001 C 
BRANCH  41  42
ATOM     42  C   UNL A   1     -28.860   0.856  30.825  0.00  0.00    +0.000 C 
BRANCH  42  43
ATOM     43  C   UNL A   1     -30.302   0.969  30.247  0.00  0.00    +0.000 C 
ATOM     44  C   UNL A   1     -30.107   1.925  29.042  0.00  0.00    +0.000 C 
ENDBRANCH  42  43
ENDBRANCH  41  42
ENDBRANCH  40  41
ENDBRANCH  39  40
ENDBRANCH  26  39
ENDBRANCH   2  26
TORSDOF 14
