MODEL 3208
MODEL 1
REMARK VINA RESULT:    -7.370      0.000      0.000
REMARK INTER + INTRA:          -7.696
REMARK INTER:                  -7.801
REMARK INTRA:                   0.105
REMARK UNBOUND:                 0.105
REMARK  Name = No_3208-gen_results/8p0m/2024-11-27-11-27-31/
REMARK  1 active torsions:
REMARK  status: ('A' for Active; 'I' for Inactive)
REMARK    1  A    between atoms: C_6  and  C_8
REMARK                            x       y       z     vdW  Elec       q    Type
REMARK                         _______ _______ _______ _____ _____    ______ ____
ROOT
ATOM      1  C   UNL A   1     -24.869  -0.383  29.702  0.00  0.00    +0.255 C 
ATOM      2  N   UNL A   1     -24.346   0.368  28.854  0.00  0.00    -0.222 N 
ATOM      3  O   UNL A   1     -25.703   0.074  30.558  0.00  0.00    -0.270 OA
ATOM      4  C   UNL A   1     -24.453   1.840  28.910  0.00  0.00    +0.236 C 
ATOM      5  C   UNL A   1     -24.588   2.414  27.768  0.00  0.00    +0.112 C 
ATOM      6  C   UNL A   1     -25.108   1.805  26.927  0.00  0.00    -0.015 A 
ATOM      7  C   UNL A   1     -25.887   2.207  25.943  0.00  0.00    -0.004 A 
ATOM      8  C   UNL A   1     -26.616   1.662  25.296  0.00  0.00    -0.000 A 
ATOM      9  C   UNL A   1     -26.360   0.244  24.925  0.00  0.00    -0.000 A 
ATOM     10  C   UNL A   1     -25.341  -0.318  25.645  0.00  0.00    -0.003 A 
ATOM     11  C   UNL A   1     -24.774   0.364  26.638  0.00  0.00    -0.005 A 
ATOM     12  C   UNL A   1     -23.472  -0.002  27.831  0.00  0.00    +0.127 C 
ATOM     13  O   UNL A   1     -24.348   2.284  30.108  0.00  0.00    -0.274 OA
ENDROOT
BRANCH   1  19
ATOM     14  C   UNL A   1     -23.740  -2.699  28.937  0.00  0.00    +0.007 A 
ATOM     15  C   UNL A   1     -23.866  -3.898  28.856  0.00  0.00    +0.030 A 
ATOM     16  C   UNL A   1     -25.047  -4.573  29.163  0.00  0.00    +0.140 A 
ATOM     17  C   UNL A   1     -26.180  -3.819  29.665  0.00  0.00    +0.030 A 
ATOM     18  C   UNL A   1     -25.957  -2.426  29.742  0.00  0.00    +0.007 A 
ATOM     19  C   UNL A   1     -24.806  -1.882  29.436  0.00  0.00    +0.054 A 
ATOM     20  F   UNL A   1     -25.216  -5.890  29.104  0.00  0.00    -0.204 F 
ENDBRANCH   1  19
TORSDOF 1
ENDMDL
ENDMDL
