MODEL 3209
MODEL 1
REMARK VINA RESULT:    -7.311      0.000      0.000
REMARK INTER + INTRA:         -13.007
REMARK INTER:                  -9.875
REMARK INTRA:                  -3.132
REMARK UNBOUND:                -3.132
REMARK  Name = No_3209-gen_results/8p0m/2024-11-27-11-27-31/
REMARK  6 active torsions:
REMARK  status: ('A' for Active; 'I' for Inactive)
REMARK    1  A    between atoms: C_3  and  C_4
REMARK    2  A    between atoms: C_4  and  C_8
REMARK    3  A    between atoms: C_8  and  C_9
REMARK    4  A    between atoms: C_8  and  C_15
REMARK    5  A    between atoms: C_15  and  C_16
REMARK    6  A    between atoms: C_16  and  C_17
REMARK                            x       y       z     vdW  Elec       q    Type
REMARK                         _______ _______ _______ _____ _____    ______ ____
ROOT
ATOM      1  C   UNL A   1     -24.703  -1.036  28.523  0.00  0.00    +0.027 C 
ENDROOT
BRANCH   1   2
ATOM      2  C   UNL A   1     -24.817  -2.386  28.718  0.00  0.00    -0.022 A 
ATOM      3  C   UNL A   1     -25.980  -2.873  29.452  0.00  0.00    -0.004 A 
ATOM      4  C   UNL A   1     -26.151  -4.272  29.675  0.00  0.00    -0.000 A 
ATOM      5  C   UNL A   1     -24.004  -3.482  28.315  0.00  0.00    -0.004 A 
ATOM      6  C   UNL A   1     -24.086  -4.806  28.575  0.00  0.00    -0.000 A 
ATOM      7  C   UNL A   1     -25.189  -5.187  29.308  0.00  0.00    -0.000 A 
ENDBRANCH   1   2
BRANCH   1   8
ATOM      8  C   UNL A   1     -25.998  -0.406  28.276  0.00  0.00    +0.031 C 
BRANCH   8  11
ATOM      9  C   UNL A   1     -25.456  -0.455  25.697  0.00  0.00    -0.004 A 
ATOM     10  C   UNL A   1     -25.773  -0.039  24.782  0.00  0.00    -0.000 A 
ATOM     11  C   UNL A   1     -26.297  -0.093  26.901  0.00  0.00    -0.022 A 
ATOM     12  C   UNL A   1     -27.009   0.655  24.397  0.00  0.00    -0.000 A 
ATOM     13  C   UNL A   1     -27.843   0.996  25.440  0.00  0.00    -0.000 A 
ATOM     14  C   UNL A   1     -27.541   0.612  26.721  0.00  0.00    -0.004 A 
ENDBRANCH   8  11
ENDBRANCH   1   8
BRANCH   1  15
ATOM     15  C   UNL A   1     -23.534  -0.372  28.326  0.00  0.00    +0.009 C 
BRANCH  15  16
ATOM     16  C   UNL A   1     -23.356   0.852  28.891  0.00  0.00    +0.027 C 
BRANCH  16  17
ATOM     17  C   UNL A   1     -23.368   1.940  28.126  0.00  0.00    -0.022 A 
ATOM     18  C   UNL A   1     -24.406   2.879  28.032  0.00  0.00    -0.004 A 
ATOM     19  C   UNL A   1     -24.800   3.087  26.739  0.00  0.00    -0.000 A 
ATOM     20  C   UNL A   1     -23.961   3.192  25.638  0.00  0.00    -0.000 A 
ATOM     21  C   UNL A   1     -22.845   2.271  25.735  0.00  0.00    -0.000 A 
ATOM     22  C   UNL A   1     -22.644   1.645  26.834  0.00  0.00    -0.004 A 
ENDBRANCH  16  17
ENDBRANCH  15  16
ENDBRANCH   1  15
TORSDOF 6
ENDMDL
ENDMDL
