REMARK  Name = No_3209-gen_results/8p0m/2024-11-27-11-27-31/
REMARK  6 active torsions:
REMARK  status: ('A' for Active; 'I' for Inactive)
REMARK    1  A    between atoms: C_3  and  C_4
REMARK    2  A    between atoms: C_4  and  C_8
REMARK    3  A    between atoms: C_8  and  C_9
REMARK    4  A    between atoms: C_8  and  C_15
REMARK    5  A    between atoms: C_15  and  C_16
REMARK    6  A    between atoms: C_16  and  C_17
REMARK                            x       y       z     vdW  Elec       q    Type
REMARK                         _______ _______ _______ _____ _____    ______ ____
ROOT
ATOM      1  C   UNL A   1     -25.213   0.692  27.383  0.00  0.00    +0.027 C 
ENDROOT
BRANCH   1   2
ATOM      2  C   UNL A   1     -23.920   0.921  27.770  0.00  0.00    -0.022 A 
ATOM      3  C   UNL A   1     -23.258   2.119  27.263  0.00  0.00    -0.004 A 
ATOM      4  C   UNL A   1     -21.913   2.408  27.642  0.00  0.00    -0.000 A 
ATOM      5  C   UNL A   1     -23.038   0.208  28.629  0.00  0.00    -0.004 A 
ATOM      6  C   UNL A   1     -21.739   0.402  28.947  0.00  0.00    -0.000 A 
ATOM      7  C   UNL A   1     -21.169   1.530  28.399  0.00  0.00    -0.000 A 
ENDBRANCH   1   2
BRANCH   1   8
ATOM      8  C   UNL A   1     -25.654  -0.660  27.719  0.00  0.00    +0.031 C 
BRANCH   8  11
ATOM      9  C   UNL A   1     -28.016  -0.814  28.878  0.00  0.00    -0.004 A 
ATOM     10  C   UNL A   1     -28.469  -0.785  29.829  0.00  0.00    -0.000 A 
ATOM     11  C   UNL A   1     -26.504  -0.778  28.877  0.00  0.00    -0.022 A 
ATOM     12  C   UNL A   1     -27.918  -0.937  31.182  0.00  0.00    -0.000 A 
ATOM     13  C   UNL A   1     -26.542  -0.940  31.261  0.00  0.00    -0.000 A 
ATOM     14  C   UNL A   1     -25.783  -0.893  30.120  0.00  0.00    -0.004 A 
ENDBRANCH   8  11
ENDBRANCH   1   8
BRANCH   1  15
ATOM     15  C   UNL A   1     -25.938   1.501  26.568  0.00  0.00    +0.009 C 
BRANCH  15  16
ATOM     16  C   UNL A   1     -26.259   1.077  25.317  0.00  0.00    +0.027 C 
BRANCH  16  17
ATOM     17  C   UNL A   1     -27.359   0.353  25.128  0.00  0.00    -0.022 A 
ATOM     18  C   UNL A   1     -28.024   0.153  23.909  0.00  0.00    -0.004 A 
ATOM     19  C   UNL A   1     -29.353   0.465  23.987  0.00  0.00    -0.000 A 
ATOM     20  C   UNL A   1     -30.199   0.167  25.047  0.00  0.00    -0.000 A 
ATOM     21  C   UNL A   1     -29.521   0.310  26.321  0.00  0.00    -0.000 A 
ATOM     22  C   UNL A   1     -28.253   0.484  26.338  0.00  0.00    -0.004 A 
ENDBRANCH  16  17
ENDBRANCH  15  16
ENDBRANCH   1  15
TORSDOF 6
