MODEL 320
MODEL 1
REMARK VINA RESULT:    -6.585      0.000      0.000
REMARK INTER + INTRA:          -7.293
REMARK INTER:                  -6.970
REMARK INTRA:                  -0.323
REMARK UNBOUND:                -0.323
REMARK  Name = No_320-gen_results/8p0m/2024-11-27-11-27-31/
REMARK  1 active torsions:
REMARK  status: ('A' for Active; 'I' for Inactive)
REMARK    1  A    between atoms: C_3  and  C_7
REMARK                            x       y       z     vdW  Elec       q    Type
REMARK                         _______ _______ _______ _____ _____    ______ ____
ROOT
ATOM      1  C   UNL A   1     -24.594  -4.954  28.910  0.00  0.00    +0.000 A 
ATOM      2  C   UNL A   1     -23.975  -3.941  28.684  0.00  0.00    +0.000 A 
ATOM      3  C   UNL A   1     -24.428  -2.667  29.024  0.00  0.00    +0.000 A 
ATOM      4  C   UNL A   1     -25.738  -2.523  29.631  0.00  0.00    +0.000 A 
ATOM      5  C   UNL A   1     -26.426  -3.715  29.855  0.00  0.00    +0.000 A 
ATOM      6  C   UNL A   1     -25.925  -4.879  29.491  0.00  0.00    +0.000 A 
ENDROOT
BRANCH   3   7
ATOM      7  C   UNL A   1     -23.720  -1.377  28.786  0.00  0.00    +0.000 A 
ATOM      8  C   UNL A   1     -22.473  -1.143  29.121  0.00  0.00    +0.000 A 
ATOM      9  C   UNL A   1     -21.846   0.094  28.847  0.00  0.00    +0.000 A 
ATOM     10  C   UNL A   1     -22.445   0.941  27.872  0.00  0.00    +0.000 A 
ATOM     11  C   UNL A   1     -24.277  -0.392  27.893  0.00  0.00    +0.000 A 
ATOM     12  C   UNL A   1     -23.661   0.709  27.491  0.00  0.00    +0.000 A 
ENDBRANCH   3   7
TORSDOF 1
ENDMDL
ENDMDL
