REMARK  Name = outputs/IAG933/test6/raw/output_321_IAG933_linker_design_.xyz
REMARK  12 active torsions:
REMARK  status: ('A' for Active; 'I' for Inactive)
REMARK    1  A    between atoms: C_1  and  C_2
REMARK    2  A    between atoms: C_1  and  C_8
REMARK    3  A    between atoms: C_1  and  N_31
REMARK    4  A    between atoms: C_13  and  C_37
REMARK    5  A    between atoms: C_14  and  C_15
REMARK    6  A    between atoms: C_21  and  O_22
REMARK    7  A    between atoms: O_22  and  C_23
REMARK    8  A    between atoms: C_23  and  C_24
REMARK    9  A    between atoms: N_31  and  C_33
REMARK   10  A    between atoms: N_31  and  C_43
REMARK   11  A    between atoms: C_32  and  C_43
REMARK   12  A    between atoms: C_33  and  C_42
REMARK                            x       y       z     vdW  Elec       q    Type
REMARK                         _______ _______ _______ _____ _____    ______ ____
ROOT
ATOM      1  C   UNL A   1     -22.460   0.997  28.130  0.00  0.00    +0.107 C 
ATOM      2  C   UNL A   1     -23.762   1.010  27.672  0.00  0.00    +0.010 C 
ATOM      3  N   UNL A   1     -22.413   0.298  29.272  0.00  0.00    -0.129 NA
ATOM      4  O   UNL A   1     -21.617   1.990  26.181  0.00  0.00    -0.466 OA
ATOM      5  C   UNL A   1     -23.799   1.623  26.479  0.00  0.00    +0.020 C 
ATOM      6  C   UNL A   1     -21.396   1.441  27.401  0.00  0.00    +0.250 C 
ATOM      7  C   UNL A   1     -22.821   2.075  25.646  0.00  0.00    +0.169 C 
ENDROOT
BRANCH   5   8
ATOM      8  C   UNL A   1     -25.688   1.614  26.461  0.00  0.00    +0.095 C 
ATOM      9  C   UNL A   1     -26.250   2.920  26.395  0.00  0.00    +0.059 C 
ATOM     10  C   UNL A   1     -27.438   3.091  25.645  0.00  0.00    +0.102 C 
ATOM     11  N   UNL A   1     -28.075   2.089  25.003  0.00  0.00    -0.212 NA
ATOM     12  C   UNL A   1     -27.543   0.849  25.079  0.00  0.00    +0.234 C 
ATOM     13  C   UNL A   1     -26.354   0.576  25.777  0.00  0.00    +0.244 C 
ATOM     14  F   UNL A   1     -25.860  -0.681  25.795  0.00  0.00    -0.227 F 
BRANCH   9  15
ATOM     15  C   UNL A   1     -25.642   4.093  27.123  0.00  0.00    +0.263 C 
ATOM     16  N   UNL A   1     -25.614   5.252  26.449  0.00  0.00    -0.200 NA
ATOM     17  C   UNL A   1     -25.026   6.479  26.963  0.00  0.00    +0.139 C 
ATOM     18  O   UNL A   1     -25.143   3.966  28.243  0.00  0.00    -0.269 OA
ENDBRANCH   9  15
BRANCH  12  19
ATOM     19  O   UNL A   1     -28.193  -0.208  24.477  0.00  0.00    -0.459 OA
BRANCH  19  20
ATOM     20  C   UNL A   1     -29.460   0.005  23.866  0.00  0.00    +0.242 C 
BRANCH  20  21
ATOM     21  C   UNL A   1     -30.065  -1.377  23.573  0.00  0.00    +0.229 C 
ATOM     22  O   UNL A   1     -30.729  -1.878  24.721  0.00  0.00    -0.216 OA
ENDBRANCH  20  21
ENDBRANCH  19  20
ENDBRANCH  12  19
ENDBRANCH   5   8
BRANCH   2  23
ATOM     23  C   UNL A   1     -24.834   0.424  28.363  0.00  0.00    +0.101 C 
BRANCH  23  24
ATOM     24  N   UNL A   1     -25.584  -0.257  29.132  0.00  0.00    -0.262 NA
BRANCH  24  25
ATOM     25  C   UNL A   1     -24.855  -1.012  30.143  0.00  0.00    +0.097 C 
BRANCH  25  26
ATOM     26  C   UNL A   1     -24.973  -2.505  29.788  0.00  0.00    -0.006 C 
ATOM     27  C   UNL A   1     -23.906  -3.173  29.146  0.00  0.00    -0.003 C 
ATOM     28  C   UNL A   1     -23.989  -4.549  28.853  0.00  0.00    -0.000 C 
ATOM     29  C   UNL A   1     -25.137  -5.280  29.205  0.00  0.00    -0.000 C 
ATOM     30  C   UNL A   1     -26.232  -4.611  29.784  0.00  0.00    -0.000 C 
ATOM     31  C   UNL A   1     -26.155  -3.232  30.065  0.00  0.00    -0.003 C 
ENDBRANCH  25  26
BRANCH  25  32
ATOM     32  C   UNL A   1     -25.387  -0.679  31.571  0.00  0.00    +0.092 C 
ATOM     33  C   UNL A   1     -25.189   0.773  32.028  0.00  0.00    +0.021 C 
ATOM     34  C   UNL A   1     -25.336   0.684  33.544  0.00  0.00    +0.020 C 
ATOM     35  C   UNL A   1     -24.829  -0.715  33.905  0.00  0.00    +0.089 C 
ATOM     36  N   UNL A   1     -24.758  -1.481  32.646  0.00  0.00    -0.218 NA
ENDBRANCH  25  32
ENDBRANCH  24  25
BRANCH  24  37
ATOM     37  C   UNL A   1     -27.050  -0.484  29.180  0.00  0.00    +0.100 C 
BRANCH  37  43
ATOM     38  C   UNL A   1     -29.723   2.751  29.167  0.00  0.00    -0.000 C 
ATOM     39  C   UNL A   1     -27.571   1.852  29.678  0.00  0.00    -0.003 C 
ATOM     40  C   UNL A   1     -28.515   2.869  29.815  0.00  0.00    -0.000 C 
ATOM     41  C   UNL A   1     -29.098   0.592  28.258  0.00  0.00    -0.003 C 
ATOM     42  C   UNL A   1     -30.029   1.630  28.382  0.00  0.00    -0.000 C 
ATOM     43  C   UNL A   1     -27.900   0.702  28.981  0.00  0.00    -0.006 C 
ENDBRANCH  37  43
ENDBRANCH  24  37
ENDBRANCH  23  24
ENDBRANCH   2  23
TORSDOF 12
