REMARK  Name = outputs/IAG933/test6/raw/output_3210_IAG933_linker_design_.xyz
REMARK  15 active torsions:
REMARK  status: ('A' for Active; 'I' for Inactive)
REMARK    1  A    between atoms: C_1  and  C_2
REMARK    2  A    between atoms: C_1  and  C_8
REMARK    3  A    between atoms: C_1  and  C_35
REMARK    4  A    between atoms: C_13  and  C_31
REMARK    5  A    between atoms: C_14  and  C_15
REMARK    6  A    between atoms: C_21  and  O_22
REMARK    7  A    between atoms: O_22  and  C_23
REMARK    8  A    between atoms: C_23  and  C_24
REMARK    9  A    between atoms: C_30  and  C_38
REMARK   10  A    between atoms: C_30  and  O_39
REMARK   11  A    between atoms: C_35  and  C_36
REMARK   12  A    between atoms: C_35  and  C_48
REMARK   13  A    between atoms: N_37  and  C_38
REMARK   14  A    between atoms: C_38  and  N_46
REMARK   15  A    between atoms: N_46  and  C_48
REMARK                            x       y       z     vdW  Elec       q    Type
REMARK                         _______ _______ _______ _____ _____    ______ ____
ROOT
ATOM      1  C   UNL A   1     -25.124  -0.121  28.927  0.00  0.00    +0.045 C 
ENDROOT
BRANCH   1   4
ATOM      2  C   UNL A   1     -24.213   1.304  27.146  0.00  0.00    -0.001 C 
ATOM      3  C   UNL A   1     -21.821   1.859  27.260  0.00  0.00    -0.000 C 
ATOM      4  C   UNL A   1     -23.928   0.430  28.259  0.00  0.00    -0.021 C 
ATOM      5  C   UNL A   1     -21.619   1.085  28.386  0.00  0.00    -0.000 C 
ATOM      6  C   UNL A   1     -23.070   1.950  26.628  0.00  0.00    -0.000 C 
ATOM      7  C   UNL A   1     -22.702   0.334  28.860  0.00  0.00    -0.004 C 
BRANCH   2   8
ATOM      8  C   UNL A   1     -25.688   1.614  26.461  0.00  0.00    +0.038 C 
ATOM      9  C   UNL A   1     -26.250   2.920  26.395  0.00  0.00    +0.076 C 
ATOM     10  C   UNL A   1     -27.438   3.091  25.645  0.00  0.00    +0.107 C 
ATOM     11  N   UNL A   1     -28.075   2.089  25.003  0.00  0.00    -0.208 NA
ATOM     12  C   UNL A   1     -27.543   0.849  25.079  0.00  0.00    +0.253 C 
ATOM     13  C   UNL A   1     -26.354   0.576  25.777  0.00  0.00    +0.193 C 
ATOM     14  F   UNL A   1     -25.860  -0.681  25.795  0.00  0.00    -0.199 F 
BRANCH   9  15
ATOM     15  C   UNL A   1     -25.642   4.093  27.123  0.00  0.00    +0.266 C 
ATOM     16  N   UNL A   1     -25.614   5.252  26.449  0.00  0.00    -0.200 NA
ATOM     17  C   UNL A   1     -25.026   6.479  26.963  0.00  0.00    +0.139 C 
ATOM     18  O   UNL A   1     -25.143   3.966  28.243  0.00  0.00    -0.268 OA
ENDBRANCH   9  15
BRANCH  12  19
ATOM     19  O   UNL A   1     -28.193  -0.208  24.477  0.00  0.00    -0.456 OA
BRANCH  19  20
ATOM     20  C   UNL A   1     -29.460   0.005  23.866  0.00  0.00    +0.243 C 
BRANCH  20  21
ATOM     21  C   UNL A   1     -30.065  -1.377  23.573  0.00  0.00    +0.229 C 
ATOM     22  O   UNL A   1     -30.729  -1.878  24.721  0.00  0.00    -0.216 OA
ENDBRANCH  20  21
ENDBRANCH  19  20
ENDBRANCH  12  19
ENDBRANCH   2   8
ENDBRANCH   1   4
BRANCH   1  23
ATOM     23  C   UNL A   1     -24.855  -1.012  30.143  0.00  0.00    +0.044 C 
BRANCH  23  24
ATOM     24  C   UNL A   1     -24.973  -2.505  29.788  0.00  0.00    -0.021 C 
ATOM     25  C   UNL A   1     -23.906  -3.173  29.146  0.00  0.00    -0.004 C 
ATOM     26  C   UNL A   1     -23.989  -4.549  28.853  0.00  0.00    -0.000 C 
ATOM     27  C   UNL A   1     -25.137  -5.280  29.205  0.00  0.00    -0.000 C 
ATOM     28  C   UNL A   1     -26.232  -4.611  29.784  0.00  0.00    -0.000 C 
ATOM     29  C   UNL A   1     -26.155  -3.232  30.065  0.00  0.00    -0.004 C 
ENDBRANCH  23  24
BRANCH  23  30
ATOM     30  C   UNL A   1     -25.387  -0.679  31.571  0.00  0.00    +0.077 C 
ATOM     31  C   UNL A   1     -25.189   0.773  32.028  0.00  0.00    +0.019 C 
ATOM     32  C   UNL A   1     -25.336   0.684  33.544  0.00  0.00    +0.020 C 
ATOM     33  C   UNL A   1     -24.829  -0.715  33.905  0.00  0.00    +0.089 C 
ATOM     34  N   UNL A   1     -24.758  -1.481  32.646  0.00  0.00    -0.219 NA
ENDBRANCH  23  30
ENDBRANCH   1  23
BRANCH   1  35
ATOM     35  C   UNL A   1     -26.011   0.998  29.001  0.00  0.00    +0.095 C 
BRANCH  35  36
ATOM     36  N   UNL A   1     -26.794   1.917  29.253  0.00  0.00    -0.197 NA
BRANCH  36  37
ATOM     37  C   UNL A   1     -27.892   2.361  30.005  0.00  0.00    +0.181 C 
BRANCH  37  42
ATOM     38  C   UNL A   1     -30.366   3.361  27.851  0.00  0.00    +0.160 C 
ATOM     39  C   UNL A   1     -29.512   3.576  29.085  0.00  0.00    +0.244 C 
ATOM     40  C   UNL A   1     -30.441   1.575  29.287  0.00  0.00    +0.139 C 
ATOM     41  C   UNL A   1     -29.882   0.210  28.733  0.00  0.00    +0.054 C 
ATOM     42  N   UNL A   1     -29.101   2.364  29.465  0.00  0.00    -0.252 N 
ATOM     43  N   UNL A   1     -30.923   1.959  27.953  0.00  0.00    -0.250 NA
ATOM     44  C   UNL A   1     -30.210   0.778  27.344  0.00  0.00    +0.077 C 
ATOM     45  O   UNL A   1     -29.170   4.646  29.628  0.00  0.00    -0.273 OA
ENDBRANCH  37  42
BRANCH  37  46
ATOM     46  C   UNL A   1     -27.845   2.860  31.297  0.00  0.00    +0.180 C 
BRANCH  46  47
ATOM     47  O   UNL A   1     -27.992   3.942  31.949  0.00  0.00    -0.348 OA
ATOM     48  C   UNL A   1     -29.294   4.315  32.366  0.00  0.00    +0.174 C 
ENDBRANCH  46  47
ENDBRANCH  37  46
ENDBRANCH  36  37
ENDBRANCH  35  36
ENDBRANCH   1  35
TORSDOF 15
