MODEL 3210
MODEL 1
REMARK VINA RESULT:    -6.917      0.000      0.000
REMARK INTER + INTRA:          -7.659
REMARK INTER:                  -7.322
REMARK INTRA:                  -0.337
REMARK UNBOUND:                -0.337
REMARK  Name = No_3210-gen_results/8p0m/2024-11-27-11-27-31/
REMARK  1 active torsions:
REMARK  status: ('A' for Active; 'I' for Inactive)
REMARK    1  A    between atoms: C_3  and  C_8
REMARK                            x       y       z     vdW  Elec       q    Type
REMARK                         _______ _______ _______ _____ _____    ______ ____
ROOT
ATOM      1  C   UNL A   1     -23.664   0.788  27.537  0.00  0.00    +0.030 A 
ATOM      2  C   UNL A   1     -24.320  -0.184  27.832  0.00  0.00    +0.002 A 
ATOM      3  C   UNL A   1     -23.808  -1.169  28.669  0.00  0.00    +0.000 A 
ATOM      4  C   UNL A   1     -22.462  -1.085  29.175  0.00  0.00    +0.002 A 
ATOM      5  C   UNL A   1     -21.766   0.059  28.766  0.00  0.00    +0.030 A 
ATOM      6  C   UNL A   1     -22.290   0.953  27.958  0.00  0.00    +0.140 A 
ATOM      7  F   UNL A   1     -21.572   2.006  27.615  0.00  0.00    -0.204 F 
ENDROOT
BRANCH   3   8
ATOM      8  C   UNL A   1     -24.533  -2.419  29.106  0.00  0.00    +0.000 A 
ATOM      9  C   UNL A   1     -25.743  -2.441  29.553  0.00  0.00    +0.000 A 
ATOM     10  C   UNL A   1     -26.403  -3.698  29.871  0.00  0.00    +0.000 A 
ATOM     11  C   UNL A   1     -25.810  -4.897  29.430  0.00  0.00    +0.000 A 
ATOM     12  C   UNL A   1     -23.936  -3.685  28.712  0.00  0.00    +0.000 A 
ATOM     13  C   UNL A   1     -24.594  -4.880  28.964  0.00  0.00    +0.000 A 
ENDBRANCH   3   8
TORSDOF 1
ENDMDL
ENDMDL
