MODEL 3211
MODEL 1
REMARK VINA RESULT:    -6.399      0.000      0.000
REMARK INTER + INTRA:          -7.119
REMARK INTER:                  -6.774
REMARK INTRA:                  -0.345
REMARK UNBOUND:                -0.345
REMARK  Name = No_3211-gen_results/8p0m/2024-11-27-11-27-31/
REMARK  1 active torsions:
REMARK  status: ('A' for Active; 'I' for Inactive)
REMARK    1  A    between atoms: C_5  and  C_8
REMARK                            x       y       z     vdW  Elec       q    Type
REMARK                         _______ _______ _______ _____ _____    ______ ____
ROOT
ATOM      1  C   UNL A   1     -24.873   0.314  26.628  0.00  0.00    +0.011 A 
ATOM      2  C   UNL A   1     -25.036  -0.611  27.107  0.00  0.00    +0.001 A 
ATOM      3  C   UNL A   1     -23.709   1.045  27.043  0.00  0.00    +0.058 A 
ATOM      4  C   UNL A   1     -22.954   0.684  28.084  0.00  0.00    +0.011 A 
ATOM      5  C   UNL A   1     -24.365  -1.187  28.264  0.00  0.00    +0.000 A 
ATOM      6  C   UNL A   1     -23.300  -0.511  28.674  0.00  0.00    +0.001 A 
ATOM      7 CL   UNL A   1     -23.346   2.529  26.172  0.00  0.00    -0.082 Cl
ENDROOT
BRANCH   5   8
ATOM      8  C   UNL A   1     -24.835  -2.512  28.861  0.00  0.00    +0.000 A 
ATOM      9  C   UNL A   1     -25.955  -2.517  29.467  0.00  0.00    +0.000 A 
ATOM     10  C   UNL A   1     -26.586  -3.804  29.822  0.00  0.00    +0.000 A 
ATOM     11  C   UNL A   1     -25.830  -4.947  29.578  0.00  0.00    +0.000 A 
ATOM     12  C   UNL A   1     -24.617  -4.886  28.991  0.00  0.00    +0.000 A 
ATOM     13  C   UNL A   1     -24.040  -3.639  28.577  0.00  0.00    +0.000 A 
ENDBRANCH   5   8
TORSDOF 1
ENDMDL
ENDMDL
