REMARK  Name = outputs/IAG933/test6/raw/output_3212_IAG933_linker_design_.xyz
REMARK  14 active torsions:
REMARK  status: ('A' for Active; 'I' for Inactive)
REMARK    1  A    between atoms: C_1  and  C_2
REMARK    2  A    between atoms: C_1  and  C_8
REMARK    3  A    between atoms: C_1  and  N_42
REMARK    4  A    between atoms: C_13  and  C_31
REMARK    5  A    between atoms: C_14  and  C_15
REMARK    6  A    between atoms: C_21  and  O_22
REMARK    7  A    between atoms: O_22  and  C_23
REMARK    8  A    between atoms: C_23  and  C_24
REMARK    9  A    between atoms: C_29  and  C_36
REMARK   10  A    between atoms: C_29  and  C_44
REMARK   11  A    between atoms: C_36  and  N_42
REMARK   12  A    between atoms: C_37  and  C_38
REMARK   13  A    between atoms: C_38  and  C_44
REMARK   14  A    between atoms: N_42  and  C_43
REMARK                            x       y       z     vdW  Elec       q    Type
REMARK                         _______ _______ _______ _____ _____    ______ ____
ROOT
ATOM      1  N   UNL A   1     -25.174  -0.124  28.969  0.00  0.00    -0.304 N 
ENDROOT
BRANCH   1   7
ATOM      2  N   UNL A   1     -20.696   1.552  28.255  0.00  0.00    -0.088 NA
ATOM      3  C   UNL A   1     -24.467   1.433  26.942  0.00  0.00    +0.037 C 
ATOM      4  C   UNL A   1     -23.426   1.921  26.147  0.00  0.00    +0.235 C 
ATOM      5  O   UNL A   1     -22.186   1.754  26.529  0.00  0.00    -0.456 OA
ATOM      6  C   UNL A   1     -22.901   0.685  28.512  0.00  0.00    +0.070 C 
ATOM      7  C   UNL A   1     -24.240   0.631  28.193  0.00  0.00    +0.052 C 
ATOM      8  C   UNL A   1     -21.952   1.308  27.736  0.00  0.00    +0.232 C 
BRANCH   3   9
ATOM      9  C   UNL A   1     -25.688   1.614  26.461  0.00  0.00    +0.039 C 
ATOM     10  C   UNL A   1     -26.250   2.920  26.395  0.00  0.00    +0.076 C 
ATOM     11  C   UNL A   1     -27.438   3.091  25.645  0.00  0.00    +0.107 C 
ATOM     12  N   UNL A   1     -28.075   2.089  25.003  0.00  0.00    -0.208 NA
ATOM     13  C   UNL A   1     -27.543   0.849  25.079  0.00  0.00    +0.253 C 
ATOM     14  C   UNL A   1     -26.354   0.576  25.777  0.00  0.00    +0.193 C 
ATOM     15  F   UNL A   1     -25.860  -0.681  25.795  0.00  0.00    -0.199 F 
BRANCH  10  16
ATOM     16  C   UNL A   1     -25.642   4.093  27.123  0.00  0.00    +0.266 C 
ATOM     17  N   UNL A   1     -25.614   5.252  26.449  0.00  0.00    -0.200 NA
ATOM     18  C   UNL A   1     -25.026   6.479  26.963  0.00  0.00    +0.139 C 
ATOM     19  O   UNL A   1     -25.143   3.966  28.243  0.00  0.00    -0.268 OA
ENDBRANCH  10  16
BRANCH  13  20
ATOM     20  O   UNL A   1     -28.193  -0.208  24.477  0.00  0.00    -0.456 OA
BRANCH  20  21
ATOM     21  C   UNL A   1     -29.460   0.005  23.866  0.00  0.00    +0.243 C 
BRANCH  21  22
ATOM     22  C   UNL A   1     -30.065  -1.377  23.573  0.00  0.00    +0.229 C 
ATOM     23  O   UNL A   1     -30.729  -1.878  24.721  0.00  0.00    -0.216 OA
ENDBRANCH  21  22
ENDBRANCH  20  21
ENDBRANCH  13  20
ENDBRANCH   3   9
ENDBRANCH   1   7
BRANCH   1  24
ATOM     24  C   UNL A   1     -24.855  -1.012  30.143  0.00  0.00    +0.111 C 
BRANCH  24  25
ATOM     25  C   UNL A   1     -24.973  -2.505  29.788  0.00  0.00    -0.003 C 
ATOM     26  C   UNL A   1     -23.906  -3.173  29.146  0.00  0.00    -0.003 C 
ATOM     27  C   UNL A   1     -23.989  -4.549  28.853  0.00  0.00    -0.000 C 
ATOM     28  C   UNL A   1     -25.137  -5.280  29.205  0.00  0.00    -0.000 C 
ATOM     29  C   UNL A   1     -26.232  -4.611  29.784  0.00  0.00    -0.000 C 
ATOM     30  C   UNL A   1     -26.155  -3.232  30.065  0.00  0.00    -0.003 C 
ENDBRANCH  24  25
BRANCH  24  31
ATOM     31  C   UNL A   1     -25.387  -0.679  31.571  0.00  0.00    +0.095 C 
ATOM     32  C   UNL A   1     -25.189   0.773  32.028  0.00  0.00    +0.021 C 
ATOM     33  C   UNL A   1     -25.336   0.684  33.544  0.00  0.00    +0.020 C 
ATOM     34  C   UNL A   1     -24.829  -0.715  33.905  0.00  0.00    +0.089 C 
ATOM     35  N   UNL A   1     -24.758  -1.481  32.646  0.00  0.00    -0.217 NA
ENDBRANCH  24  31
ENDBRANCH   1  24
BRANCH   1  36
ATOM     36  C   UNL A   1     -26.619   0.168  28.998  0.00  0.00    +0.091 C 
BRANCH  36  37
ATOM     37  C   UNL A   1     -27.839  -0.719  28.647  0.00  0.00    +0.022 C 
BRANCH  37  38
ATOM     38  C   UNL A   1     -29.049   0.202  28.625  0.00  0.00    +0.011 C 
BRANCH  38  39
ATOM     39  C   UNL A   1     -30.368  -0.562  28.521  0.00  0.00    +0.087 C 
BRANCH  39  44
ATOM     40  O   UNL A   1     -29.846  -2.489  29.756  0.00  0.00    -0.273 OA
ATOM     41  N   UNL A   1     -32.602   0.366  32.008  0.00  0.00    -0.068 NA
ATOM     42  O   UNL A   1     -30.362   0.095  31.922  0.00  0.00    -0.247 OA
ATOM     43  N   UNL A   1     -31.613  -1.342  30.723  0.00  0.00    -0.125 NA
ATOM     44  C   UNL A   1     -30.645  -1.520  29.691  0.00  0.00    +0.249 C 
ATOM     45  C   UNL A   1     -31.503  -0.273  31.602  0.00  0.00    +0.365 C 
ENDBRANCH  39  44
ENDBRANCH  38  39
ENDBRANCH  37  38
ENDBRANCH  36  37
ENDBRANCH   1  36
TORSDOF 14
