REMARK  Name = outputs/IAG933/test6/raw/output_3215_IAG933_linker_design_.xyz
REMARK  11 active torsions:
REMARK  status: ('A' for Active; 'I' for Inactive)
REMARK    1  A    between atoms: C_1  and  C_2
REMARK    2  A    between atoms: C_1  and  C_8
REMARK    3  A    between atoms: C_1  and  O_45
REMARK    4  A    between atoms: C_21  and  O_22
REMARK    5  A    between atoms: O_22  and  C_23
REMARK    6  A    between atoms: C_23  and  C_24
REMARK    7  A    between atoms: C_30  and  N_34
REMARK    8  A    between atoms: C_35  and  C_46
REMARK    9  A    between atoms: C_36  and  C_43
REMARK   10  A    between atoms: C_41  and  C_43
REMARK   11  A    between atoms: O_45  and  C_48
REMARK                            x       y       z     vdW  Elec       q    Type
REMARK                         _______ _______ _______ _____ _____    ______ ____
ROOT
ATOM      1  C   UNL A   1     -25.688   1.614  26.461  0.00  0.00    +0.024 A 
ATOM      2  C   UNL A   1     -26.250   2.920  26.395  0.00  0.00    +0.054 A 
ATOM      3  C   UNL A   1     -25.642   4.093  27.123  0.00  0.00    +0.223 A 
ATOM      4  N   UNL A   1     -25.614   5.252  26.449  0.00  0.00    -0.236 NA
ATOM      5  C   UNL A   1     -25.026   6.479  26.963  0.00  0.00    +0.155 C 
ATOM      6  O   UNL A   1     -25.143   3.966  28.243  0.00  0.00    -0.441 OA
ATOM      7  C   UNL A   1     -27.438   3.091  25.645  0.00  0.00    +0.159 C 
ATOM      8  N   UNL A   1     -28.075   2.089  25.003  0.00  0.00    -0.234 NA
ATOM      9  C   UNL A   1     -27.543   0.849  25.079  0.00  0.00    +0.234 C 
ATOM     10  C   UNL A   1     -26.354   0.576  25.777  0.00  0.00    +0.258 C 
ATOM     11  F   UNL A   1     -25.860  -0.681  25.795  0.00  0.00    -0.222 F 
ATOM     12  C   UNL A   1     -24.610   2.845  28.814  0.00  0.00    +0.127 A 
ATOM     13  C   UNL A   1     -24.464   1.768  27.641  0.00  0.00    +0.035 A 
ENDROOT
BRANCH  13  17
ATOM     14  C   UNL A   1     -20.736   0.169  28.451  0.00  0.00    +0.006 C 
ATOM     15  C   UNL A   1     -22.227   1.520  27.055  0.00  0.00    +0.199 C 
ATOM     16  C   UNL A   1     -21.855  -0.156  29.254  0.00  0.00    +0.037 C 
ATOM     17  C   UNL A   1     -23.259   1.139  27.839  0.00  0.00    +0.075 C 
ATOM     18  C   UNL A   1     -20.910   1.115  27.373  0.00  0.00    +0.042 C 
ATOM     19  O   UNL A   1     -22.427   2.330  25.967  0.00  0.00    -0.286 OA
ATOM     20  C   UNL A   1     -23.099   0.295  28.840  0.00  0.00    +0.142 C 
BRANCH  20  21
ATOM     21  O   UNL A   1     -24.182   0.018  29.608  0.00  0.00    -0.473 OA
BRANCH  21  22
ATOM     22  C   UNL A   1     -24.855  -1.012  30.143  0.00  0.00    +0.204 C 
BRANCH  22  23
ATOM     23  C   UNL A   1     -24.973  -2.505  29.788  0.00  0.00    +0.019 C 
ATOM     24  C   UNL A   1     -23.906  -3.173  29.146  0.00  0.00    -0.001 C 
ATOM     25  C   UNL A   1     -23.989  -4.549  28.853  0.00  0.00    -0.000 C 
ATOM     26  C   UNL A   1     -25.137  -5.280  29.205  0.00  0.00    -0.000 C 
ATOM     27  C   UNL A   1     -26.232  -4.611  29.784  0.00  0.00    -0.000 C 
ATOM     28  C   UNL A   1     -26.155  -3.232  30.065  0.00  0.00    -0.001 C 
ENDBRANCH  22  23
BRANCH  22  29
ATOM     29  C   UNL A   1     -25.387  -0.679  31.571  0.00  0.00    +0.117 C 
ATOM     30  C   UNL A   1     -25.189   0.773  32.028  0.00  0.00    +0.023 C 
ATOM     31  C   UNL A   1     -25.336   0.684  33.544  0.00  0.00    +0.020 C 
ATOM     32  C   UNL A   1     -24.829  -0.715  33.905  0.00  0.00    +0.089 C 
ATOM     33  N   UNL A   1     -24.758  -1.481  32.646  0.00  0.00    -0.215 NA
ENDBRANCH  22  29
ENDBRANCH  21  22
ENDBRANCH  20  21
ENDBRANCH  13  17
BRANCH   9  34
ATOM     34  O   UNL A   1     -28.193  -0.208  24.477  0.00  0.00    -0.459 OA
BRANCH  34  35
ATOM     35  C   UNL A   1     -29.460   0.005  23.866  0.00  0.00    +0.242 C 
BRANCH  35  36
ATOM     36  C   UNL A   1     -30.065  -1.377  23.573  0.00  0.00    +0.229 C 
ATOM     37  O   UNL A   1     -30.729  -1.878  24.721  0.00  0.00    -0.216 OA
ENDBRANCH  35  36
ENDBRANCH  34  35
ENDBRANCH   9  34
BRANCH  12  38
ATOM     38  C   UNL A   1     -25.109   2.918  30.293  0.00  0.00    +0.095 C 
BRANCH  38  43
ATOM     39  C   UNL A   1     -27.948   2.415  31.591  0.00  0.00    +0.020 C 
ATOM     40  N   UNL A   1     -29.772   3.387  30.535  0.00  0.00    -0.273 NA
ATOM     41  O   UNL A   1     -26.076   4.946  31.261  0.00  0.00    -0.225 OA
ATOM     42  C   UNL A   1     -27.371   4.226  29.442  0.00  0.00    +0.033 C 
ATOM     43  C   UNL A   1     -26.438   3.728  30.509  0.00  0.00    +0.134 C 
ATOM     44  C   UNL A   1     -28.998   3.464  31.696  0.00  0.00    +0.072 C 
ATOM     45  C   UNL A   1     -27.536   2.980  30.004  0.00  0.00    +0.031 C 
ATOM     46  C   UNL A   1     -28.252   2.029  29.073  0.00  0.00    +0.020 C 
ATOM     47  C   UNL A   1     -29.716   2.162  29.597  0.00  0.00    +0.072 C 
BRANCH  40  48
ATOM     48  C   UNL A   1     -31.152   3.572  30.979  0.00  0.00    +0.072 C 
ATOM     49  C   UNL A   1     -31.538   4.938  31.548  0.00  0.00    +0.019 C 
ENDBRANCH  40  48
ENDBRANCH  38  43
ENDBRANCH  12  38
TORSDOF 11
