MODEL 3215
MODEL 1
REMARK VINA RESULT:    -4.919      0.000      0.000
REMARK INTER + INTRA:          -5.566
REMARK INTER:                  -5.494
REMARK INTRA:                  -0.072
REMARK UNBOUND:                -0.072
REMARK  Name = No_3215-gen_results/8p0m/2024-11-27-11-27-31/
REMARK  2 active torsions:
REMARK  status: ('A' for Active; 'I' for Inactive)
REMARK    1  A    between atoms: N_1  and  C_2
REMARK    2  A    between atoms: C_5  and  C_6
REMARK                            x       y       z     vdW  Elec       q    Type
REMARK                         _______ _______ _______ _____ _____    ______ ____
ROOT
ATOM      1  C   UNL A   1     -24.379  -2.056  29.231  0.00  0.00    +0.093 A 
ATOM      2  C   UNL A   1     -24.903  -1.300  28.197  0.00  0.00    +0.020 A 
ATOM      3  C   UNL A   1     -24.298  -0.116  27.691  0.00  0.00    +0.008 A 
ATOM      4  C   UNL A   1     -23.056   0.286  28.256  0.00  0.00    +0.080 A 
ATOM      5  C   UNL A   1     -23.334  -1.431  30.024  0.00  0.00    +0.020 A 
ATOM      6  C   UNL A   1     -22.581  -0.306  29.497  0.00  0.00    +0.008 A 
ENDROOT
BRANCH   1   7
ATOM      7  N   UNL A   1     -24.983  -3.056  29.624  0.00  0.00    -0.167 NA
ATOM      8  C   UNL A   1     -24.600  -4.186  28.959  0.00  0.00    +0.240 C 
ATOM      9  O   UNL A   1     -23.577  -4.418  28.532  0.00  0.00    -0.210 OA
ENDBRANCH   1   7
BRANCH   4  10
ATOM     10  C   UNL A   1     -22.401   1.433  27.846  0.00  0.00    +0.388 C 
ATOM     11  O   UNL A   1     -22.968   2.527  27.906  0.00  0.00    -0.241 OA
ATOM     12  O   UNL A   1     -21.135   1.475  27.491  0.00  0.00    -0.241 OA
ENDBRANCH   4  10
TORSDOF 2
ENDMDL
ENDMDL
