REMARK  Name = No_3216-gen_results/8p0m/2024-11-27-11-27-31/
REMARK  1 active torsions:
REMARK  status: ('A' for Active; 'I' for Inactive)
REMARK    1  A    between atoms: C_9  and  C_11
REMARK                            x       y       z     vdW  Elec       q    Type
REMARK                         _______ _______ _______ _____ _____    ______ ____
ROOT
ATOM      1  C   UNL A   1     -28.016  -0.814  28.878  0.00  0.00    +0.000 A 
ATOM      2  C   UNL A   1     -27.064  -0.119  28.608  0.00  0.00    +0.000 A 
ATOM      3  C   UNL A   1     -25.792  -0.430  29.076  0.00  0.00    +0.000 A 
ATOM      4  C   UNL A   1     -25.531  -1.588  29.610  0.00  0.00    +0.000 A 
ATOM      5  C   UNL A   1     -26.637  -2.434  29.965  0.00  0.00    +0.000 A 
ATOM      6  C   UNL A   1     -27.841  -2.029  29.620  0.00  0.00    +0.000 A 
ATOM      7  C   UNL A   1     -26.960   1.219  27.849  0.00  0.00    +0.000 A 
ATOM      8  C   UNL A   1     -26.014   1.722  27.395  0.00  0.00    +0.005 A 
ATOM      9  C   UNL A   1     -24.635   1.298  27.902  0.00  0.00    +0.057 A 
ATOM     10  C   UNL A   1     -24.456   0.490  28.684  0.00  0.00    +0.005 A 
ENDROOT
BRANCH   9  11
ATOM     11  C   UNL A   1     -23.586   2.340  27.491  0.00  0.00    +0.284 C 
ATOM     12  N   UNL A   1     -22.386   2.108  28.014  0.00  0.00    -0.084 NA
ATOM     13  O   UNL A   1     -23.777   3.220  26.652  0.00  0.00    -0.267 OA
ENDBRANCH   9  11
TORSDOF 1
