MODEL 3217
MODEL 1
REMARK VINA RESULT:    -5.002      0.000      0.000
REMARK INTER + INTRA:          -5.002
REMARK INTER:                  -5.002
REMARK INTRA:                   0.000
REMARK UNBOUND:                 0.000
REMARK  Name = No_3217-gen_results/8p0m/2024-11-27-11-27-31/
REMARK  0 active torsions:
REMARK  status: ('A' for Active; 'I' for Inactive)
REMARK                            x       y       z     vdW  Elec       q    Type
REMARK                         _______ _______ _______ _____ _____    ______ ____
ROOT
ATOM      1  O   UNL A   1     -11.077 -10.440  16.867  0.00  0.00    -0.273 OA
ATOM      2  C   UNL A   1     -10.257 -10.271  17.777  0.00  0.00    +0.241 C 
ATOM      3  C   UNL A   1      -9.081 -10.777  17.823  0.00  0.00    +0.087 C 
ATOM      4  N   UNL A   1     -10.553  -9.331  18.841  0.00  0.00    -0.205 NA
ATOM      5  C   UNL A   1      -8.109 -10.614  18.883  0.00  0.00    +0.011 C 
ATOM      6  C   UNL A   1      -9.685  -9.058  19.884  0.00  0.00    +0.115 C 
ATOM      7  C   UNL A   1      -8.472  -9.683  19.945  0.00  0.00    +0.024 C 
ENDROOT
TORSDOF 0
ENDMDL
ENDMDL
