MODEL 3218
MODEL 1
REMARK VINA RESULT:    -6.829      0.000      0.000
REMARK INTER + INTRA:          -8.691
REMARK INTER:                  -8.027
REMARK INTRA:                  -0.664
REMARK UNBOUND:                -0.664
REMARK  Name = No_3218-gen_results/8p0m/2024-11-27-11-27-31/
REMARK  3 active torsions:
REMARK  status: ('A' for Active; 'I' for Inactive)
REMARK    1  A    between atoms: C_3  and  C_7
REMARK    2  A    between atoms: C_7  and  C_8
REMARK    3  A    between atoms: C_12  and  C_15
REMARK                            x       y       z     vdW  Elec       q    Type
REMARK                         _______ _______ _______ _____ _____    ______ ____
ROOT
ATOM      1  C   UNL A   1     -23.900  -1.176  29.724  0.00  0.00    +0.196 C 
ATOM      2  O   UNL A   1     -23.302  -0.972  30.858  0.00  0.00    -0.287 OA
ENDROOT
BRANCH   1   5
ATOM      3  C   UNL A   1     -24.434   0.155  27.598  0.00  0.00    +0.003 A 
ATOM      4  C   UNL A   1     -24.113   0.879  26.902  0.00  0.00    +0.000 A 
ATOM      5  C   UNL A   1     -23.549  -0.196  28.640  0.00  0.00    +0.039 A 
ATOM      6  C   UNL A   1     -22.294   0.370  28.755  0.00  0.00    +0.003 A 
ATOM      7  C   UNL A   1     -22.845   1.628  26.800  0.00  0.00    +0.000 A 
ATOM      8  C   UNL A   1     -21.967   1.321  27.780  0.00  0.00    +0.000 A 
ENDBRANCH   1   5
BRANCH   1   9
ATOM      9  C   UNL A   1     -24.546  -2.188  29.426  0.00  0.00    +0.039 A 
ATOM     10  C   UNL A   1     -23.842  -3.369  28.857  0.00  0.00    +0.003 A 
ATOM     11  C   UNL A   1     -24.448  -4.638  28.829  0.00  0.00    -0.000 A 
ATOM     12  C   UNL A   1     -25.763  -4.809  29.355  0.00  0.00    -0.002 A 
ATOM     13  C   UNL A   1     -26.411  -3.661  29.907  0.00  0.00    +0.011 A 
ATOM     14  C   UNL A   1     -25.809  -2.444  30.010  0.00  0.00    +0.001 A 
BRANCH  13  15
ATOM     15  C   UNL A   1     -27.777  -3.983  30.433  0.00  0.00    +0.209 C 
ATOM     16  O   UNL A   1     -28.454  -4.567  29.684  0.00  0.00    -0.215 OA
ENDBRANCH  13  15
ENDBRANCH   1   9
TORSDOF 3
ENDMDL
ENDMDL
