MODEL 3219
MODEL 1
REMARK VINA RESULT:    -7.339      0.000      0.000
REMARK INTER + INTRA:          -9.649
REMARK INTER:                  -8.626
REMARK INTRA:                  -1.023
REMARK UNBOUND:                -1.023
REMARK  Name = No_3219-gen_results/8p0m/2024-11-27-11-27-31/
REMARK  3 active torsions:
REMARK  status: ('A' for Active; 'I' for Inactive)
REMARK    1  A    between atoms: C_3  and  C_7
REMARK    2  A    between atoms: C_7  and  C_8
REMARK    3  A    between atoms: C_7  and  C_18
REMARK                            x       y       z     vdW  Elec       q    Type
REMARK                         _______ _______ _______ _____ _____    ______ ____
ROOT
ATOM      1  C   UNL A   1     -24.123  -1.183  30.683  0.00  0.00    +0.148 C 
ENDROOT
BRANCH   1   2
ATOM      2  C   UNL A   1     -23.756  -0.188  29.702  0.00  0.00    -0.008 A 
ATOM      3  C   UNL A   1     -24.612   0.328  28.799  0.00  0.00    -0.003 A 
ATOM      4  C   UNL A   1     -24.176   1.150  27.756  0.00  0.00    -0.000 A 
ATOM      5  C   UNL A   1     -25.073   1.740  26.773  0.00  0.00    -0.000 A 
ATOM      6  C   UNL A   1     -24.553   2.435  25.671  0.00  0.00    -0.000 A 
ATOM      7  C   UNL A   1     -23.141   2.568  25.553  0.00  0.00    -0.000 A 
ATOM      8  C   UNL A   1     -22.267   1.877  26.417  0.00  0.00    -0.000 A 
ATOM      9  C   UNL A   1     -22.787   1.131  27.407  0.00  0.00    -0.000 A 
ATOM     10  C   UNL A   1     -22.335   0.033  29.599  0.00  0.00    -0.003 A 
ATOM     11  C   UNL A   1     -21.866   0.574  28.388  0.00  0.00    -0.000 A 
ENDBRANCH   1   2
BRANCH   1  14
ATOM     12  C   UNL A   1     -23.857  -3.260  29.247  0.00  0.00    -0.003 A 
ATOM     13  C   UNL A   1     -24.253  -4.177  28.912  0.00  0.00    -0.000 A 
ATOM     14  C   UNL A   1     -24.712  -2.471  30.088  0.00  0.00    -0.008 A 
ATOM     15  C   UNL A   1     -25.993  -2.774  30.314  0.00  0.00    -0.003 A 
ATOM     16  C   UNL A   1     -26.444  -3.948  29.777  0.00  0.00    -0.000 A 
ATOM     17  C   UNL A   1     -25.564  -4.711  29.012  0.00  0.00    -0.000 A 
ENDBRANCH   1  14
BRANCH   1  18
ATOM     18  C   UNL A   1     -24.067  -1.047  32.037  0.00  0.00    +0.372 C 
ATOM     19  O   UNL A   1     -23.301  -1.485  32.589  0.00  0.00    -0.245 OA
ATOM     20  O   UNL A   1     -24.968  -0.331  32.583  0.00  0.00    -0.245 OA
ENDBRANCH   1  18
TORSDOF 3
ENDMDL
ENDMDL
