MODEL 321
MODEL 1
REMARK VINA RESULT:    -4.554      0.000      0.000
REMARK INTER + INTRA:          -5.225
REMARK INTER:                  -5.086
REMARK INTRA:                  -0.139
REMARK UNBOUND:                -0.139
REMARK  Name = No_321-gen_results/8p0m/2024-11-27-11-27-31/
REMARK  2 active torsions:
REMARK  status: ('A' for Active; 'I' for Inactive)
REMARK    1  A    between atoms: C_2  and  C_4
REMARK    2  A    between atoms: C_5  and  C_6
REMARK                            x       y       z     vdW  Elec       q    Type
REMARK                         _______ _______ _______ _____ _____    ______ ____
ROOT
ATOM      1  C   UNL A   1     -24.177  -4.174  28.703  0.00  0.00    +0.045 C 
ATOM      2  C   UNL A   1     -24.210  -3.096  29.401  0.00  0.00    +0.001 C 
ENDROOT
BRANCH   1   4
ATOM      3  F   UNL A   1     -25.798  -5.245  29.793  0.00  0.00    -0.193 F 
ATOM      4  C   UNL A   1     -24.948  -5.308  29.029  0.00  0.00    +0.341 C 
ATOM      5  F   UNL A   1     -24.880  -6.290  28.437  0.00  0.00    -0.193 F 
ENDBRANCH   1   4
BRANCH   2   6
ATOM      6  C   UNL A   1     -23.465  -1.970  29.096  0.00  0.00    -0.005 C 
ATOM      7  C   UNL A   1     -23.143  -1.015  30.142  0.00  0.00    -0.026 C 
ATOM      8  C   UNL A   1     -23.603  -1.325  31.456  0.00  0.00    +0.031 C 
ENDBRANCH   2   6
TORSDOF 2
ENDMDL
ENDMDL
