REMARK  Name = outputs/IAG933/test6/raw/output_322_IAG933_linker_design_.xyz
REMARK  13 active torsions:
REMARK  status: ('A' for Active; 'I' for Inactive)
REMARK    1  A    between atoms: C_1  and  C_2
REMARK    2  A    between atoms: C_1  and  C_8
REMARK    3  A    between atoms: C_9  and  C_34
REMARK    4  A    between atoms: C_13  and  C_39
REMARK    5  A    between atoms: C_14  and  C_15
REMARK    6  A    between atoms: C_21  and  O_22
REMARK    7  A    between atoms: O_22  and  C_23
REMARK    8  A    between atoms: C_23  and  C_24
REMARK    9  A    between atoms: C_29  and  S_49
REMARK   10  A    between atoms: C_34  and  O_37
REMARK   11  A    between atoms: C_34  and  C_48
REMARK   12  A    between atoms: O_37  and  C_43
REMARK   13  A    between atoms: C_44  and  C_48
REMARK                            x       y       z     vdW  Elec       q    Type
REMARK                         _______ _______ _______ _____ _____    ______ ____
ROOT
ATOM      1  C   UNL A   1     -24.817   1.977  31.252  0.00  0.00    +0.118 C 
ENDROOT
BRANCH   1   3
ATOM      2  C   UNL A   1     -25.387  -0.679  31.571  0.00  0.00    +0.080 C 
ATOM      3  C   UNL A   1     -25.189   0.773  32.028  0.00  0.00    +0.045 C 
ATOM      4  C   UNL A   1     -25.336   0.684  33.544  0.00  0.00    +0.023 C 
ATOM      5  C   UNL A   1     -24.829  -0.715  33.905  0.00  0.00    +0.089 C 
ATOM      6  N   UNL A   1     -24.758  -1.481  32.646  0.00  0.00    -0.219 NA
BRANCH   2   7
ATOM      7  C   UNL A   1     -24.855  -1.012  30.143  0.00  0.00    +0.044 C 
BRANCH   7   8
ATOM      8  C   UNL A   1     -24.973  -2.505  29.788  0.00  0.00    -0.021 C 
ATOM      9  C   UNL A   1     -23.906  -3.173  29.146  0.00  0.00    -0.004 C 
ATOM     10  C   UNL A   1     -23.989  -4.549  28.853  0.00  0.00    -0.000 C 
ATOM     11  C   UNL A   1     -25.137  -5.280  29.205  0.00  0.00    -0.000 C 
ATOM     12  C   UNL A   1     -26.232  -4.611  29.784  0.00  0.00    -0.000 C 
ATOM     13  C   UNL A   1     -26.155  -3.232  30.065  0.00  0.00    -0.004 C 
ENDBRANCH   7   8
ENDBRANCH   2   7
ENDBRANCH   1   3
BRANCH   1  14
ATOM     14  O   UNL A   1     -25.230   3.046  31.630  0.00  0.00    -0.356 OA
BRANCH  14  23
ATOM     15  C   UNL A   1     -26.071   5.107  32.487  0.00  0.00    +0.185 C 
ATOM     16  C   UNL A   1     -26.928   3.215  33.278  0.00  0.00    +0.059 C 
ATOM     17  C   UNL A   1     -27.567   4.347  33.813  0.00  0.00    -0.005 C 
ATOM     18  N   UNL A   1     -28.942   3.264  35.486  0.00  0.00    -0.128 NA
ATOM     19  C   UNL A   1     -27.727   6.765  33.437  0.00  0.00    -0.003 C 
ATOM     20  C   UNL A   1     -28.575   6.818  34.522  0.00  0.00    +0.001 C 
ATOM     21  C   UNL A   1     -28.968   5.668  35.216  0.00  0.00    +0.018 C 
ATOM     22  C   UNL A   1     -28.527   4.410  34.820  0.00  0.00    +0.085 C 
ATOM     23  C   UNL A   1     -26.013   3.736  32.367  0.00  0.00    +0.146 C 
ATOM     24  C   UNL A   1     -27.133   5.518  33.206  0.00  0.00    -0.000 C 
BRANCH  15  28
ATOM     25  O   UNL A   1     -23.922   6.060  33.268  0.00  0.00    -0.069 OA
ATOM     26  O   UNL A   1     -25.012   6.035  30.832  0.00  0.00    -0.069 OA
ATOM     27  O   UNL A   1     -24.452   8.003  32.039  0.00  0.00    -0.069 OA
ATOM     28  S   UNL A   1     -24.923   6.489  32.268  0.00  0.00    +0.027 S 
ENDBRANCH  15  28
ENDBRANCH  14  23
ENDBRANCH   1  14
BRANCH   1  29
ATOM     29  C   UNL A   1     -23.801   2.071  29.987  0.00  0.00    +0.047 C 
BRANCH  29  33
ATOM     30  C   UNL A   1     -24.449   1.434  26.985  0.00  0.00    +0.097 C 
ATOM     31  N   UNL A   1     -24.327   0.793  28.112  0.00  0.00    -0.216 NA
ATOM     32  C   UNL A   1     -21.797   1.583  26.815  0.00  0.00    +0.003 C 
ATOM     33  C   UNL A   1     -23.142   1.124  28.930  0.00  0.00    +0.075 C 
ATOM     34  C   UNL A   1     -21.891   1.770  28.354  0.00  0.00    +0.018 C 
ATOM     35  C   UNL A   1     -23.186   2.034  26.236  0.00  0.00    +0.022 C 
BRANCH  30  36
ATOM     36  C   UNL A   1     -25.688   1.614  26.461  0.00  0.00    +0.032 C 
ATOM     37  C   UNL A   1     -26.250   2.920  26.395  0.00  0.00    +0.074 C 
ATOM     38  C   UNL A   1     -27.438   3.091  25.645  0.00  0.00    +0.106 C 
ATOM     39  N   UNL A   1     -28.075   2.089  25.003  0.00  0.00    -0.208 NA
ATOM     40  C   UNL A   1     -27.543   0.849  25.079  0.00  0.00    +0.253 C 
ATOM     41  C   UNL A   1     -26.354   0.576  25.777  0.00  0.00    +0.190 C 
ATOM     42  F   UNL A   1     -25.860  -0.681  25.795  0.00  0.00    -0.200 F 
BRANCH  37  43
ATOM     43  C   UNL A   1     -25.642   4.093  27.123  0.00  0.00    +0.266 C 
ATOM     44  N   UNL A   1     -25.614   5.252  26.449  0.00  0.00    -0.200 NA
ATOM     45  C   UNL A   1     -25.026   6.479  26.963  0.00  0.00    +0.139 C 
ATOM     46  O   UNL A   1     -25.143   3.966  28.243  0.00  0.00    -0.268 OA
ENDBRANCH  37  43
BRANCH  40  47
ATOM     47  O   UNL A   1     -28.193  -0.208  24.477  0.00  0.00    -0.456 OA
BRANCH  47  48
ATOM     48  C   UNL A   1     -29.460   0.005  23.866  0.00  0.00    +0.243 C 
BRANCH  48  49
ATOM     49  C   UNL A   1     -30.065  -1.377  23.573  0.00  0.00    +0.229 C 
ATOM     50  O   UNL A   1     -30.729  -1.878  24.721  0.00  0.00    -0.216 OA
ENDBRANCH  48  49
ENDBRANCH  47  48
ENDBRANCH  40  47
ENDBRANCH  30  36
ENDBRANCH  29  33
ENDBRANCH   1  29
TORSDOF 13
