MODEL 3220
MODEL 1
REMARK VINA RESULT:    -5.395      0.000      0.000
REMARK INTER + INTRA:          -5.773
REMARK INTER:                  -5.710
REMARK INTRA:                  -0.063
REMARK UNBOUND:                -0.063
REMARK  Name = No_3220-gen_results/8p0m/2024-11-27-11-27-31/
REMARK  1 active torsions:
REMARK  status: ('A' for Active; 'I' for Inactive)
REMARK    1  A    between atoms: C_2  and  C_7
REMARK                            x       y       z     vdW  Elec       q    Type
REMARK                         _______ _______ _______ _____ _____    ______ ____
ROOT
ATOM      1  C   UNL A   1      -8.503 -10.545  18.444  0.00  0.00    +0.006 A 
ATOM      2  C   UNL A   1      -9.472 -10.145  18.331  0.00  0.00    +0.068 A 
ATOM      3  C   UNL A   1      -7.774 -10.168  19.666  0.00  0.00    +0.000 A 
ATOM      4  C   UNL A   1      -8.418  -9.418  20.692  0.00  0.00    +0.000 A 
ATOM      5  C   UNL A   1     -10.375  -9.404  19.252  0.00  0.00    +0.006 A 
ATOM      6  C   UNL A   1      -9.731  -9.028  20.393  0.00  0.00    +0.000 A 
ENDROOT
BRANCH   2   7
ATOM      7  C   UNL A   1     -10.302 -10.546  17.030  0.00  0.00    +0.333 C 
ATOM      8  O   UNL A   1     -11.408 -10.467  16.909  0.00  0.00    -0.254 OA
ATOM      9  F   UNL A   1      -9.547 -10.633  15.964  0.00  0.00    -0.159 F 
ENDBRANCH   2   7
TORSDOF 1
ENDMDL
ENDMDL
