REMARK  Name = outputs/IAG933/test6/raw/output_3220_IAG933_linker_design_.xyz
REMARK  14 active torsions:
REMARK  status: ('A' for Active; 'I' for Inactive)
REMARK    1  A    between atoms: C_1  and  C_2
REMARK    2  A    between atoms: C_1  and  C_8
REMARK    3  A    between atoms: C_9  and  N_35
REMARK    4  A    between atoms: C_13  and  C_36
REMARK    5  A    between atoms: C_14  and  C_15
REMARK    6  A    between atoms: C_21  and  O_22
REMARK    7  A    between atoms: O_22  and  C_23
REMARK    8  A    between atoms: C_23  and  C_24
REMARK    9  A    between atoms: C_28  and  O_29
REMARK   10  A    between atoms: C_28  and  C_36
REMARK   11  A    between atoms: C_30  and  C_32
REMARK   12  A    between atoms: C_30  and  N_35
REMARK   13  A    between atoms: C_32  and  C_41
REMARK   14  A    between atoms: C_36  and  N_38
REMARK                            x       y       z     vdW  Elec       q    Type
REMARK                         _______ _______ _______ _____ _____    ______ ____
ROOT
ATOM      1  C   UNL A   1     -24.719   1.318  27.517  0.00  0.00    +0.164 C 
ENDROOT
BRANCH   1   2
ATOM      2  C   UNL A   1     -25.688   1.614  26.461  0.00  0.00    +0.098 C 
ATOM      3  C   UNL A   1     -26.250   2.920  26.395  0.00  0.00    +0.057 C 
ATOM      4  C   UNL A   1     -27.438   3.091  25.645  0.00  0.00    +0.102 C 
ATOM      5  N   UNL A   1     -28.075   2.089  25.003  0.00  0.00    -0.212 NA
ATOM      6  C   UNL A   1     -27.543   0.849  25.079  0.00  0.00    +0.234 C 
ATOM      7  C   UNL A   1     -26.354   0.576  25.777  0.00  0.00    +0.242 C 
ATOM      8  F   UNL A   1     -25.860  -0.681  25.795  0.00  0.00    -0.227 F 
BRANCH   3   9
ATOM      9  C   UNL A   1     -25.642   4.093  27.123  0.00  0.00    +0.263 C 
ATOM     10  N   UNL A   1     -25.614   5.252  26.449  0.00  0.00    -0.200 NA
ATOM     11  C   UNL A   1     -25.026   6.479  26.963  0.00  0.00    +0.139 C 
ATOM     12  O   UNL A   1     -25.143   3.966  28.243  0.00  0.00    -0.269 OA
ENDBRANCH   3   9
BRANCH   6  13
ATOM     13  O   UNL A   1     -28.193  -0.208  24.477  0.00  0.00    -0.459 OA
BRANCH  13  14
ATOM     14  C   UNL A   1     -29.460   0.005  23.866  0.00  0.00    +0.242 C 
BRANCH  14  15
ATOM     15  C   UNL A   1     -30.065  -1.377  23.573  0.00  0.00    +0.229 C 
ATOM     16  O   UNL A   1     -30.729  -1.878  24.721  0.00  0.00    -0.216 OA
ENDBRANCH  14  15
ENDBRANCH  13  14
ENDBRANCH   6  13
ENDBRANCH   1   2
BRANCH   1  17
ATOM     17  C   UNL A   1     -23.319   1.628  27.274  0.00  0.00    +0.181 C 
ATOM     18  N   UNL A   1     -22.470   0.965  29.384  0.00  0.00    -0.093 NA
ATOM     19  C   UNL A   1     -22.145   1.377  28.077  0.00  0.00    +0.259 C 
ATOM     20  F   UNL A   1     -21.047   1.583  27.753  0.00  0.00    -0.182 F 
BRANCH  17  21
ATOM     21  O   UNL A   1     -23.198   2.360  25.990  0.00  0.00    -0.470 OA
ATOM     22  C   UNL A   1     -21.999   2.531  25.253  0.00  0.00    +0.252 C 
ENDBRANCH  17  21
ENDBRANCH   1  17
BRANCH   1  26
ATOM     23  O   UNL A   1     -27.168   1.821  30.507  0.00  0.00    -0.251 OA
ATOM     24  C   UNL A   1     -26.118   1.929  30.294  0.00  0.00    +0.324 C 
ATOM     25  N   UNL A   1     -25.617   1.997  31.605  0.00  0.00    -0.263 N 
ATOM     26  N   UNL A   1     -25.240   1.508  29.105  0.00  0.00    -0.182 NA
BRANCH  25  28
ATOM     27  C   UNL A   1     -25.387  -0.679  31.571  0.00  0.00    +0.095 C 
ATOM     28  C   UNL A   1     -25.189   0.773  32.028  0.00  0.00    +0.095 C 
ATOM     29  C   UNL A   1     -25.336   0.684  33.544  0.00  0.00    +0.040 C 
ATOM     30  C   UNL A   1     -24.829  -0.715  33.905  0.00  0.00    +0.090 C 
ATOM     31  N   UNL A   1     -24.758  -1.481  32.646  0.00  0.00    -0.217 NA
BRANCH  27  32
ATOM     32  C   UNL A   1     -24.855  -1.012  30.143  0.00  0.00    +0.045 C 
BRANCH  32  33
ATOM     33  C   UNL A   1     -24.973  -2.505  29.788  0.00  0.00    -0.021 C 
ATOM     34  C   UNL A   1     -23.906  -3.173  29.146  0.00  0.00    -0.004 C 
ATOM     35  C   UNL A   1     -23.989  -4.549  28.853  0.00  0.00    -0.000 C 
ATOM     36  C   UNL A   1     -25.137  -5.280  29.205  0.00  0.00    -0.000 C 
ATOM     37  C   UNL A   1     -26.232  -4.611  29.784  0.00  0.00    -0.000 C 
ATOM     38  C   UNL A   1     -26.155  -3.232  30.065  0.00  0.00    -0.004 C 
ENDBRANCH  32  33
ENDBRANCH  27  32
ENDBRANCH  25  28
BRANCH  25  39
ATOM     39  C   UNL A   1     -25.115   3.285  32.059  0.00  0.00    +0.103 C 
BRANCH  39  40
ATOM     40  C   UNL A   1     -25.303   4.368  33.135  0.00  0.00    +0.094 C 
BRANCH  40  42
ATOM     41  O   UNL A   1     -27.578   4.717  32.599  0.00  0.00    -0.288 OA
ATOM     42  C   UNL A   1     -26.675   4.627  33.439  0.00  0.00    +0.209 C 
ENDBRANCH  40  42
ENDBRANCH  39  40
ENDBRANCH  25  39
ENDBRANCH   1  26
TORSDOF 14
