MODEL 3221
MODEL 1
REMARK VINA RESULT:    -4.483      0.000      0.000
REMARK INTER + INTRA:          -4.483
REMARK INTER:                  -4.483
REMARK INTRA:                   0.000
REMARK UNBOUND:                 0.000
REMARK  Name = No_3221-gen_results/8p0m/2024-11-27-11-27-31/
REMARK  0 active torsions:
REMARK  status: ('A' for Active; 'I' for Inactive)
REMARK                            x       y       z     vdW  Elec       q    Type
REMARK                         _______ _______ _______ _____ _____    ______ ____
ROOT
ATOM      1  C   UNL A   1      -8.212  -9.928  19.669  0.00  0.00    +0.058 A 
ATOM      2  C   UNL A   1      -9.232  -9.316  19.887  0.00  0.00    +0.011 A 
ATOM      3  C   UNL A   1     -10.303  -9.281  19.017  0.00  0.00    +0.001 A 
ATOM      4  C   UNL A   1     -10.212 -10.041  17.817  0.00  0.00    +0.000 A 
ATOM      5  C   UNL A   1      -9.127 -10.841  17.699  0.00  0.00    +0.001 A 
ATOM      6  C   UNL A   1      -8.167 -10.840  18.604  0.00  0.00    +0.011 A 
ATOM      7 CL   UNL A   1      -6.933  -9.735  20.870  0.00  0.00    -0.082 Cl
ENDROOT
TORSDOF 0
ENDMDL
ENDMDL
