REMARK  Name = outputs/IAG933/test6/raw/output_3222_IAG933_linker_design_.xyz
REMARK  15 active torsions:
REMARK  status: ('A' for Active; 'I' for Inactive)
REMARK    1  A    between atoms: C_1  and  C_2
REMARK    2  A    between atoms: C_1  and  C_8
REMARK    3  A    between atoms: C_1  and  O_29
REMARK    4  A    between atoms: C_14  and  C_15
REMARK    5  A    between atoms: C_15  and  O_18
REMARK    6  A    between atoms: O_18  and  C_35
REMARK    7  A    between atoms: C_21  and  O_22
REMARK    8  A    between atoms: O_22  and  C_23
REMARK    9  A    between atoms: C_23  and  C_24
REMARK   10  A    between atoms: C_28  and  C_30
REMARK   11  A    between atoms: C_28  and  C_35
REMARK   12  A    between atoms: O_29  and  C_42
REMARK   13  A    between atoms: C_30  and  N_38
REMARK   14  A    between atoms: C_30  and  C_42
REMARK   15  A    between atoms: C_35  and  C_37
REMARK                            x       y       z     vdW  Elec       q    Type
REMARK                         _______ _______ _______ _____ _____    ______ ____
ROOT
ATOM      1  C   UNL A   1     -25.292   3.074  29.237  0.00  0.00    +0.172 C 
ENDROOT
BRANCH   1   6
ATOM      2  O   UNL A   1     -27.286   5.731  29.962  0.00  0.00    -0.354 OA
ATOM      3  C   UNL A   1     -26.826   6.354  31.201  0.00  0.00    +0.142 C 
ATOM      4  C   UNL A   1     -25.248   4.696  32.260  0.00  0.00    +0.003 C 
ATOM      5  C   UNL A   1     -25.899   3.484  31.562  0.00  0.00    +0.006 C 
ATOM      6  C   UNL A   1     -26.189   3.596  30.276  0.00  0.00    +0.070 C 
ATOM      7  C   UNL A   1     -25.329   5.970  31.371  0.00  0.00    +0.032 C 
ATOM      8  C   UNL A   1     -27.494   4.326  29.892  0.00  0.00    +0.146 C 
ENDBRANCH   1   6
BRANCH   1   9
ATOM      9  O   UNL A   1     -25.143   3.966  28.243  0.00  0.00    -0.464 OA
BRANCH   9  10
ATOM     10  C   UNL A   1     -25.642   4.093  27.123  0.00  0.00    +0.222 C 
ATOM     11  N   UNL A   1     -25.614   5.252  26.449  0.00  0.00    -0.236 NA
ATOM     12  C   UNL A   1     -25.026   6.479  26.963  0.00  0.00    +0.155 C 
BRANCH  10  14
ATOM     13  C   UNL A   1     -25.688   1.614  26.461  0.00  0.00    +0.041 C 
ATOM     14  C   UNL A   1     -26.250   2.920  26.395  0.00  0.00    +0.074 C 
ATOM     15  C   UNL A   1     -27.438   3.091  25.645  0.00  0.00    +0.107 C 
ATOM     16  N   UNL A   1     -28.075   2.089  25.003  0.00  0.00    -0.208 NA
ATOM     17  C   UNL A   1     -27.543   0.849  25.079  0.00  0.00    +0.253 C 
ATOM     18  C   UNL A   1     -26.354   0.576  25.777  0.00  0.00    +0.193 C 
ATOM     19  F   UNL A   1     -25.860  -0.681  25.795  0.00  0.00    -0.199 F 
BRANCH  17  20
ATOM     20  O   UNL A   1     -28.193  -0.208  24.477  0.00  0.00    -0.456 OA
BRANCH  20  21
ATOM     21  C   UNL A   1     -29.460   0.005  23.866  0.00  0.00    +0.243 C 
BRANCH  21  22
ATOM     22  C   UNL A   1     -30.065  -1.377  23.573  0.00  0.00    +0.229 C 
ATOM     23  O   UNL A   1     -30.729  -1.878  24.721  0.00  0.00    -0.216 OA
ENDBRANCH  21  22
ENDBRANCH  20  21
ENDBRANCH  17  20
ENDBRANCH  10  14
ENDBRANCH   9  10
ENDBRANCH   1   9
BRANCH   1  24
ATOM     24  C   UNL A   1     -24.335   1.978  29.423  0.00  0.00    +0.068 C 
BRANCH  24  25
ATOM     25  C   UNL A   1     -23.124   1.453  29.188  0.00  0.00    +0.130 C 
BRANCH  25  27
ATOM     26 CL   UNL A   1     -22.130   2.381  25.424  0.00  0.00    -0.021 Cl
ATOM     27  N   UNL A   1     -22.775   2.067  28.018  0.00  0.00    -0.191 NA
ATOM     28  O   UNL A   1     -20.962   0.968  27.202  0.00  0.00    -0.255 OA
ATOM     29  C   UNL A   1     -21.997   1.699  26.997  0.00  0.00    +0.326 C 
ENDBRANCH  25  27
BRANCH  25  30
ATOM     30  C   UNL A   1     -22.741  -0.057  29.256  0.00  0.00    +0.164 C 
BRANCH  30  31
ATOM     31  O   UNL A   1     -23.501  -0.655  30.371  0.00  0.00    -0.349 OA
BRANCH  31  32
ATOM     32  C   UNL A   1     -24.855  -1.012  30.143  0.00  0.00    +0.153 C 
BRANCH  32  33
ATOM     33  C   UNL A   1     -24.973  -2.505  29.788  0.00  0.00    +0.006 C 
ATOM     34  C   UNL A   1     -23.906  -3.173  29.146  0.00  0.00    -0.002 C 
ATOM     35  C   UNL A   1     -23.989  -4.549  28.853  0.00  0.00    -0.000 C 
ATOM     36  C   UNL A   1     -25.137  -5.280  29.205  0.00  0.00    -0.000 C 
ATOM     37  C   UNL A   1     -26.232  -4.611  29.784  0.00  0.00    -0.000 C 
ATOM     38  C   UNL A   1     -26.155  -3.232  30.065  0.00  0.00    -0.002 C 
ENDBRANCH  32  33
BRANCH  32  39
ATOM     39  C   UNL A   1     -25.387  -0.679  31.571  0.00  0.00    +0.104 C 
ATOM     40  C   UNL A   1     -25.189   0.773  32.028  0.00  0.00    +0.022 C 
ATOM     41  C   UNL A   1     -25.336   0.684  33.544  0.00  0.00    +0.020 C 
ATOM     42  C   UNL A   1     -24.829  -0.715  33.905  0.00  0.00    +0.089 C 
ATOM     43  N   UNL A   1     -24.758  -1.481  32.646  0.00  0.00    -0.217 NA
ENDBRANCH  32  39
ENDBRANCH  31  32
ENDBRANCH  30  31
ENDBRANCH  25  30
ENDBRANCH  24  25
ENDBRANCH   1  24
TORSDOF 15
