MODEL 3222
MODEL 1
REMARK VINA RESULT:    -5.009      0.000      0.000
REMARK INTER + INTRA:          -5.009
REMARK INTER:                  -5.009
REMARK INTRA:                   0.000
REMARK UNBOUND:                 0.000
REMARK  Name = No_3222-gen_results/8p0m/2024-11-27-11-27-31/
REMARK  0 active torsions:
REMARK  status: ('A' for Active; 'I' for Inactive)
REMARK                            x       y       z     vdW  Elec       q    Type
REMARK                         _______ _______ _______ _____ _____    ______ ____
ROOT
ATOM      1  C   UNL A   1     -10.536  -9.315  19.200  0.00  0.00    +0.042 A 
ATOM      2  C   UNL A   1      -9.792  -9.088  20.126  0.00  0.00    +0.003 A 
ATOM      3  C   UNL A   1      -8.479  -9.544  20.120  0.00  0.00    +0.000 A 
ATOM      4  C   UNL A   1      -7.976 -10.341  19.031  0.00  0.00    +0.003 A 
ATOM      5  C   UNL A   1      -8.910 -10.576  18.014  0.00  0.00    +0.042 A 
ATOM      6  C   UNL A   1     -10.146 -10.136  18.075  0.00  0.00    +0.196 A 
ATOM      7  O   UNL A   1     -11.002 -10.441  17.061  0.00  0.00    -0.287 OA
ENDROOT
TORSDOF 0
ENDMDL
ENDMDL
