MODEL 3225
MODEL 1
REMARK VINA RESULT:    -4.288      0.000      0.000
REMARK INTER + INTRA:          -4.288
REMARK INTER:                  -4.288
REMARK INTRA:                   0.000
REMARK UNBOUND:                 0.000
REMARK  Name = No_3225-gen_results/8p0m/2024-11-27-11-27-31/
REMARK  0 active torsions:
REMARK  status: ('A' for Active; 'I' for Inactive)
REMARK                            x       y       z     vdW  Elec       q    Type
REMARK                         _______ _______ _______ _____ _____    ______ ____
ROOT
ATOM      1  C   UNL A   1     -24.955  -5.372  28.973  0.00  0.00    +0.000 A 
ATOM      2  C   UNL A   1     -24.196  -4.681  28.734  0.00  0.00    +0.000 A 
ATOM      3  C   UNL A   1     -26.130  -4.760  29.591  0.00  0.00    +0.000 A 
ATOM      4  C   UNL A   1     -26.219  -3.407  29.810  0.00  0.00    +0.000 A 
ATOM      5  C   UNL A   1     -24.018  -3.233  28.842  0.00  0.00    +0.000 A 
ATOM      6  C   UNL A   1     -25.151  -2.631  29.439  0.00  0.00    +0.000 A 
ENDROOT
TORSDOF 0
ENDMDL
ENDMDL
