REMARK  Name = outputs/IAG933/test6/raw/output_3225_IAG933_linker_design_.xyz
REMARK  9 active torsions:
REMARK  status: ('A' for Active; 'I' for Inactive)
REMARK    1  A    between atoms: C_1  and  C_2
REMARK    2  A    between atoms: C_1  and  C_8
REMARK    3  A    between atoms: C_1  and  C_43
REMARK    4  A    between atoms: C_13  and  C_44
REMARK    5  A    between atoms: C_14  and  C_15
REMARK    6  A    between atoms: C_21  and  O_22
REMARK    7  A    between atoms: O_22  and  C_23
REMARK    8  A    between atoms: C_23  and  C_24
REMARK    9  A    between atoms: C_35  and  N_40
REMARK                            x       y       z     vdW  Elec       q    Type
REMARK                         _______ _______ _______ _____ _____    ______ ____
ROOT
ATOM      1 CL   UNL A   1     -22.920   2.188  25.337  0.00  0.00    -0.080 Cl
ATOM      2  F   UNL A   1     -21.088   1.570  27.701  0.00  0.00    -0.201 F 
ATOM      3  C   UNL A   1     -23.406   1.524  26.858  0.00  0.00    +0.089 A 
ATOM      4  C   UNL A   1     -22.812   0.279  28.922  0.00  0.00    +0.166 A 
ATOM      5  C   UNL A   1     -22.405   1.106  27.819  0.00  0.00    +0.178 A 
ATOM      6  C   UNL A   1     -25.111   0.794  28.448  0.00  0.00    +0.084 A 
ATOM      7  F   UNL A   1     -21.863  -0.174  29.751  0.00  0.00    -0.202 F 
ATOM      8  C   UNL A   1     -24.241  -0.045  29.214  0.00  0.00    +0.030 A 
ATOM      9  C   UNL A   1     -24.763   1.248  27.331  0.00  0.00    +0.033 A 
ENDROOT
BRANCH   6  15
ATOM     10  C   UNL A   1     -29.859   1.696  29.203  0.00  0.00    +0.134 C 
ATOM     11  C   UNL A   1     -29.343   0.284  31.011  0.00  0.00    +0.114 C 
ATOM     12  C   UNL A   1     -27.806  -0.341  29.164  0.00  0.00    +0.089 C 
ATOM     13  N   UNL A   1     -29.189   1.536  30.406  0.00  0.00    -0.118 NA
ATOM     14  O   UNL A   1     -28.069   1.853  29.902  0.00  0.00    -0.387 OA
ATOM     15  N   UNL A   1     -26.132   1.232  29.129  0.00  0.00    -0.214 NA
ATOM     16  C   UNL A   1     -27.296   0.867  29.394  0.00  0.00    +0.225 C 
ATOM     17  C   UNL A   1     -28.878  -0.869  30.061  0.00  0.00    +0.031 C 
ENDBRANCH   6  15
BRANCH   9  18
ATOM     18  C   UNL A   1     -25.688   1.614  26.461  0.00  0.00    +0.040 C 
ATOM     19  C   UNL A   1     -26.250   2.920  26.395  0.00  0.00    +0.077 C 
ATOM     20  C   UNL A   1     -27.438   3.091  25.645  0.00  0.00    +0.107 C 
ATOM     21  N   UNL A   1     -28.075   2.089  25.003  0.00  0.00    -0.208 NA
ATOM     22  C   UNL A   1     -27.543   0.849  25.079  0.00  0.00    +0.253 C 
ATOM     23  C   UNL A   1     -26.354   0.576  25.777  0.00  0.00    +0.193 C 
ATOM     24  F   UNL A   1     -25.860  -0.681  25.795  0.00  0.00    -0.199 F 
BRANCH  19  25
ATOM     25  C   UNL A   1     -25.642   4.093  27.123  0.00  0.00    +0.266 C 
ATOM     26  N   UNL A   1     -25.614   5.252  26.449  0.00  0.00    -0.200 NA
ATOM     27  C   UNL A   1     -25.026   6.479  26.963  0.00  0.00    +0.139 C 
ATOM     28  O   UNL A   1     -25.143   3.966  28.243  0.00  0.00    -0.268 OA
ENDBRANCH  19  25
BRANCH  22  29
ATOM     29  O   UNL A   1     -28.193  -0.208  24.477  0.00  0.00    -0.456 OA
BRANCH  29  30
ATOM     30  C   UNL A   1     -29.460   0.005  23.866  0.00  0.00    +0.243 C 
BRANCH  30  31
ATOM     31  C   UNL A   1     -30.065  -1.377  23.573  0.00  0.00    +0.229 C 
ATOM     32  O   UNL A   1     -30.729  -1.878  24.721  0.00  0.00    -0.216 OA
ENDBRANCH  30  31
ENDBRANCH  29  30
ENDBRANCH  22  29
ENDBRANCH   9  18
BRANCH   8  33
ATOM     33  C   UNL A   1     -24.855  -1.012  30.143  0.00  0.00    +0.064 C 
BRANCH  33  34
ATOM     34  C   UNL A   1     -24.973  -2.505  29.788  0.00  0.00    -0.017 C 
ATOM     35  C   UNL A   1     -23.906  -3.173  29.146  0.00  0.00    -0.004 C 
ATOM     36  C   UNL A   1     -23.989  -4.549  28.853  0.00  0.00    -0.000 C 
ATOM     37  C   UNL A   1     -25.137  -5.280  29.205  0.00  0.00    -0.000 C 
ATOM     38  C   UNL A   1     -26.232  -4.611  29.784  0.00  0.00    -0.000 C 
ATOM     39  C   UNL A   1     -26.155  -3.232  30.065  0.00  0.00    -0.004 C 
ENDBRANCH  33  34
BRANCH  33  40
ATOM     40  C   UNL A   1     -25.387  -0.679  31.571  0.00  0.00    +0.081 C 
ATOM     41  C   UNL A   1     -25.189   0.773  32.028  0.00  0.00    +0.019 C 
ATOM     42  C   UNL A   1     -25.336   0.684  33.544  0.00  0.00    +0.020 C 
ATOM     43  C   UNL A   1     -24.829  -0.715  33.905  0.00  0.00    +0.089 C 
ATOM     44  N   UNL A   1     -24.758  -1.481  32.646  0.00  0.00    -0.219 NA
ENDBRANCH  33  40
ENDBRANCH   8  33
TORSDOF 9
