REMARK  Name = No_3227-gen_results/8p0m/2024-11-27-11-27-31/
REMARK  0 active torsions:
REMARK  status: ('A' for Active; 'I' for Inactive)
REMARK                            x       y       z     vdW  Elec       q    Type
REMARK                         _______ _______ _______ _____ _____    ______ ____
ROOT
ATOM      1 CL   UNL A   1     -28.149  -0.820  28.908  0.00  0.00    -0.076 Cl
ATOM      2  C   UNL A   1     -28.532  -0.047  29.773  0.00  0.00    +0.239 C 
ATOM      3  F   UNL A   1     -27.651   0.717  30.309  0.00  0.00    -0.219 F 
ATOM      4  C   UNL A   1     -29.867   0.115  30.229  0.00  0.00    +0.057 C 
ENDROOT
TORSDOF 0
