REMARK  Name = No_3228-gen_results/8p0m/2024-11-27-11-27-31/
REMARK  4 active torsions:
REMARK  status: ('A' for Active; 'I' for Inactive)
REMARK    1  A    between atoms: C_1  and  C_2
REMARK    2  A    between atoms: C_1  and  N_8
REMARK    3  A    between atoms: C_5  and  C_12
REMARK    4  A    between atoms: C_7  and  C_15
REMARK                            x       y       z     vdW  Elec       q    Type
REMARK                         _______ _______ _______ _____ _____    ______ ____
ROOT
ATOM      1  C   UNL A   1     -27.064  -0.119  28.608  0.00  0.00    -0.001 A 
ATOM      2  C   UNL A   1     -25.792  -0.430  29.076  0.00  0.00    -0.002 A 
ATOM      3  C   UNL A   1     -24.546   0.349  28.823  0.00  0.00    +0.008 A 
ATOM      4  C   UNL A   1     -24.659   1.420  27.888  0.00  0.00    +0.098 A 
ATOM      5  C   UNL A   1     -25.947   1.681  27.379  0.00  0.00    +0.008 A 
ATOM      6  C   UNL A   1     -27.044   0.974  27.687  0.00  0.00    -0.002 A 
ENDROOT
BRANCH   4   7
ATOM      7  C   UNL A   1     -23.453   2.161  27.591  0.00  0.00    +0.477 C 
ATOM      8  N   UNL A   1     -22.249   1.751  28.072  0.00  0.00    +0.205 NA
ATOM      9  N   UNL A   1     -23.483   3.021  26.568  0.00  0.00    +0.205 NA
ENDBRANCH   4   7
BRANCH   6  10
ATOM     10  C   UNL A   1     -28.332   1.341  27.084  0.00  0.00    -0.005 C 
ATOM     11  C   UNL A   1     -28.861   2.382  27.452  0.00  0.00    -0.026 C 
ATOM     12  C   UNL A   1     -30.144   2.836  26.869  0.00  0.00    +0.031 C 
ENDBRANCH   6  10
BRANCH   1  13
ATOM     13  C   UNL A   1     -28.016  -0.814  28.878  0.00  0.00    +0.144 C 
BRANCH  13  14
ATOM     14  N   UNL A   1     -28.664  -0.527  30.102  0.00  0.00    -0.171 NA
ATOM     15  C   UNL A   1     -29.665  -0.396  30.441  0.00  0.00    +0.410 C 
ATOM     16  F   UNL A   1     -30.550  -0.579  29.604  0.00  0.00    -0.142 F 
ATOM     17  O   UNL A   1     -30.194  -0.097  31.636  0.00  0.00    -0.234 OA
ENDBRANCH  13  14
ENDBRANCH   1  13
TORSDOF 4
