MODEL 3229
MODEL 1
REMARK VINA RESULT:    -6.029      0.000      0.000
REMARK INTER + INTRA:          -6.262
REMARK INTER:                  -6.733
REMARK INTRA:                   0.471
REMARK UNBOUND:                 0.471
REMARK  Name = No_3229-gen_results/8p0m/2024-11-27-11-27-31/
REMARK  2 active torsions:
REMARK  status: ('A' for Active; 'I' for Inactive)
REMARK    1  A    between atoms: C_1  and  N_14
REMARK    2  A    between atoms: C_2  and  N_7
REMARK                            x       y       z     vdW  Elec       q    Type
REMARK                         _______ _______ _______ _____ _____    ______ ____
ROOT
ATOM      1  C   UNL A   1     -25.900  -2.893  29.714  0.00  0.00    +0.079 A 
ATOM      2  C   UNL A   1     -25.022  -2.592  29.216  0.00  0.00    +0.070 A 
ATOM      3  C   UNL A   1     -26.200  -4.334  29.709  0.00  0.00    +0.017 A 
ATOM      4  C   UNL A   1     -25.264  -5.267  29.177  0.00  0.00    +0.001 A 
ATOM      5  C   UNL A   1     -23.873  -3.347  28.644  0.00  0.00    +0.016 A 
ATOM      6  C   UNL A   1     -24.119  -4.687  28.613  0.00  0.00    +0.001 A 
ENDROOT
BRANCH   2   7
ATOM      7  N   UNL A   1     -24.683  -1.133  29.215  0.00  0.00    -0.241 N 
ATOM      8  C   UNL A   1     -24.332  -0.397  28.298  0.00  0.00    +0.102 C 
ATOM      9  C   UNL A   1     -23.476   0.038  27.985  0.00  0.00    +0.045 C 
ATOM     10  C   UNL A   1     -22.324   0.062  28.954  0.00  0.00    +0.119 C 
ATOM     11  N   UNL A   1     -22.737  -0.143  30.206  0.00  0.00    -0.188 NA
ATOM     12  C   UNL A   1     -23.817  -1.002  30.327  0.00  0.00    +0.327 C 
ATOM     13  O   UNL A   1     -23.811  -1.891  31.211  0.00  0.00    -0.250 OA
ENDBRANCH   2   7
BRANCH   1  14
ATOM     14  N   UNL A   1     -27.099  -2.267  29.748  0.00  0.00    -0.234 NA
ATOM     15  C   UNL A   1     -27.787  -1.923  30.964  0.00  0.00    +0.136 C 
ENDBRANCH   1  14
TORSDOF 2
ENDMDL
ENDMDL
