REMARK  Name = No_3229-gen_results/8p0m/2024-11-27-11-27-31/
REMARK  2 active torsions:
REMARK  status: ('A' for Active; 'I' for Inactive)
REMARK    1  A    between atoms: C_1  and  N_14
REMARK    2  A    between atoms: C_2  and  N_7
REMARK                            x       y       z     vdW  Elec       q    Type
REMARK                         _______ _______ _______ _____ _____    ______ ____
ROOT
ATOM      1  C   UNL A   1     -28.016  -0.814  28.878  0.00  0.00    +0.079 A 
ATOM      2  C   UNL A   1     -28.469  -0.785  29.829  0.00  0.00    +0.070 A 
ATOM      3  C   UNL A   1     -26.546  -0.876  28.850  0.00  0.00    +0.017 A 
ATOM      4  C   UNL A   1     -25.804  -1.032  30.057  0.00  0.00    +0.001 A 
ATOM      5  C   UNL A   1     -27.944  -0.987  31.207  0.00  0.00    +0.016 A 
ATOM      6  C   UNL A   1     -26.582  -1.039  31.223  0.00  0.00    +0.001 A 
ENDROOT
BRANCH   2   7
ATOM      7  N   UNL A   1     -29.965  -0.735  29.890  0.00  0.00    -0.241 N 
ATOM      8  C   UNL A   1     -30.771  -1.535  30.355  0.00  0.00    +0.102 C 
ATOM      9  C   UNL A   1     -31.427  -2.216  29.998  0.00  0.00    +0.045 C 
ATOM     10  C   UNL A   1     -31.767  -2.139  28.534  0.00  0.00    +0.119 C 
ATOM     11  N   UNL A   1     -31.454  -0.947  28.023  0.00  0.00    -0.188 NA
ATOM     12  C   UNL A   1     -30.329  -0.357  28.575  0.00  0.00    +0.327 C 
ATOM     13  O   UNL A   1     -29.475   0.178  27.829  0.00  0.00    -0.250 OA
ENDBRANCH   2   7
BRANCH   1  14
ATOM     14  N   UNL A   1     -28.378  -0.148  27.758  0.00  0.00    -0.234 NA
ATOM     15  C   UNL A   1     -27.492   0.093  26.650  0.00  0.00    +0.136 C 
ENDBRANCH   1  14
TORSDOF 2
