REMARK  Name = No_323-gen_results/8p0m/2024-11-27-11-27-31/
REMARK  4 active torsions:
REMARK  status: ('A' for Active; 'I' for Inactive)
REMARK    1  A    between atoms: C_2  and  C_9
REMARK    2  A    between atoms: C_13  and  C_15
REMARK    3  A    between atoms: C_15  and  C_16
REMARK    4  A    between atoms: C_15  and  C_22
REMARK                            x       y       z     vdW  Elec       q    Type
REMARK                         _______ _______ _______ _____ _____    ______ ____
ROOT
ATOM      1  C   UNL A   1     -26.913   1.127  27.682  0.00  0.00    +0.002 A 
ATOM      2  C   UNL A   1     -26.309   1.141  26.591  0.00  0.00    +0.000 A 
ATOM      3  C   UNL A   1     -27.846   2.192  27.987  0.00  0.00    -0.004 A 
ATOM      4  C   UNL A   1     -26.267   1.984  25.602  0.00  0.00    -0.000 A 
ATOM      5  C   UNL A   1     -27.887   3.246  27.050  0.00  0.00    -0.014 A 
ATOM      6  C   UNL A   1     -27.116   3.193  25.877  0.00  0.00    -0.004 A 
ENDROOT
BRANCH   1   8
ATOM      7  C   UNL A   1     -28.016  -0.814  28.878  0.00  0.00    +0.014 A 
ATOM      8  C   UNL A   1     -27.064  -0.119  28.608  0.00  0.00    +0.028 A 
ATOM      9  C   UNL A   1     -25.765  -0.390  29.036  0.00  0.00    +0.140 A 
ATOM     10  C   UNL A   1     -25.530  -1.530  29.901  0.00  0.00    +0.030 A 
ATOM     11  C   UNL A   1     -26.689  -2.289  30.181  0.00  0.00    +0.014 A 
ATOM     12  C   UNL A   1     -27.873  -1.951  29.737  0.00  0.00    +0.058 A 
ATOM     13  F   UNL A   1     -24.699   0.360  28.775  0.00  0.00    -0.204 F 
ATOM     14 CL   UNL A   1     -29.230  -2.928  30.192  0.00  0.00    -0.082 Cl
ENDBRANCH   1   8
BRANCH   5  15
ATOM     15  C   UNL A   1     -28.692   4.459  27.273  0.00  0.00    +0.066 C 
BRANCH  15  16
ATOM     16  C   UNL A   1     -28.220   5.312  28.337  0.00  0.00    -0.018 A 
ATOM     17  C   UNL A   1     -27.136   5.101  29.112  0.00  0.00    -0.004 A 
ATOM     18  C   UNL A   1     -26.649   6.070  29.882  0.00  0.00    -0.000 A 
ATOM     19  C   UNL A   1     -27.260   7.272  30.030  0.00  0.00    -0.000 A 
ATOM     20  C   UNL A   1     -28.380   7.547  29.262  0.00  0.00    -0.004 A 
ATOM     21  C   UNL A   1     -28.829   6.588  28.369  0.00  0.00    -0.025 A 
ATOM     22  C   UNL A   1     -30.003   6.818  27.548  0.00  0.00    +0.031 C 
ENDBRANCH  15  16
BRANCH  15  23
ATOM     23  C   UNL A   1     -29.734   4.641  26.568  0.00  0.00    -0.014 A 
ATOM     24  C   UNL A   1     -30.472   5.800  26.667  0.00  0.00    -0.004 A 
ATOM     25  C   UNL A   1     -31.631   6.104  25.893  0.00  0.00    -0.000 A 
ATOM     26  C   UNL A   1     -32.150   5.039  25.149  0.00  0.00    -0.000 A 
ATOM     27  C   UNL A   1     -31.463   3.859  24.976  0.00  0.00    -0.000 A 
ATOM     28  C   UNL A   1     -30.309   3.698  25.701  0.00  0.00    -0.004 A 
ENDBRANCH  15  23
ENDBRANCH   5  15
TORSDOF 4
