MODEL 3230
MODEL 1
REMARK VINA RESULT:    -4.226      0.000      0.000
REMARK INTER + INTRA:          -5.798
REMARK INTER:                  -5.461
REMARK INTRA:                  -0.337
REMARK UNBOUND:                -0.337
REMARK  Name = No_3230-gen_results/8p0m/2024-11-27-11-27-31/
REMARK  5 active torsions:
REMARK  status: ('A' for Active; 'I' for Inactive)
REMARK    1  A    between atoms: C_1  and  C_2
REMARK    2  A    between atoms: C_1  and  C_5
REMARK    3  A    between atoms: C_2  and  C_4
REMARK    4  A    between atoms: C_5  and  C_7
REMARK    5  A    between atoms: C_7  and  C_8
REMARK                            x       y       z     vdW  Elec       q    Type
REMARK                         _______ _______ _______ _____ _____    ______ ____
ROOT
ATOM      1  C   UNL A   1     -24.708  -2.214  29.779  0.00  0.00    +0.040 C 
ENDROOT
BRANCH   1   2
ATOM      2  C   UNL A   1     -24.442  -3.246  29.207  0.00  0.00    +0.183 C 
ATOM      3  F   UNL A   1     -23.335  -3.408  28.627  0.00  0.00    -0.233 F 
BRANCH   2   4
ATOM      4  C   UNL A   1     -25.222  -4.484  29.251  0.00  0.00    +0.008 C 
ATOM      5  C   UNL A   1     -24.907  -5.546  28.957  0.00  0.00    -0.002 C 
ENDBRANCH   2   4
ENDBRANCH   1   2
BRANCH   1   6
ATOM      6  C   UNL A   1     -23.610  -1.469  30.355  0.00  0.00    +0.009 C 
BRANCH   6   7
ATOM      7  C   UNL A   1     -23.180  -0.320  29.567  0.00  0.00    +0.070 C 
BRANCH   7   8
ATOM      8  C   UNL A   1     -22.168  -0.246  29.128  0.00  0.00    +0.310 C 
ATOM      9  O   UNL A   1     -21.088  -1.098  28.918  0.00  0.00    -0.184 OA
ATOM     10  F   UNL A   1     -22.083   0.425  27.926  0.00  0.00    -0.201 F 
ENDBRANCH   7   8
ENDBRANCH   6   7
ENDBRANCH   1   6
TORSDOF 5
ENDMDL
ENDMDL
