REMARK  Name = outputs/IAG933/test6/raw/output_3231_IAG933_linker_design_.xyz
REMARK  9 active torsions:
REMARK  status: ('A' for Active; 'I' for Inactive)
REMARK    1  A    between atoms: C_1  and  C_2
REMARK    2  A    between atoms: C_1  and  C_8
REMARK    3  A    between atoms: C_1  and  N_29
REMARK    4  A    between atoms: C_13  and  N_39
REMARK    5  A    between atoms: C_14  and  C_15
REMARK    6  A    between atoms: C_21  and  O_22
REMARK    7  A    between atoms: O_22  and  C_23
REMARK    8  A    between atoms: C_23  and  C_24
REMARK    9  A    between atoms: C_28  and  C_42
REMARK                            x       y       z     vdW  Elec       q    Type
REMARK                         _______ _______ _______ _____ _____    ______ ____
ROOT
ATOM      1  C   UNL A   1     -28.409   0.108  29.166  0.00  0.00    +0.168 C 
ATOM      2  N   UNL A   1     -24.646   0.014  29.216  0.00  0.00    -0.243 NA
ATOM      3  N   UNL A   1     -26.554   1.602  29.300  0.00  0.00    -0.179 NA
ATOM      4  C   UNL A   1     -25.866   0.490  28.642  0.00  0.00    +0.178 C 
ATOM      5  C   UNL A   1     -29.078   0.005  30.638  0.00  0.00    +0.021 C 
ATOM      6 CL   UNL A   1     -22.985   2.431  25.908  0.00  0.00    -0.097 Cl
ATOM      7  C   UNL A   1     -23.400   1.614  27.331  0.00  0.00    +0.142 C 
ATOM      8  C   UNL A   1     -23.155   0.186  29.169  0.00  0.00    +0.078 C 
ATOM      9  O   UNL A   1     -28.648   2.515  29.279  0.00  0.00    -0.273 OA
ATOM     10  C   UNL A   1     -27.916   1.538  29.268  0.00  0.00    +0.253 C 
ATOM     11  N   UNL A   1     -24.851   1.261  27.479  0.00  0.00    -0.229 NA
ATOM     12  C   UNL A   1     -22.422   0.734  27.896  0.00  0.00    +0.046 C 
ATOM     13  C   UNL A   1     -21.081   0.984  27.560  0.00  0.00    +0.004 C 
ATOM     14  C   UNL A   1     -27.117  -0.593  28.605  0.00  0.00    +0.071 C 
ENDROOT
BRANCH  11  15
ATOM     15  C   UNL A   1     -25.688   1.614  26.461  0.00  0.00    +0.131 C 
ATOM     16  C   UNL A   1     -26.250   2.920  26.395  0.00  0.00    +0.070 C 
ATOM     17  C   UNL A   1     -27.438   3.091  25.645  0.00  0.00    +0.103 C 
ATOM     18  N   UNL A   1     -28.075   2.089  25.003  0.00  0.00    -0.212 NA
ATOM     19  C   UNL A   1     -27.543   0.849  25.079  0.00  0.00    +0.235 C 
ATOM     20  C   UNL A   1     -26.354   0.576  25.777  0.00  0.00    +0.255 C 
ATOM     21  F   UNL A   1     -25.860  -0.681  25.795  0.00  0.00    -0.225 F 
BRANCH  16  22
ATOM     22  C   UNL A   1     -25.642   4.093  27.123  0.00  0.00    +0.264 C 
ATOM     23  N   UNL A   1     -25.614   5.252  26.449  0.00  0.00    -0.200 NA
ATOM     24  C   UNL A   1     -25.026   6.479  26.963  0.00  0.00    +0.139 C 
ATOM     25  O   UNL A   1     -25.143   3.966  28.243  0.00  0.00    -0.269 OA
ENDBRANCH  16  22
BRANCH  19  26
ATOM     26  O   UNL A   1     -28.193  -0.208  24.477  0.00  0.00    -0.459 OA
BRANCH  26  27
ATOM     27  C   UNL A   1     -29.460   0.005  23.866  0.00  0.00    +0.242 C 
BRANCH  27  28
ATOM     28  C   UNL A   1     -30.065  -1.377  23.573  0.00  0.00    +0.229 C 
ATOM     29  O   UNL A   1     -30.729  -1.878  24.721  0.00  0.00    -0.216 OA
ENDBRANCH  27  28
ENDBRANCH  26  27
ENDBRANCH  19  26
ENDBRANCH  11  15
BRANCH   1  31
ATOM     30  O   UNL A   1     -29.820  -0.145  27.187  0.00  0.00    -0.245 OA
ATOM     31  C   UNL A   1     -29.621  -0.518  28.362  0.00  0.00    +0.372 C 
ATOM     32  O   UNL A   1     -30.497  -1.419  28.875  0.00  0.00    -0.245 OA
ENDBRANCH   1  31
BRANCH   2  33
ATOM     33  C   UNL A   1     -24.855  -1.012  30.143  0.00  0.00    +0.098 C 
BRANCH  33  34
ATOM     34  C   UNL A   1     -24.973  -2.505  29.788  0.00  0.00    -0.006 C 
ATOM     35  C   UNL A   1     -23.906  -3.173  29.146  0.00  0.00    -0.003 C 
ATOM     36  C   UNL A   1     -23.989  -4.549  28.853  0.00  0.00    -0.000 C 
ATOM     37  C   UNL A   1     -25.137  -5.280  29.205  0.00  0.00    -0.000 C 
ATOM     38  C   UNL A   1     -26.232  -4.611  29.784  0.00  0.00    -0.000 C 
ATOM     39  C   UNL A   1     -26.155  -3.232  30.065  0.00  0.00    -0.003 C 
ENDBRANCH  33  34
BRANCH  33  40
ATOM     40  C   UNL A   1     -25.387  -0.679  31.571  0.00  0.00    +0.092 C 
ATOM     41  C   UNL A   1     -25.189   0.773  32.028  0.00  0.00    +0.021 C 
ATOM     42  C   UNL A   1     -25.336   0.684  33.544  0.00  0.00    +0.020 C 
ATOM     43  C   UNL A   1     -24.829  -0.715  33.905  0.00  0.00    +0.089 C 
ATOM     44  N   UNL A   1     -24.758  -1.481  32.646  0.00  0.00    -0.218 NA
ENDBRANCH  33  40
ENDBRANCH   2  33
TORSDOF 9
