MODEL 3231
MODEL 1
REMARK VINA RESULT:    -9.136      0.000      0.000
REMARK INTER + INTRA:         -12.479
REMARK INTER:                 -11.272
REMARK INTRA:                  -1.207
REMARK UNBOUND:                -1.207
REMARK  Name = No_3231-gen_results/8p0m/2024-11-27-11-27-31/
REMARK  4 active torsions:
REMARK  status: ('A' for Active; 'I' for Inactive)
REMARK    1  A    between atoms: C_1  and  C_2
REMARK    2  A    between atoms: C_1  and  C_8
REMARK    3  A    between atoms: C_8  and  C_9
REMARK    4  A    between atoms: C_13  and  C_18
REMARK                            x       y       z     vdW  Elec       q    Type
REMARK                         _______ _______ _______ _____ _____    ______ ____
ROOT
ATOM      1  C   UNL A   1     -25.719   1.188  25.860  0.00  0.00    +0.188 C 
ATOM      2  F   UNL A   1     -25.437   2.486  25.667  0.00  0.00    -0.232 F 
ENDROOT
BRANCH   1   3
ATOM      3  C   UNL A   1     -25.083   0.623  26.620  0.00  0.00    +0.010 A 
ATOM      4  C   UNL A   1     -23.815   1.287  27.223  0.00  0.00    -0.002 A 
ATOM      5  C   UNL A   1     -23.004   0.660  28.196  0.00  0.00    -0.000 A 
ATOM      6  C   UNL A   1     -23.443  -0.660  28.572  0.00  0.00    -0.000 A 
ATOM      7  C   UNL A   1     -24.589  -1.258  28.102  0.00  0.00    -0.000 A 
ATOM      8  C   UNL A   1     -25.384  -0.624  27.227  0.00  0.00    -0.002 A 
BRANCH   7   9
ATOM      9  C   UNL A   1     -24.949  -2.607  28.694  0.00  0.00    -0.000 A 
ATOM     10  C   UNL A   1     -25.985  -2.777  29.340  0.00  0.00    -0.000 A 
ATOM     11  C   UNL A   1     -24.005  -3.658  28.459  0.00  0.00    -0.000 A 
ATOM     12  C   UNL A   1     -24.409  -4.981  28.884  0.00  0.00    -0.000 A 
ATOM     13  C   UNL A   1     -26.410  -4.062  29.855  0.00  0.00    -0.000 A 
ATOM     14  C   UNL A   1     -25.589  -5.164  29.596  0.00  0.00    +0.000 A 
ENDBRANCH   7   9
ENDBRANCH   1   3
BRANCH   1  15
ATOM     15  C   UNL A   1     -26.174   0.537  24.593  0.00  0.00    +0.066 C 
BRANCH  15  16
ATOM     16  C   UNL A   1     -27.332   0.720  24.297  0.00  0.00    -0.019 A 
ATOM     17  C   UNL A   1     -28.279  -0.284  24.255  0.00  0.00    +0.000 A 
ATOM     18  C   UNL A   1     -29.659  -0.129  23.832  0.00  0.00    +0.051 A 
ATOM     19  C   UNL A   1     -30.108   1.149  23.434  0.00  0.00    -0.016 A 
ATOM     20  C   UNL A   1     -29.126   2.203  23.460  0.00  0.00    -0.004 A 
ATOM     21  C   UNL A   1     -27.814   2.025  23.829  0.00  0.00    -0.004 A 
ATOM     22  C   UNL A   1     -31.418   1.398  22.874  0.00  0.00    +0.044 C 
ATOM     23  C   UNL A   1     -31.743   2.120  21.839  0.00  0.00    +0.006 C 
ATOM     24  C   UNL A   1     -32.125   0.002  22.821  0.00  0.00    +0.120 C 
ATOM     25  C   UNL A   1     -30.514  -1.218  23.770  0.00  0.00    +0.265 C 
ATOM     26  N   UNL A   1     -31.541  -1.073  23.300  0.00  0.00    -0.201 NA
ATOM     27  O   UNL A   1     -30.060  -2.230  24.406  0.00  0.00    -0.268 OA
ENDBRANCH  15  16
ENDBRANCH   1  15
TORSDOF 4
ENDMDL
ENDMDL
