MODEL 3232
MODEL 1
REMARK VINA RESULT:    -6.117      0.000      0.000
REMARK INTER + INTRA:          -7.559
REMARK INTER:                  -7.190
REMARK INTRA:                  -0.369
REMARK UNBOUND:                -0.369
REMARK  Name = No_3232-gen_results/8p0m/2024-11-27-11-27-31/
REMARK  3 active torsions:
REMARK  status: ('A' for Active; 'I' for Inactive)
REMARK    1  A    between atoms: C_3  and  C_7
REMARK    2  A    between atoms: C_8  and  C_9
REMARK    3  A    between atoms: C_10  and  C_11
REMARK                            x       y       z     vdW  Elec       q    Type
REMARK                         _______ _______ _______ _____ _____    ______ ____
ROOT
ATOM      1  C   UNL A   1     -26.406  -3.387  29.962  0.00  0.00    +0.000 A 
ATOM      2  C   UNL A   1     -25.508  -2.631  29.672  0.00  0.00    +0.000 A 
ATOM      3  C   UNL A   1     -24.358  -2.924  29.136  0.00  0.00    +0.000 A 
ATOM      4  C   UNL A   1     -24.080  -4.296  28.852  0.00  0.00    +0.000 A 
ATOM      5  C   UNL A   1     -25.095  -5.162  29.085  0.00  0.00    +0.000 A 
ATOM      6  C   UNL A   1     -26.292  -4.745  29.608  0.00  0.00    +0.000 A 
ENDROOT
BRANCH   3   7
ATOM      7  C   UNL A   1     -23.261  -1.934  28.874  0.00  0.00    +0.000 C 
ATOM      8  C   UNL A   1     -23.116  -0.895  29.088  0.00  0.00    +0.000 C 
BRANCH   8   9
ATOM      9  C   UNL A   1     -21.924  -0.002  28.852  0.00  0.00    +0.000 C 
ATOM     10  C   UNL A   1     -22.016   1.131  28.030  0.00  0.00    +0.000 C 
BRANCH  10  11
ATOM     11  C   UNL A   1     -23.121   1.206  27.084  0.00  0.00    +0.000 C 
ATOM     12  C   UNL A   1     -23.261   2.229  26.205  0.00  0.00    +0.000 C 
ENDBRANCH  10  11
ENDBRANCH   8   9
ENDBRANCH   3   7
TORSDOF 3
ENDMDL
ENDMDL
