MODEL 3233
MODEL 1
REMARK VINA RESULT:    -5.843      0.000      0.000
REMARK INTER + INTRA:          -6.340
REMARK INTER:                  -6.184
REMARK INTRA:                  -0.156
REMARK UNBOUND:                -0.156
REMARK  Name = No_3233-gen_results/8p0m/2024-11-27-11-27-31/
REMARK  1 active torsions:
REMARK  status: ('A' for Active; 'I' for Inactive)
REMARK    1  A    between atoms: C_1  and  C_2
REMARK                            x       y       z     vdW  Elec       q    Type
REMARK                         _______ _______ _______ _____ _____    ______ ____
ROOT
ATOM      1  C   UNL A   1     -24.008  -2.539  29.643  0.00  0.00    +0.233 C 
ATOM      2  N   UNL A   1     -25.363  -2.890  29.696  0.00  0.00    -0.206 NA
ATOM      3  C   UNL A   1     -25.990  -3.679  29.655  0.00  0.00    +0.081 C 
ATOM      4  C   UNL A   1     -25.444  -4.954  29.323  0.00  0.00    +0.023 C 
ATOM      5  C   UNL A   1     -24.274  -4.930  28.744  0.00  0.00    +0.172 C 
ATOM      6  O   UNL A   1     -23.541  -3.599  28.653  0.00  0.00    -0.328 OA
ENDROOT
BRANCH   1   7
ATOM      7  C   UNL A   1     -23.738  -1.504  29.080  0.00  0.00    +0.025 A 
ATOM      8  C   UNL A   1     -22.481  -0.923  29.207  0.00  0.00    -0.000 A 
ATOM      9  C   UNL A   1     -22.031   0.350  28.575  0.00  0.00    -0.000 A 
ATOM     10  C   UNL A   1     -22.933   0.933  27.636  0.00  0.00    -0.000 A 
ATOM     11  C   UNL A   1     -24.179   0.295  27.477  0.00  0.00    -0.000 A 
ATOM     12  C   UNL A   1     -24.547  -0.825  28.117  0.00  0.00    -0.000 A 
ENDBRANCH   1   7
TORSDOF 1
ENDMDL
ENDMDL
