MODEL 3235
MODEL 1
REMARK VINA RESULT:    -4.498      0.000      0.000
REMARK INTER + INTRA:          -4.498
REMARK INTER:                  -4.498
REMARK INTRA:                   0.000
REMARK UNBOUND:                 0.000
REMARK  Name = No_3235-gen_results/8p0m/2024-11-27-11-27-31/
REMARK  0 active torsions:
REMARK  status: ('A' for Active; 'I' for Inactive)
REMARK                            x       y       z     vdW  Elec       q    Type
REMARK                         _______ _______ _______ _____ _____    ______ ____
ROOT
ATOM      1 BR   UNL A   1     -22.570  -0.208  29.957  0.00  0.00    -0.047 Br
ATOM      2  C   UNL A   1     -23.711  -1.404  30.011  0.00  0.00    +0.062 A 
ATOM      3  C   UNL A   1     -23.524  -2.586  29.274  0.00  0.00    +0.008 A 
ATOM      4  C   UNL A   1     -24.521  -3.564  29.223  0.00  0.00    +0.018 A 
ATOM      5  C   UNL A   1     -25.771  -3.367  29.765  0.00  0.00    +0.194 A 
ATOM      6  C   UNL A   1     -25.978  -2.197  30.415  0.00  0.00    +0.072 A 
ATOM      7  C   UNL A   1     -25.059  -1.250  30.468  0.00  0.00    +0.149 A 
ATOM      8  O   UNL A   1     -26.715  -4.370  29.656  0.00  0.00    -0.287 OA
ATOM      9  F   UNL A   1     -25.321  -0.084  31.118  0.00  0.00    -0.203 F 
ATOM     10  C   UNL A   1     -24.232  -4.867  28.498  0.00  0.00    +0.034 C 
ENDROOT
TORSDOF 0
ENDMDL
ENDMDL
