MODEL 3236
MODEL 1
REMARK VINA RESULT:    -7.913      0.000      0.000
REMARK INTER + INTRA:         -13.179
REMARK INTER:                 -11.151
REMARK INTRA:                  -2.028
REMARK UNBOUND:                -2.028
REMARK  Name = No_3236-gen_results/8p0m/2024-11-27-11-27-31/
REMARK  7 active torsions:
REMARK  status: ('A' for Active; 'I' for Inactive)
REMARK    1  A    between atoms: C_3  and  C_4
REMARK    2  A    between atoms: C_6  and  O_25
REMARK    3  A    between atoms: C_10  and  C_13
REMARK    4  A    between atoms: C_16  and  C_17
REMARK    5  A    between atoms: O_25  and  C_26
REMARK    6  A    between atoms: C_28  and  C_32
REMARK    7  A    between atoms: C_33  and  C_34
REMARK                            x       y       z     vdW  Elec       q    Type
REMARK                         _______ _______ _______ _____ _____    ______ ____
ROOT
ATOM      1  C   UNL A   1     -27.211   2.118  25.066  0.00  0.00    +0.005 A 
ATOM      2  C   UNL A   1     -26.196   2.127  25.723  0.00  0.00    +0.000 A 
ATOM      3  C   UNL A   1     -25.348   1.027  25.846  0.00  0.00    +0.000 A 
ATOM      4  C   UNL A   1     -27.730   0.869  24.510  0.00  0.00    +0.056 A 
ATOM      5  C   UNL A   1     -26.940  -0.268  24.463  0.00  0.00    +0.005 A 
ATOM      6  C   UNL A   1     -25.724  -0.242  25.186  0.00  0.00    +0.000 A 
ENDROOT
BRANCH   3   7
ATOM      7  C   UNL A   1     -24.101   0.945  26.633  0.00  0.00    +0.003 A 
ATOM      8  C   UNL A   1     -24.019  -0.142  27.555  0.00  0.00    +0.037 A 
ATOM      9  C   UNL A   1     -22.887  -0.261  28.361  0.00  0.00    +0.145 A 
ATOM     10  C   UNL A   1     -21.941   0.772  28.351  0.00  0.00    +0.037 A 
ATOM     11  C   UNL A   1     -22.025   1.832  27.480  0.00  0.00    +0.003 A 
ATOM     12  C   UNL A   1     -23.155   1.928  26.638  0.00  0.00    +0.000 A 
BRANCH   9  13
ATOM     13  O   UNL A   1     -22.796  -1.260  29.243  0.00  0.00    -0.454 OA
BRANCH  13  14
ATOM     14  C   UNL A   1     -23.958  -2.134  29.264  0.00  0.00    +0.145 A 
ATOM     15  C   UNL A   1     -25.081  -1.600  29.871  0.00  0.00    +0.037 A 
ATOM     16  C   UNL A   1     -26.196  -2.350  30.125  0.00  0.00    +0.003 A 
ATOM     17  C   UNL A   1     -26.143  -3.681  29.676  0.00  0.00    +0.000 A 
ATOM     18  C   UNL A   1     -24.996  -4.237  29.116  0.00  0.00    +0.003 A 
ATOM     19  C   UNL A   1     -23.897  -3.428  28.939  0.00  0.00    +0.037 A 
BRANCH  16  20
ATOM     20  C   UNL A   1     -27.426  -1.786  30.646  0.00  0.00    +0.000 C 
ATOM     21  C   UNL A   1     -28.123  -1.068  30.287  0.00  0.00    +0.000 C 
BRANCH  21  22
ATOM     22  C   UNL A   1     -27.990  -0.364  28.897  0.00  0.00    +0.000 C 
ATOM     23  C   UNL A   1     -27.697   0.833  28.807  0.00  0.00    +0.000 C 
ENDBRANCH  21  22
ENDBRANCH  16  20
ENDBRANCH  13  14
ENDBRANCH   9  13
ENDBRANCH   3   7
BRANCH   4  24
ATOM     24  C   UNL A   1     -28.997   0.825  23.749  0.00  0.00    +0.272 C 
ATOM     25  O   UNL A   1     -29.361  -0.188  23.264  0.00  0.00    -0.268 OA
ATOM     26  N   UNL A   1     -29.658   1.997  23.518  0.00  0.00    -0.137 NA
ATOM     27  C   UNL A   1     -30.943   2.059  22.835  0.00  0.00    +0.272 C 
ATOM     28  O   UNL A   1     -30.946   2.731  21.769  0.00  0.00    -0.268 OA
BRANCH  27  29
ATOM     29  C   UNL A   1     -31.975   1.417  23.434  0.00  0.00    +0.056 A 
ATOM     30  C   UNL A   1     -32.774   0.663  22.644  0.00  0.00    +0.005 A 
ATOM     31  C   UNL A   1     -33.966   0.041  23.241  0.00  0.00    +0.007 A 
ATOM     32  C   UNL A   1     -34.279   0.308  24.612  0.00  0.00    +0.035 A 
ATOM     33  C   UNL A   1     -33.477   1.199  25.324  0.00  0.00    +0.007 A 
ATOM     34  C   UNL A   1     -32.391   1.786  24.764  0.00  0.00    +0.005 A 
ATOM     35 BR   UNL A   1     -35.746  -0.633  25.203  0.00  0.00    -0.049 Br
ENDBRANCH  27  29
ENDBRANCH   4  24
TORSDOF 7
ENDMDL
ENDMDL
