REMARK  Name = No_3237-gen_results/8p0m/2024-11-27-11-27-31/
REMARK  2 active torsions:
REMARK  status: ('A' for Active; 'I' for Inactive)
REMARK    1  A    between atoms: C_3  and  O_13
REMARK    2  A    between atoms: O_13  and  C_14
REMARK                            x       y       z     vdW  Elec       q    Type
REMARK                         _______ _______ _______ _____ _____    ______ ____
ROOT
ATOM      1 CL   UNL A   1     -28.149  -0.820  28.908  0.00  0.00    -0.079 Cl
ATOM      2  C   UNL A   1     -27.834   0.496  29.060  0.00  0.00    +0.092 A 
ATOM      3  C   UNL A   1     -27.514   1.238  28.049  0.00  0.00    +0.156 A 
ATOM      4  C   UNL A   1     -27.055   2.625  28.133  0.00  0.00    +0.035 A 
ATOM      5  C   UNL A   1     -26.944   3.184  29.430  0.00  0.00    +0.004 A 
ATOM      6  C   UNL A   1     -27.221   2.358  30.512  0.00  0.00    +0.001 A 
ATOM      7  C   UNL A   1     -27.599   1.059  30.370  0.00  0.00    +0.015 A 
ATOM      8  C   UNL A   1     -26.486   4.560  29.594  0.00  0.00    +0.011 A 
ATOM      9  C   UNL A   1     -25.872   5.168  28.624  0.00  0.00    +0.058 A 
ATOM     10  C   UNL A   1     -25.931   4.569  27.248  0.00  0.00    +0.011 A 
ATOM     11  C   UNL A   1     -26.400   3.341  27.095  0.00  0.00    +0.004 A 
ATOM     12 CL   UNL A   1     -25.278   6.817  28.683  0.00  0.00    -0.082 Cl
ENDROOT
BRANCH   3  13
ATOM     13  O   UNL A   1     -27.544   0.786  26.803  0.00  0.00    -0.450 OA
BRANCH  13  14
ATOM     14  C   UNL A   1     -28.598   0.812  25.970  0.00  0.00    +0.175 C 
ATOM     15  C   UNL A   1     -29.701   0.705  26.364  0.00  0.00    +0.015 C 
ATOM     16  C   UNL A   1     -30.613   0.897  25.934  0.00  0.00    +0.034 C 
ENDBRANCH  13  14
ENDBRANCH   3  13
TORSDOF 2
