REMARK  Name = No_3239-gen_results/8p0m/2024-11-27-11-27-31/
REMARK  4 active torsions:
REMARK  status: ('A' for Active; 'I' for Inactive)
REMARK    1  A    between atoms: C_1  and  C_2
REMARK    2  A    between atoms: C_1  and  N_8
REMARK    3  A    between atoms: C_5  and  C_11
REMARK    4  A    between atoms: N_8  and  C_9
REMARK                            x       y       z     vdW  Elec       q    Type
REMARK                         _______ _______ _______ _____ _____    ______ ____
ROOT
ATOM      1  C   UNL A   1     -27.064  -0.119  28.608  0.00  0.00    -0.001 A 
ATOM      2  C   UNL A   1     -25.792  -0.430  29.076  0.00  0.00    -0.003 A 
ATOM      3  C   UNL A   1     -24.546   0.349  28.823  0.00  0.00    +0.001 A 
ATOM      4  C   UNL A   1     -24.659   1.420  27.888  0.00  0.00    +0.021 A 
ATOM      5  C   UNL A   1     -25.947   1.681  27.379  0.00  0.00    +0.001 A 
ATOM      6  C   UNL A   1     -27.044   0.974  27.687  0.00  0.00    -0.003 A 
ENDROOT
BRANCH   4   7
ATOM      7  C   UNL A   1     -23.451   2.151  27.604  0.00  0.00    +0.122 C 
ATOM      8  N   UNL A   1     -22.253   1.740  28.108  0.00  0.00    -0.146 NA
ENDBRANCH   4   7
BRANCH   1   9
ATOM      9  C   UNL A   1     -28.016  -0.814  28.878  0.00  0.00    +0.139 C 
BRANCH   9  10
ATOM     10  N   UNL A   1     -28.664  -0.527  30.102  0.00  0.00    -0.232 NA
BRANCH  10  11
ATOM     11  C   UNL A   1     -29.615  -1.247  30.654  0.00  0.00    +0.081 C 
ATOM     12  C   UNL A   1     -30.134  -2.284  30.019  0.00  0.00    +0.019 C 
ENDBRANCH  10  11
ENDBRANCH   9  10
ENDBRANCH   1   9
TORSDOF 4
