MODEL 3239
MODEL 1
REMARK VINA RESULT:    -4.821      0.000      0.000
REMARK INTER + INTRA:          -6.204
REMARK INTER:                  -5.949
REMARK INTRA:                  -0.255
REMARK UNBOUND:                -0.255
REMARK  Name = No_3239-gen_results/8p0m/2024-11-27-11-27-31/
REMARK  4 active torsions:
REMARK  status: ('A' for Active; 'I' for Inactive)
REMARK    1  A    between atoms: C_1  and  C_2
REMARK    2  A    between atoms: C_1  and  N_8
REMARK    3  A    between atoms: C_5  and  C_11
REMARK    4  A    between atoms: N_8  and  C_9
REMARK                            x       y       z     vdW  Elec       q    Type
REMARK                         _______ _______ _______ _____ _____    ______ ____
ROOT
ATOM      1  C   UNL A   1     -23.705  -1.656  29.054  0.00  0.00    -0.001 A 
ATOM      2  C   UNL A   1     -24.561  -1.018  28.163  0.00  0.00    -0.003 A 
ATOM      3  C   UNL A   1     -24.245   0.193  27.352  0.00  0.00    +0.001 A 
ATOM      4  C   UNL A   1     -23.004   0.832  27.643  0.00  0.00    +0.021 A 
ATOM      5  C   UNL A   1     -22.176   0.202  28.594  0.00  0.00    +0.001 A 
ATOM      6  C   UNL A   1     -22.495  -0.921  29.255  0.00  0.00    -0.003 A 
ENDROOT
BRANCH   4   7
ATOM      7  C   UNL A   1     -22.710   2.028  26.896  0.00  0.00    +0.122 C 
ATOM      8  N   UNL A   1     -23.402   2.328  25.761  0.00  0.00    -0.146 NA
ENDBRANCH   4   7
BRANCH   1   9
ATOM      9  C   UNL A   1     -24.055  -2.642  29.660  0.00  0.00    +0.139 C 
BRANCH   9  10
ATOM     10  N   UNL A   1     -25.333  -3.149  29.329  0.00  0.00    -0.232 NA
BRANCH  10  11
ATOM     11  C   UNL A   1     -25.695  -4.412  29.383  0.00  0.00    +0.081 C 
ATOM     12  C   UNL A   1     -24.855  -5.372  29.037  0.00  0.00    +0.019 C 
ENDBRANCH  10  11
ENDBRANCH   9  10
ENDBRANCH   1   9
TORSDOF 4
ENDMDL
ENDMDL
