MODEL 323
MODEL 1
REMARK VINA RESULT:    -9.228      0.000      0.000
REMARK INTER + INTRA:         -13.031
REMARK INTER:                 -11.386
REMARK INTRA:                  -1.644
REMARK UNBOUND:                -1.644
REMARK  Name = No_323-gen_results/8p0m/2024-11-27-11-27-31/
REMARK  4 active torsions:
REMARK  status: ('A' for Active; 'I' for Inactive)
REMARK    1  A    between atoms: C_2  and  C_9
REMARK    2  A    between atoms: C_13  and  C_15
REMARK    3  A    between atoms: C_15  and  C_16
REMARK    4  A    between atoms: C_15  and  C_22
REMARK                            x       y       z     vdW  Elec       q    Type
REMARK                         _______ _______ _______ _____ _____    ______ ____
ROOT
ATOM      1  C   UNL A   1     -25.014   0.837  26.640  0.00  0.00    +0.002 A 
ATOM      2  C   UNL A   1     -23.873   1.342  26.640  0.00  0.00    +0.000 A 
ATOM      3  C   UNL A   1     -25.401  -0.032  27.733  0.00  0.00    -0.004 A 
ATOM      4  C   UNL A   1     -22.840   1.219  27.419  0.00  0.00    -0.000 A 
ATOM      5  C   UNL A   1     -24.377  -0.339  28.653  0.00  0.00    -0.014 A 
ATOM      6  C   UNL A   1     -23.103   0.237  28.526  0.00  0.00    -0.004 A 
ENDROOT
BRANCH   1   8
ATOM      7  C   UNL A   1     -26.868   2.357  25.824  0.00  0.00    +0.014 A 
ATOM      8  C   UNL A   1     -26.217   1.338  25.784  0.00  0.00    +0.028 A 
ATOM      9  C   UNL A   1     -26.368   0.364  24.798  0.00  0.00    +0.140 A 
ATOM     10  C   UNL A   1     -27.395   0.535  23.788  0.00  0.00    +0.030 A 
ATOM     11  C   UNL A   1     -28.121   1.742  23.903  0.00  0.00    +0.014 A 
ATOM     12  C   UNL A   1     -27.911   2.597  24.872  0.00  0.00    +0.058 A 
ATOM     13  F   UNL A   1     -25.685  -0.774  24.733  0.00  0.00    -0.204 F 
ATOM     14 CL   UNL A   1     -28.901   4.018  24.943  0.00  0.00    -0.082 Cl
ENDBRANCH   1   8
BRANCH   5  15
ATOM     15  C   UNL A   1     -24.575  -1.302  29.749  0.00  0.00    +0.066 C 
BRANCH  15  16
ATOM     16  C   UNL A   1     -24.767  -2.669  29.328  0.00  0.00    -0.018 A 
ATOM     17  C   UNL A   1     -23.828  -3.485  28.806  0.00  0.00    -0.004 A 
ATOM     18  C   UNL A   1     -24.047  -4.793  28.694  0.00  0.00    -0.000 A 
ATOM     19  C   UNL A   1     -25.242  -5.367  28.979  0.00  0.00    -0.000 A 
ATOM     20  C   UNL A   1     -26.247  -4.579  29.516  0.00  0.00    -0.004 A 
ATOM     21  C   UNL A   1     -25.992  -3.237  29.747  0.00  0.00    -0.025 A 
ATOM     22  C   UNL A   1     -27.011  -2.363  30.297  0.00  0.00    +0.031 C 
ENDBRANCH  15  16
BRANCH  15  23
ATOM     23  C   UNL A   1     -24.607  -0.871  30.945  0.00  0.00    -0.014 A 
ATOM     24  C   UNL A   1     -23.909  -1.501  31.952  0.00  0.00    -0.004 A 
ATOM     25  C   UNL A   1     -23.859  -1.070  33.311  0.00  0.00    -0.000 A 
ATOM     26  C   UNL A   1     -24.766  -0.061  33.652  0.00  0.00    -0.000 A 
ATOM     27  C   UNL A   1     -25.479   0.638  32.705  0.00  0.00    -0.000 A 
ATOM     28  C   UNL A   1     -25.392   0.197  31.408  0.00  0.00    -0.004 A 
ENDBRANCH  15  23
ENDBRANCH   5  15
TORSDOF 4
ENDMDL
ENDMDL
