MODEL 3240
MODEL 1
REMARK VINA RESULT:    -4.306      0.000      0.000
REMARK INTER + INTRA:          -4.306
REMARK INTER:                  -4.306
REMARK INTRA:                   0.000
REMARK UNBOUND:                 0.000
REMARK  Name = No_3240-gen_results/8p0m/2024-11-27-11-27-31/
REMARK  0 active torsions:
REMARK  status: ('A' for Active; 'I' for Inactive)
REMARK                            x       y       z     vdW  Elec       q    Type
REMARK                         _______ _______ _______ _____ _____    ______ ____
ROOT
ATOM      1  C   UNL A   1     -24.940  -5.391  28.982  0.00  0.00    +0.000 A 
ATOM      2  C   UNL A   1     -24.189  -4.703  28.710  0.00  0.00    +0.000 A 
ATOM      3  C   UNL A   1     -26.105  -4.769  29.609  0.00  0.00    +0.000 A 
ATOM      4  C   UNL A   1     -26.197  -3.411  29.794  0.00  0.00    +0.000 A 
ATOM      5  C   UNL A   1     -24.017  -3.252  28.777  0.00  0.00    +0.000 A 
ATOM      6  C   UNL A   1     -25.141  -2.640  29.382  0.00  0.00    +0.000 A 
ENDROOT
TORSDOF 0
ENDMDL
ENDMDL
