MODEL 3241
MODEL 1
REMARK VINA RESULT:    -6.043      0.000      0.000
REMARK INTER + INTRA:          -6.901
REMARK INTER:                  -6.749
REMARK INTRA:                  -0.152
REMARK UNBOUND:                -0.152
REMARK  Name = No_3241-gen_results/8p0m/2024-11-27-11-27-31/
REMARK  2 active torsions:
REMARK  status: ('A' for Active; 'I' for Inactive)
REMARK    1  A    between atoms: C_2  and  O_7
REMARK    2  A    between atoms: O_7  and  C_8
REMARK                            x       y       z     vdW  Elec       q    Type
REMARK                         _______ _______ _______ _____ _____    ______ ____
ROOT
ATOM      1  O   UNL A   1     -24.446  -1.296  29.810  0.00  0.00    -0.454 OA
ENDROOT
BRANCH   1   3
ATOM      2  C   UNL A   1     -23.829  -3.153  28.901  0.00  0.00    +0.037 A 
ATOM      3  C   UNL A   1     -24.587  -2.712  29.484  0.00  0.00    +0.145 A 
ATOM      4  C   UNL A   1     -23.990  -4.580  28.581  0.00  0.00    +0.003 A 
ATOM      5  C   UNL A   1     -25.187  -5.271  28.931  0.00  0.00    +0.000 A 
ATOM      6  C   UNL A   1     -25.932  -3.180  29.919  0.00  0.00    +0.037 A 
ATOM      7  C   UNL A   1     -26.115  -4.503  29.648  0.00  0.00    +0.003 A 
ENDBRANCH   1   3
BRANCH   1   8
ATOM      8  C   UNL A   1     -23.972  -0.451  28.876  0.00  0.00    +0.145 A 
ATOM      9  C   UNL A   1     -22.893   0.082  29.075  0.00  0.00    +0.037 A 
ATOM     10  C   UNL A   1     -22.359   1.044  28.112  0.00  0.00    +0.003 A 
ATOM     11  C   UNL A   1     -23.125   1.303  26.957  0.00  0.00    +0.000 A 
ATOM     12  C   UNL A   1     -24.336   0.656  26.814  0.00  0.00    +0.003 A 
ATOM     13  C   UNL A   1     -24.824  -0.191  27.726  0.00  0.00    +0.037 A 
ENDBRANCH   1   8
TORSDOF 2
ENDMDL
ENDMDL
