MODEL 3243
MODEL 1
REMARK VINA RESULT:    -6.795      0.000      0.000
REMARK INTER + INTRA:          -6.795
REMARK INTER:                  -6.795
REMARK INTRA:                   0.000
REMARK UNBOUND:                 0.000
REMARK  Name = No_3243-gen_results/8p0m/2024-11-27-11-27-31/
REMARK  0 active torsions:
REMARK  status: ('A' for Active; 'I' for Inactive)
REMARK                            x       y       z     vdW  Elec       q    Type
REMARK                         _______ _______ _______ _____ _____    ______ ____
ROOT
ATOM      1  C   UNL A   1     -31.034  -9.848  30.042  0.00  0.00    +0.140 C 
ATOM      2  C   UNL A   1     -30.143 -10.168  30.794  0.00  0.00    -0.004 A 
ATOM      3  C   UNL A   1     -29.948  -9.503  32.000  0.00  0.00    -0.003 A 
ATOM      4  C   UNL A   1     -28.884  -9.794  33.004  0.00  0.00    +0.003 A 
ATOM      5  C   UNL A   1     -28.101 -10.961  32.762  0.00  0.00    +0.019 A 
ATOM      6  C   UNL A   1     -28.355 -11.655  31.562  0.00  0.00    -0.003 A 
ATOM      7  C   UNL A   1     -29.295 -11.312  30.669  0.00  0.00    -0.020 A 
ATOM      8  N   UNL A   1     -30.736  -9.926  28.712  0.00  0.00    -0.216 NA
ATOM      9  C   UNL A   1     -30.407 -10.754  28.095  0.00  0.00    +0.144 A 
ATOM     10  C   UNL A   1     -29.471 -11.859  28.377  0.00  0.00    +0.015 A 
ATOM     11  C   UNL A   1     -29.017 -12.043  29.404  0.00  0.00    +0.055 C 
ATOM     12  C   UNL A   1     -27.162 -11.323  33.803  0.00  0.00    +0.099 A 
ATOM     13  N   UNL A   1     -27.058 -10.587  34.929  0.00  0.00    -0.242 NA
ATOM     14  C   UNL A   1     -27.854  -9.457  35.105  0.00  0.00    +0.099 A 
ATOM     15  C   UNL A   1     -28.782  -9.041  34.203  0.00  0.00    +0.021 A 
ATOM     16  N   UNL A   1     -30.748 -10.729  26.668  0.00  0.00    -0.228 NA
ATOM     17  C   UNL A   1     -30.550 -11.652  25.830  0.00  0.00    +0.100 A 
ATOM     18  C   UNL A   1     -29.681 -12.687  26.127  0.00  0.00    +0.021 A 
ATOM     19  C   UNL A   1     -29.135 -12.832  27.294  0.00  0.00    +0.001 A 
ENDROOT
TORSDOF 0
ENDMDL
ENDMDL
