REMARK  Name = outputs/IAG933/test6/raw/output_3243_IAG933_linker_design_.xyz
REMARK  10 active torsions:
REMARK  status: ('A' for Active; 'I' for Inactive)
REMARK    1  A    between atoms: C_1  and  C_2
REMARK    2  A    between atoms: C_1  and  C_8
REMARK    3  A    between atoms: C_1  and  C_42
REMARK    4  A    between atoms: C_13  and  C_35
REMARK    5  A    between atoms: C_14  and  C_15
REMARK    6  A    between atoms: C_21  and  O_22
REMARK    7  A    between atoms: O_22  and  C_23
REMARK    8  A    between atoms: C_23  and  C_24
REMARK    9  A    between atoms: C_38  and  O_40
REMARK   10  A    between atoms: O_40  and  C_43
REMARK                            x       y       z     vdW  Elec       q    Type
REMARK                         _______ _______ _______ _____ _____    ______ ____
ROOT
ATOM      1  F   UNL A   1     -21.157   1.264  28.043  0.00  0.00    -0.182 F 
ATOM      2 CL   UNL A   1     -22.637   2.180  25.727  0.00  0.00    -0.079 Cl
ATOM      3  C   UNL A   1     -24.681   1.358  27.443  0.00  0.00    +0.034 A 
ATOM      4  C   UNL A   1     -22.406   0.999  28.126  0.00  0.00    +0.232 A 
ATOM      5  C   UNL A   1     -23.326   1.497  27.173  0.00  0.00    +0.103 A 
ATOM      6  N   UNL A   1     -22.924   0.188  29.122  0.00  0.00    -0.218 NA
ATOM      7  C   UNL A   1     -24.311   0.010  29.323  0.00  0.00    +0.100 A 
ATOM      8  C   UNL A   1     -25.219   0.921  28.635  0.00  0.00    +0.150 A 
ENDROOT
BRANCH   3   9
ATOM      9  C   UNL A   1     -25.688   1.614  26.461  0.00  0.00    +0.096 C 
ATOM     10  C   UNL A   1     -26.250   2.920  26.395  0.00  0.00    +0.059 C 
ATOM     11  C   UNL A   1     -27.438   3.091  25.645  0.00  0.00    +0.102 C 
ATOM     12  N   UNL A   1     -28.075   2.089  25.003  0.00  0.00    -0.212 NA
ATOM     13  C   UNL A   1     -27.543   0.849  25.079  0.00  0.00    +0.234 C 
ATOM     14  C   UNL A   1     -26.354   0.576  25.777  0.00  0.00    +0.244 C 
ATOM     15  F   UNL A   1     -25.860  -0.681  25.795  0.00  0.00    -0.227 F 
BRANCH  10  16
ATOM     16  C   UNL A   1     -25.642   4.093  27.123  0.00  0.00    +0.263 C 
ATOM     17  N   UNL A   1     -25.614   5.252  26.449  0.00  0.00    -0.200 NA
ATOM     18  C   UNL A   1     -25.026   6.479  26.963  0.00  0.00    +0.139 C 
ATOM     19  O   UNL A   1     -25.143   3.966  28.243  0.00  0.00    -0.269 OA
ENDBRANCH  10  16
BRANCH  13  20
ATOM     20  O   UNL A   1     -28.193  -0.208  24.477  0.00  0.00    -0.459 OA
BRANCH  20  21
ATOM     21  C   UNL A   1     -29.460   0.005  23.866  0.00  0.00    +0.242 C 
BRANCH  21  22
ATOM     22  C   UNL A   1     -30.065  -1.377  23.573  0.00  0.00    +0.229 C 
ATOM     23  O   UNL A   1     -30.729  -1.878  24.721  0.00  0.00    -0.216 OA
ENDBRANCH  21  22
ENDBRANCH  20  21
ENDBRANCH  13  20
ENDBRANCH   3   9
BRANCH   7  24
ATOM     24  C   UNL A   1     -24.855  -1.012  30.143  0.00  0.00    +0.082 C 
BRANCH  24  25
ATOM     25  C   UNL A   1     -24.973  -2.505  29.788  0.00  0.00    -0.015 C 
ATOM     26  C   UNL A   1     -23.906  -3.173  29.146  0.00  0.00    -0.004 C 
ATOM     27  C   UNL A   1     -23.989  -4.549  28.853  0.00  0.00    -0.000 C 
ATOM     28  C   UNL A   1     -25.137  -5.280  29.205  0.00  0.00    -0.000 C 
ATOM     29  C   UNL A   1     -26.232  -4.611  29.784  0.00  0.00    -0.000 C 
ATOM     30  C   UNL A   1     -26.155  -3.232  30.065  0.00  0.00    -0.004 C 
ENDBRANCH  24  25
BRANCH  24  31
ATOM     31  C   UNL A   1     -25.387  -0.679  31.571  0.00  0.00    +0.083 C 
ATOM     32  C   UNL A   1     -25.189   0.773  32.028  0.00  0.00    +0.020 C 
ATOM     33  C   UNL A   1     -25.336   0.684  33.544  0.00  0.00    +0.020 C 
ATOM     34  C   UNL A   1     -24.829  -0.715  33.905  0.00  0.00    +0.089 C 
ATOM     35  N   UNL A   1     -24.758  -1.481  32.646  0.00  0.00    -0.219 NA
ENDBRANCH  24  31
ENDBRANCH   7  24
BRANCH   8  36
ATOM     36  O   UNL A   1     -26.609   1.174  28.960  0.00  0.00    -0.475 OA
BRANCH  36  42
ATOM     37  C   UNL A   1     -28.702   2.275  29.743  0.00  0.00    +0.064 C 
ATOM     38  C   UNL A   1     -30.492   2.079  31.786  0.00  0.00    +0.019 C 
ATOM     39  O   UNL A   1     -28.771  -0.993  28.119  0.00  0.00    -0.215 OA
ATOM     40  C   UNL A   1     -30.298   0.919  28.162  0.00  0.00    +0.260 C 
ATOM     41  C   UNL A   1     -28.844   0.434  28.103  0.00  0.00    +0.238 C 
ATOM     42  C   UNL A   1     -28.052   0.962  29.288  0.00  0.00    +0.202 C 
ATOM     43  O   UNL A   1     -31.113   0.017  27.373  0.00  0.00    -0.201 OA
ATOM     44  N   UNL A   1     -30.528   0.742  29.558  0.00  0.00    -0.188 NA
ATOM     45  C   UNL A   1     -30.105   1.927  30.264  0.00  0.00    +0.079 C 
ENDBRANCH  36  42
ENDBRANCH   8  36
TORSDOF 10
