MODEL 3244
MODEL 1
REMARK VINA RESULT:    -5.506      0.000      0.000
REMARK INTER + INTRA:         -12.738
REMARK INTER:                  -8.402
REMARK INTRA:                  -4.335
REMARK UNBOUND:                -4.335
REMARK  Name = No_3244-gen_results/8p0m/2024-11-27-11-27-31/
REMARK  9 active torsions:
REMARK  status: ('A' for Active; 'I' for Inactive)
REMARK    1  A    between atoms: C_1  and  C_6
REMARK    2  A    between atoms: C_6  and  C_7
REMARK    3  A    between atoms: C_6  and  C_13
REMARK    4  A    between atoms: C_13  and  O_16
REMARK    5  A    between atoms: O_16  and  C_17
REMARK    6  A    between atoms: C_17  and  C_18
REMARK    7  A    between atoms: C_18  and  C_19
REMARK    8  A    between atoms: C_24  and  C_25
REMARK    9  A    between atoms: C_25  and  C_27
REMARK                            x       y       z     vdW  Elec       q    Type
REMARK                         _______ _______ _______ _____ _____    ______ ____
ROOT
ATOM      1  C   UNL A   1     -16.188 -22.792   8.199  0.00  0.00    +0.155 C 
ENDROOT
BRANCH   1   2
ATOM      2  C   UNL A   1     -17.197 -21.896   7.591  0.00  0.00    -0.009 A 
ATOM      3  C   UNL A   1     -16.835 -21.157   6.705  0.00  0.00    -0.004 A 
ATOM      4  C   UNL A   1     -17.632 -20.216   6.076  0.00  0.00    -0.000 A 
ATOM      5  C   UNL A   1     -18.977 -20.095   6.534  0.00  0.00    -0.000 A 
ATOM      6  C   UNL A   1     -19.837 -19.272   5.925  0.00  0.00    -0.000 A 
ATOM      7  C   UNL A   1     -21.124 -19.202   6.424  0.00  0.00    -0.000 A 
ATOM      8  C   UNL A   1     -21.552 -20.032   7.401  0.00  0.00    -0.000 A 
ATOM      9  C   UNL A   1     -20.637 -20.905   7.958  0.00  0.00    -0.000 A 
ATOM     10  C   UNL A   1     -19.399 -20.932   7.549  0.00  0.00    -0.000 A 
ATOM     11  C   UNL A   1     -18.453 -21.823   8.153  0.00  0.00    -0.004 A 
ENDBRANCH   1   2
BRANCH   1  12
ATOM     12  C   UNL A   1     -15.447 -22.414   9.381  0.00  0.00    +0.371 C 
ATOM     13  O   UNL A   1     -14.394 -22.106   9.387  0.00  0.00    -0.245 OA
ATOM     14  O   UNL A   1     -16.030 -22.767  10.525  0.00  0.00    -0.245 OA
ENDBRANCH   1  12
BRANCH   1  15
ATOM     15  C   UNL A   1     -15.963 -24.168   7.732  0.00  0.00    +0.158 C 
BRANCH  15  16
ATOM     16  O   UNL A   1     -16.999 -24.905   7.943  0.00  0.00    -0.352 OA
BRANCH  16  17
ATOM     17  C   UNL A   1     -17.484 -25.604   6.924  0.00  0.00    +0.147 C 
BRANCH  17  18
ATOM     18  C   UNL A   1     -18.866 -25.262   6.712  0.00  0.00    +0.058 C 
BRANCH  18  19
ATOM     19  C   UNL A   1     -19.314 -24.410   5.732  0.00  0.00    -0.022 A 
ATOM     20  C   UNL A   1     -18.458 -23.903   4.827  0.00  0.00    -0.004 A 
ATOM     21  C   UNL A   1     -18.894 -22.915   3.885  0.00  0.00    -0.000 A 
ATOM     22  C   UNL A   1     -20.249 -22.496   3.999  0.00  0.00    -0.000 A 
ATOM     23  C   UNL A   1     -21.139 -23.000   4.911  0.00  0.00    -0.003 A 
ATOM     24  C   UNL A   1     -20.714 -23.968   5.825  0.00  0.00    -0.006 A 
BRANCH  24  25
ATOM     25  C   UNL A   1     -21.597 -24.511   6.815  0.00  0.00    +0.145 C 
ATOM     26 CL   UNL A   1     -21.637 -24.007   8.426  0.00  0.00    -0.104 Cl
BRANCH  25  27
ATOM     27  C   UNL A   1     -22.602 -25.547   6.502  0.00  0.00    +0.116 C 
ATOM     28  N   UNL A   1     -22.366 -26.440   5.733  0.00  0.00    -0.150 NA
ENDBRANCH  25  27
ENDBRANCH  24  25
ENDBRANCH  18  19
ENDBRANCH  17  18
ENDBRANCH  16  17
ENDBRANCH  15  16
ENDBRANCH   1  15
TORSDOF 9
ENDMDL
ENDMDL
