MODEL 3245
MODEL 1
REMARK VINA RESULT:    -6.941      0.000      0.000
REMARK INTER + INTRA:          -6.941
REMARK INTER:                  -6.941
REMARK INTRA:                   0.000
REMARK UNBOUND:                 0.000
REMARK  Name = No_3245-gen_results/8p0m/2024-11-27-11-27-31/
REMARK  0 active torsions:
REMARK  status: ('A' for Active; 'I' for Inactive)
REMARK                            x       y       z     vdW  Elec       q    Type
REMARK                         _______ _______ _______ _____ _____    ______ ____
ROOT
ATOM      1  C   UNL A   1     -26.591  -4.006  29.805  0.00  0.00    +0.015 A 
ATOM      2  C   UNL A   1     -26.160  -4.960  29.685  0.00  0.00    +0.001 A 
ATOM      3  C   UNL A   1     -25.738  -2.851  29.482  0.00  0.00    +0.050 A 
ATOM      4  C   UNL A   1     -24.449  -3.042  28.903  0.00  0.00    -0.004 A 
ATOM      5  C   UNL A   1     -23.588  -1.943  28.570  0.00  0.00    +0.055 C 
ATOM      6  C   UNL A   1     -24.924  -5.463  29.052  0.00  0.00    -0.000 A 
ATOM      7  C   UNL A   1     -24.059  -4.390  28.650  0.00  0.00    -0.003 A 
ATOM      8  C   UNL A   1     -23.782  -0.740  28.980  0.00  0.00    -0.004 A 
ATOM      9  C   UNL A   1     -22.791   0.322  28.787  0.00  0.00    -0.003 A 
ATOM     10  C   UNL A   1     -22.944   1.547  29.427  0.00  0.00    -0.001 A 
ATOM     11  C   UNL A   1     -23.635   1.540  30.705  0.00  0.00    -0.003 A 
ATOM     12  C   UNL A   1     -24.435   0.386  31.072  0.00  0.00    -0.009 A 
ATOM     13  C   UNL A   1     -24.433  -0.721  30.328  0.00  0.00    +0.046 A 
ATOM     14  N   UNL A   1     -25.792  -1.602  30.128  0.00  0.00    -0.262 N 
ATOM     15  C   UNL A   1     -26.878  -1.171  30.925  0.00  0.00    +0.241 C 
ATOM     16  F   UNL A   1     -27.435  -0.268  30.327  0.00  0.00    -0.214 F 
ATOM     17  C   UNL A   1     -26.450  -0.745  32.313  0.00  0.00    +0.062 C 
ATOM     18  C   UNL A   1     -25.628   0.583  32.050  0.00  0.00    +0.032 C 
ENDROOT
TORSDOF 0
ENDMDL
ENDMDL
