REMARK  Name = outputs/IAG933/test6/raw/output_3245_IAG933_linker_design_.xyz
REMARK  18 active torsions:
REMARK  status: ('A' for Active; 'I' for Inactive)
REMARK    1  A    between atoms: C_1  and  C_2
REMARK    2  A    between atoms: C_1  and  C_8
REMARK    3  A    between atoms: C_1  and  N_36
REMARK    4  A    between atoms: C_13  and  C_43
REMARK    5  A    between atoms: C_14  and  C_15
REMARK    6  A    between atoms: C_21  and  O_22
REMARK    7  A    between atoms: O_22  and  C_23
REMARK    8  A    between atoms: C_23  and  C_24
REMARK    9  A    between atoms: C_29  and  C_34
REMARK   10  A    between atoms: C_29  and  C_42
REMARK   11  A    between atoms: N_32  and  C_39
REMARK   12  A    between atoms: C_33  and  N_36
REMARK   13  A    between atoms: C_33  and  O_40
REMARK   14  A    between atoms: C_34  and  C_39
REMARK   15  A    between atoms: C_37  and  C_38
REMARK   16  A    between atoms: C_37  and  C_44
REMARK   17  A    between atoms: C_38  and  O_40
REMARK   18  A    between atoms: C_38  and  C_43
REMARK                            x       y       z     vdW  Elec       q    Type
REMARK                         _______ _______ _______ _____ _____    ______ ____
ROOT
ATOM      1  C   UNL A   1     -25.230   1.183  28.886  0.00  0.00    +0.243 C 
ENDROOT
BRANCH   1   3
ATOM      2  O   UNL A   1     -27.764  -0.876  28.195  0.00  0.00    -0.275 OA
ATOM      3  N   UNL A   1     -25.844  -0.063  29.346  0.00  0.00    -0.251 N 
ATOM      4  C   UNL A   1     -27.334  -0.101  29.013  0.00  0.00    +0.228 C 
BRANCH   3   5
ATOM      5  C   UNL A   1     -24.855  -1.012  30.143  0.00  0.00    +0.116 C 
BRANCH   5   6
ATOM      6  C   UNL A   1     -24.973  -2.505  29.788  0.00  0.00    -0.003 C 
ATOM      7  C   UNL A   1     -23.906  -3.173  29.146  0.00  0.00    -0.003 C 
ATOM      8  C   UNL A   1     -23.989  -4.549  28.853  0.00  0.00    -0.000 C 
ATOM      9  C   UNL A   1     -25.137  -5.280  29.205  0.00  0.00    -0.000 C 
ATOM     10  C   UNL A   1     -26.232  -4.611  29.784  0.00  0.00    -0.000 C 
ATOM     11  C   UNL A   1     -26.155  -3.232  30.065  0.00  0.00    -0.003 C 
ENDBRANCH   5   6
BRANCH   5  12
ATOM     12  C   UNL A   1     -25.387  -0.679  31.571  0.00  0.00    +0.095 C 
ATOM     13  C   UNL A   1     -25.189   0.773  32.028  0.00  0.00    +0.021 C 
ATOM     14  C   UNL A   1     -25.336   0.684  33.544  0.00  0.00    +0.020 C 
ATOM     15  C   UNL A   1     -24.829  -0.715  33.905  0.00  0.00    +0.089 C 
ATOM     16  N   UNL A   1     -24.758  -1.481  32.646  0.00  0.00    -0.217 NA
ENDBRANCH   5  12
ENDBRANCH   3   5
BRANCH   4  17
ATOM     17  C   UNL A   1     -28.490   0.766  29.697  0.00  0.00    +0.087 C 
BRANCH  17  18
ATOM     18  C   UNL A   1     -29.802   0.658  28.890  0.00  0.00    +0.033 C 
BRANCH  18  19
ATOM     19  C   UNL A   1     -30.247   1.859  28.031  0.00  0.00    +0.117 C 
BRANCH  19  22
ATOM     20  C   UNL A   1     -30.106   4.191  28.246  0.00  0.00    +0.359 C 
ATOM     21  O   UNL A   1     -29.545   4.300  27.114  0.00  0.00    -0.247 OA
ATOM     22  N   UNL A   1     -30.202   3.048  28.829  0.00  0.00    -0.186 NA
ATOM     23  N   UNL A   1     -30.662   5.289  28.662  0.00  0.00    -0.068 NA
ENDBRANCH  19  22
ENDBRANCH  18  19
ENDBRANCH  17  18
ENDBRANCH   4  17
ENDBRANCH   1   3
BRANCH   1  24
ATOM     24  O   UNL A   1     -23.738   1.371  28.829  0.00  0.00    -0.337 OA
BRANCH  24  25
ATOM     25  C   UNL A   1     -23.285   0.715  27.618  0.00  0.00    +0.118 C 
BRANCH  25  26
ATOM     26  C   UNL A   1     -24.174   1.480  26.492  0.00  0.00    +0.037 C 
BRANCH  26  27
ATOM     27  C   UNL A   1     -25.688   1.614  26.461  0.00  0.00    +0.073 C 
ATOM     28  C   UNL A   1     -26.250   2.920  26.395  0.00  0.00    +0.055 C 
ATOM     29  C   UNL A   1     -27.438   3.091  25.645  0.00  0.00    +0.102 C 
ATOM     30  N   UNL A   1     -28.075   2.089  25.003  0.00  0.00    -0.212 NA
ATOM     31  C   UNL A   1     -27.543   0.849  25.079  0.00  0.00    +0.234 C 
ATOM     32  C   UNL A   1     -26.354   0.576  25.777  0.00  0.00    +0.240 C 
ATOM     33  F   UNL A   1     -25.860  -0.681  25.795  0.00  0.00    -0.227 F 
BRANCH  28  34
ATOM     34  C   UNL A   1     -25.642   4.093  27.123  0.00  0.00    +0.262 C 
ATOM     35  N   UNL A   1     -25.614   5.252  26.449  0.00  0.00    -0.200 NA
ATOM     36  C   UNL A   1     -25.026   6.479  26.963  0.00  0.00    +0.139 C 
ATOM     37  O   UNL A   1     -25.143   3.966  28.243  0.00  0.00    -0.269 OA
ENDBRANCH  28  34
BRANCH  31  38
ATOM     38  O   UNL A   1     -28.193  -0.208  24.477  0.00  0.00    -0.459 OA
BRANCH  38  39
ATOM     39  C   UNL A   1     -29.460   0.005  23.866  0.00  0.00    +0.242 C 
BRANCH  39  40
ATOM     40  C   UNL A   1     -30.065  -1.377  23.573  0.00  0.00    +0.229 C 
ATOM     41  O   UNL A   1     -30.729  -1.878  24.721  0.00  0.00    -0.216 OA
ENDBRANCH  39  40
ENDBRANCH  38  39
ENDBRANCH  31  38
ENDBRANCH  26  27
ENDBRANCH  25  26
BRANCH  25  42
ATOM     42  C   UNL A   1     -22.070   0.227  28.376  0.00  0.00    +0.030 C 
BRANCH  42  44
ATOM     43  C   UNL A   1     -20.845   1.671  26.694  0.00  0.00    +0.000 C 
ATOM     44  C   UNL A   1     -20.837   1.107  28.112  0.00  0.00    +0.003 C 
ENDBRANCH  42  44
ENDBRANCH  25  42
ENDBRANCH  24  25
ENDBRANCH   1  24
TORSDOF 18
