MODEL 3246
MODEL 1
REMARK VINA RESULT:    -5.003      0.000      0.000
REMARK INTER + INTRA:          -5.330
REMARK INTER:                  -5.295
REMARK INTRA:                  -0.035
REMARK UNBOUND:                -0.035
REMARK  Name = No_3246-gen_results/8p0m/2024-11-27-11-27-31/
REMARK  1 active torsions:
REMARK  status: ('A' for Active; 'I' for Inactive)
REMARK    1  A    between atoms: C_2  and  C_7
REMARK                            x       y       z     vdW  Elec       q    Type
REMARK                         _______ _______ _______ _____ _____    ______ ____
ROOT
ATOM      1  C   UNL A   1     -28.937 -10.439  32.835  0.00  0.00    +0.007 A 
ATOM      2  C   UNL A   1     -28.185 -11.158  32.668  0.00  0.00    +0.080 A 
ATOM      3  C   UNL A   1     -29.754 -10.059  31.620  0.00  0.00    +0.000 A 
ATOM      4  C   UNL A   1     -29.569 -10.768  30.414  0.00  0.00    +0.000 A 
ATOM      5  C   UNL A   1     -27.815 -12.054  31.549  0.00  0.00    +0.007 A 
ATOM      6  C   UNL A   1     -28.550 -11.739  30.415  0.00  0.00    +0.000 A 
ENDROOT
BRANCH   2   7
ATOM      7  C   UNL A   1     -27.311 -11.591  33.945  0.00  0.00    +0.388 C 
ATOM      8  O   UNL A   1     -26.921 -10.668  34.746  0.00  0.00    -0.241 OA
ATOM      9  O   UNL A   1     -26.776 -12.731  33.905  0.00  0.00    -0.241 OA
ENDBRANCH   2   7
TORSDOF 1
ENDMDL
ENDMDL
