MODEL 3247
MODEL 1
REMARK VINA RESULT:    -5.320      0.000      0.000
REMARK INTER + INTRA:          -6.149
REMARK INTER:                  -5.942
REMARK INTRA:                  -0.207
REMARK UNBOUND:                -0.207
REMARK  Name = No_3247-gen_results/8p0m/2024-11-27-11-27-31/
REMARK  2 active torsions:
REMARK  status: ('A' for Active; 'I' for Inactive)
REMARK    1  A    between atoms: C_3  and  C_4
REMARK    2  A    between atoms: C_4  and  C_8
REMARK                            x       y       z     vdW  Elec       q    Type
REMARK                         _______ _______ _______ _____ _____    ______ ____
ROOT
ATOM      1  C   UNL A   1     -25.771  -2.331  29.772  0.00  0.00    -0.004 A 
ATOM      2  C   UNL A   1     -26.459  -3.096  29.998  0.00  0.00    -0.000 A 
ATOM      3  C   UNL A   1     -24.459  -2.755  29.257  0.00  0.00    -0.018 A 
ATOM      4  C   UNL A   1     -26.445  -4.549  29.706  0.00  0.00    -0.000 A 
ATOM      5  C   UNL A   1     -25.238  -5.029  29.209  0.00  0.00    -0.000 A 
ATOM      6  C   UNL A   1     -24.200  -4.163  28.937  0.00  0.00    -0.004 A 
ENDROOT
BRANCH   3   7
ATOM      7  C   UNL A   1     -23.296  -1.915  29.012  0.00  0.00    +0.052 C 
BRANCH   7   8
ATOM      8  C   UNL A   1     -23.471  -0.608  28.545  0.00  0.00    -0.026 C 
ATOM      9  C   UNL A   1     -22.494   0.272  28.520  0.00  0.00    -0.030 C 
ATOM     10  C   UNL A   1     -22.660   1.477  27.837  0.00  0.00    +0.030 C 
ENDBRANCH   7   8
ENDBRANCH   3   7
TORSDOF 2
ENDMDL
ENDMDL
