MODEL 3249
MODEL 1
REMARK VINA RESULT:    -5.437      0.000      0.000
REMARK INTER + INTRA:          -5.810
REMARK INTER:                  -5.755
REMARK INTRA:                  -0.055
REMARK UNBOUND:                -0.055
REMARK  Name = No_3249-gen_results/8p0m/2024-11-27-11-27-31/
REMARK  1 active torsions:
REMARK  status: ('A' for Active; 'I' for Inactive)
REMARK    1  A    between atoms: C_5  and  C_7
REMARK                            x       y       z     vdW  Elec       q    Type
REMARK                         _______ _______ _______ _____ _____    ______ ____
ROOT
ATOM      1  C   UNL A   1     -24.941  -5.117  29.103  0.00  0.00    +0.000 A 
ATOM      2  C   UNL A   1     -26.034  -4.848  29.545  0.00  0.00    +0.000 A 
ATOM      3  C   UNL A   1     -26.464  -3.578  29.889  0.00  0.00    +0.000 A 
ATOM      4  C   UNL A   1     -25.551  -2.504  29.676  0.00  0.00    +0.005 A 
ATOM      5  C   UNL A   1     -24.401  -2.819  29.044  0.00  0.00    +0.055 A 
ATOM      6  C   UNL A   1     -24.122  -4.070  28.675  0.00  0.00    +0.005 A 
ENDROOT
BRANCH   5   7
ATOM      7  C   UNL A   1     -23.500  -1.676  28.796  0.00  0.00    +0.265 C 
ATOM      8  N   UNL A   1     -22.464  -1.590  29.200  0.00  0.00    -0.200 NA
ATOM      9  O   UNL A   1     -24.014  -0.667  28.140  0.00  0.00    -0.268 OA
ATOM     10  C   UNL A   1     -21.480  -0.466  28.992  0.00  0.00    +0.139 C 
ENDBRANCH   5   7
TORSDOF 1
ENDMDL
ENDMDL
