MODEL 324
MODEL 1
REMARK VINA RESULT:    -5.345      0.000      0.000
REMARK INTER + INTRA:          -5.706
REMARK INTER:                  -5.658
REMARK INTRA:                  -0.048
REMARK UNBOUND:                -0.048
REMARK  Name = No_324-gen_results/8p0m/2024-11-27-11-27-31/
REMARK  1 active torsions:
REMARK  status: ('A' for Active; 'I' for Inactive)
REMARK    1  A    between atoms: C_5  and  C_6
REMARK                            x       y       z     vdW  Elec       q    Type
REMARK                         _______ _______ _______ _____ _____    ______ ____
ROOT
ATOM      1 CL   UNL A   1     -30.607 -10.149  29.412  0.00  0.00    -0.080 Cl
ATOM      2  C   UNL A   1     -29.699 -10.602  30.437  0.00  0.00    +0.085 A 
ATOM      3  C   UNL A   1     -28.912 -11.478  30.387  0.00  0.00    +0.151 A 
ATOM      4  C   UNL A   1     -28.017 -11.859  31.476  0.00  0.00    +0.037 A 
ATOM      5  C   UNL A   1     -28.141 -11.343  32.515  0.00  0.00    +0.082 A 
ATOM      6  C   UNL A   1     -29.079 -10.309  32.764  0.00  0.00    +0.008 A 
ATOM      7  C   UNL A   1     -29.825  -9.912  31.740  0.00  0.00    +0.014 A 
ATOM      8  F   UNL A   1     -28.680 -12.129  29.195  0.00  0.00    -0.203 F 
ENDROOT
BRANCH   5   9
ATOM      9  C   UNL A   1     -27.269 -11.660  33.738  0.00  0.00    +0.388 C 
ATOM     10  O   UNL A   1     -26.933 -10.942  34.647  0.00  0.00    -0.241 OA
ATOM     11  O   UNL A   1     -26.780 -12.846  33.729  0.00  0.00    -0.241 OA
ENDBRANCH   5   9
TORSDOF 1
ENDMDL
ENDMDL
