MODEL 3250
MODEL 1
REMARK VINA RESULT:    -7.666      0.000      0.000
REMARK INTER + INTRA:          -8.580
REMARK INTER:                  -8.114
REMARK INTRA:                  -0.466
REMARK UNBOUND:                -0.466
REMARK  Name = No_3250-gen_results/8p0m/2024-11-27-11-27-31/
REMARK  1 active torsions:
REMARK  status: ('A' for Active; 'I' for Inactive)
REMARK    1  A    between atoms: C_3  and  C_4
REMARK                            x       y       z     vdW  Elec       q    Type
REMARK                         _______ _______ _______ _____ _____    ______ ____
ROOT
ATOM      1  C   UNL A   1     -22.764  -0.800  29.867  0.00  0.00    +0.000 A 
ATOM      2  C   UNL A   1     -22.177   0.020  29.561  0.00  0.00    +0.000 A 
ATOM      3  C   UNL A   1     -23.804  -1.169  28.899  0.00  0.00    +0.000 A 
ATOM      4  C   UNL A   1     -22.351   1.002  28.527  0.00  0.00    +0.000 A 
ATOM      5  C   UNL A   1     -23.302   0.715  27.660  0.00  0.00    +0.000 A 
ATOM      6  C   UNL A   1     -24.055  -0.431  27.785  0.00  0.00    +0.000 A 
ATOM      7  C   UNL A   1     -23.582   1.601  26.454  0.00  0.00    +0.000 A 
ATOM      8  C   UNL A   1     -24.634   1.659  25.936  0.00  0.00    +0.000 A 
ATOM      9  C   UNL A   1     -25.528   0.605  26.016  0.00  0.00    +0.000 A 
ATOM     10  C   UNL A   1     -25.278  -0.506  27.037  0.00  0.00    +0.000 A 
ENDROOT
BRANCH   3  11
ATOM     11  C   UNL A   1     -24.586  -2.409  29.064  0.00  0.00    +0.000 A 
ATOM     12  C   UNL A   1     -25.738  -2.458  29.688  0.00  0.00    +0.000 A 
ATOM     13  C   UNL A   1     -26.407  -3.664  29.880  0.00  0.00    +0.000 A 
ATOM     14  C   UNL A   1     -25.820  -4.874  29.515  0.00  0.00    +0.000 A 
ATOM     15  C   UNL A   1     -24.604  -4.845  28.851  0.00  0.00    +0.000 A 
ATOM     16  C   UNL A   1     -23.972  -3.671  28.629  0.00  0.00    +0.000 A 
ENDBRANCH   3  11
TORSDOF 1
ENDMDL
ENDMDL
