REMARK  Name = No_3252-gen_results/8p0m/2024-11-27-11-27-31/
REMARK  4 active torsions:
REMARK  status: ('A' for Active; 'I' for Inactive)
REMARK    1  A    between atoms: C_3  and  O_17
REMARK    2  A    between atoms: C_4  and  C_8
REMARK    3  A    between atoms: C_11  and  C_13
REMARK    4  A    between atoms: O_17  and  C_18
REMARK                            x       y       z     vdW  Elec       q    Type
REMARK                         _______ _______ _______ _____ _____    ______ ____
ROOT
ATOM      1  C   UNL A   1     -28.016  -0.814  28.878  0.00  0.00    +0.049 A 
ATOM      2  C   UNL A   1     -28.469  -0.785  29.829  0.00  0.00    +0.061 A 
ATOM      3  C   UNL A   1     -26.504  -0.778  28.877  0.00  0.00    +0.146 A 
ATOM      4  C   UNL A   1     -25.810  -0.853  30.103  0.00  0.00    +0.035 A 
ATOM      5  C   UNL A   1     -27.991  -0.892  31.226  0.00  0.00    +0.012 A 
ATOM      6  C   UNL A   1     -26.604  -0.868  31.265  0.00  0.00    +0.004 A 
ATOM      7 CL   UNL A   1     -30.294  -0.838  29.835  0.00  0.00    -0.082 Cl
ENDROOT
BRANCH   4   8
ATOM      8  C   UNL A   1     -24.370  -0.821  30.139  0.00  0.00    +0.003 A 
ATOM      9  C   UNL A   1     -23.662  -1.327  30.749  0.00  0.00    +0.000 A 
ATOM     10  C   UNL A   1     -23.748   0.145  29.141  0.00  0.00    +0.003 A 
ATOM     11  C   UNL A   1     -22.352   0.230  29.090  0.00  0.00    +0.030 A 
ATOM     12  C   UNL A   1     -22.225  -1.293  30.898  0.00  0.00    +0.000 A 
ATOM     13  C   UNL A   1     -21.573  -0.520  29.986  0.00  0.00    +0.002 A 
BRANCH  11  14
ATOM     14  C   UNL A   1     -21.729   1.097  28.083  0.00  0.00    +0.160 C 
ATOM     15  N   UNL A   1     -20.622   1.632  28.214  0.00  0.00    -0.136 NA
ATOM     16 CL   UNL A   1     -22.725   1.638  26.773  0.00  0.00    -0.059 Cl
ENDBRANCH  11  14
ENDBRANCH   4   8
BRANCH   3  17
ATOM     17  O   UNL A   1     -25.851  -0.712  27.724  0.00  0.00    -0.454 OA
BRANCH  17  18
ATOM     18  C   UNL A   1     -26.307   0.219  26.690  0.00  0.00    +0.145 A 
ATOM     19  C   UNL A   1     -25.987  -0.107  25.394  0.00  0.00    +0.037 A 
ATOM     20  C   UNL A   1     -26.852   1.460  26.987  0.00  0.00    +0.037 A 
ATOM     21  C   UNL A   1     -27.181   2.303  25.997  0.00  0.00    +0.003 A 
ATOM     22  C   UNL A   1     -26.332   0.712  24.353  0.00  0.00    +0.003 A 
ATOM     23  C   UNL A   1     -26.940   1.922  24.660  0.00  0.00    +0.000 A 
ENDBRANCH  17  18
ENDBRANCH   3  17
TORSDOF 4
