MODEL 3252
MODEL 1
REMARK VINA RESULT:    -8.005      0.000      0.000
REMARK INTER + INTRA:         -10.627
REMARK INTER:                  -9.877
REMARK INTRA:                  -0.750
REMARK UNBOUND:                -0.750
REMARK  Name = No_3252-gen_results/8p0m/2024-11-27-11-27-31/
REMARK  4 active torsions:
REMARK  status: ('A' for Active; 'I' for Inactive)
REMARK    1  A    between atoms: C_3  and  O_17
REMARK    2  A    between atoms: C_4  and  C_8
REMARK    3  A    between atoms: C_11  and  C_13
REMARK    4  A    between atoms: O_17  and  C_18
REMARK                            x       y       z     vdW  Elec       q    Type
REMARK                         _______ _______ _______ _____ _____    ______ ____
ROOT
ATOM      1  C   UNL A   1     -23.866  -1.167  31.703  0.00  0.00    +0.049 A 
ATOM      2  C   UNL A   1     -24.132  -0.382  32.352  0.00  0.00    +0.061 A 
ATOM      3  C   UNL A   1     -23.669  -0.776  30.255  0.00  0.00    +0.146 A 
ATOM      4  C   UNL A   1     -23.709   0.588  29.897  0.00  0.00    +0.035 A 
ATOM      5  C   UNL A   1     -24.204   1.093  32.246  0.00  0.00    +0.012 A 
ATOM      6  C   UNL A   1     -24.022   1.492  30.929  0.00  0.00    +0.004 A 
ATOM      7 CL   UNL A   1     -24.361  -0.848  34.103  0.00  0.00    -0.082 Cl
ENDROOT
BRANCH   4   8
ATOM      8  C   UNL A   1     -23.526   0.996  28.527  0.00  0.00    +0.003 A 
ATOM      9  C   UNL A   1     -22.707   1.447  28.022  0.00  0.00    +0.000 A 
ATOM     10  C   UNL A   1     -24.747   0.773  27.647  0.00  0.00    +0.003 A 
ATOM     11  C   UNL A   1     -24.657   1.122  26.295  0.00  0.00    +0.030 A 
ATOM     12  C   UNL A   1     -22.474   1.951  26.688  0.00  0.00    +0.000 A 
ATOM     13  C   UNL A   1     -23.483   1.716  25.804  0.00  0.00    +0.002 A 
BRANCH  11  14
ATOM     14  C   UNL A   1     -25.795   0.845  25.412  0.00  0.00    +0.160 C 
ATOM     15  N   UNL A   1     -26.812   1.545  25.346  0.00  0.00    -0.136 NA
ATOM     16 CL   UNL A   1     -25.845  -0.706  24.641  0.00  0.00    -0.059 Cl
ENDBRANCH  11  14
ENDBRANCH   4   8
BRANCH   3  17
ATOM     17  O   UNL A   1     -23.428  -1.715  29.350  0.00  0.00    -0.454 OA
BRANCH  17  18
ATOM     18  C   UNL A   1     -24.314  -2.877  29.264  0.00  0.00    +0.145 A 
ATOM     19  C   UNL A   1     -25.577  -2.719  29.781  0.00  0.00    +0.037 A 
ATOM     20  C   UNL A   1     -23.868  -4.132  28.874  0.00  0.00    +0.037 A 
ATOM     21  C   UNL A   1     -24.708  -5.178  28.888  0.00  0.00    +0.003 A 
ATOM     22  C   UNL A   1     -26.474  -3.753  29.785  0.00  0.00    +0.003 A 
ATOM     23  C   UNL A   1     -26.035  -4.988  29.328  0.00  0.00    +0.000 A 
ENDBRANCH  17  18
ENDBRANCH   3  17
TORSDOF 4
ENDMDL
ENDMDL
