MODEL 3255
MODEL 1
REMARK VINA RESULT:    -5.538      0.000      0.000
REMARK INTER + INTRA:          -5.538
REMARK INTER:                  -5.538
REMARK INTRA:                   0.000
REMARK UNBOUND:                 0.000
REMARK  Name = No_3255-gen_results/8p0m/2024-11-27-11-27-31/
REMARK  0 active torsions:
REMARK  status: ('A' for Active; 'I' for Inactive)
REMARK                            x       y       z     vdW  Elec       q    Type
REMARK                         _______ _______ _______ _____ _____    ______ ____
ROOT
ATOM      1  C   UNL A   1     -24.007  -4.136  28.719  0.00  0.00    +0.000 A 
ATOM      2  C   UNL A   1     -24.238  -3.021  29.125  0.00  0.00    +0.000 A 
ATOM      3  C   UNL A   1     -25.385  -2.666  29.758  0.00  0.00    +0.000 A 
ATOM      4  C   UNL A   1     -26.370  -3.651  29.957  0.00  0.00    +0.000 A 
ATOM      5  C   UNL A   1     -24.929  -5.214  28.972  0.00  0.00    +0.000 A 
ATOM      6  C   UNL A   1     -26.109  -4.904  29.579  0.00  0.00    +0.000 A 
ATOM      7  C   UNL A   1     -23.247  -1.878  28.977  0.00  0.00    +0.000 A 
ATOM      8  C   UNL A   1     -23.127  -0.967  30.098  0.00  0.00    +0.000 A 
ATOM      9  C   UNL A   1     -24.319  -0.400  30.564  0.00  0.00    +0.000 A 
ATOM     10  C   UNL A   1     -25.437  -1.471  30.620  0.00  0.00    +0.000 A 
ENDROOT
TORSDOF 0
ENDMDL
ENDMDL
