REMARK  Name = outputs/IAG933/test6/raw/output_3255_IAG933_linker_design_.xyz
REMARK  13 active torsions:
REMARK  status: ('A' for Active; 'I' for Inactive)
REMARK    1  A    between atoms: C_1  and  C_2
REMARK    2  A    between atoms: C_1  and  C_8
REMARK    3  A    between atoms: C_1  and  C_36
REMARK    4  A    between atoms: C_13  and  C_42
REMARK    5  A    between atoms: C_14  and  C_15
REMARK    6  A    between atoms: C_21  and  O_22
REMARK    7  A    between atoms: O_22  and  C_23
REMARK    8  A    between atoms: C_23  and  C_24
REMARK    9  A    between atoms: C_30  and  C_31
REMARK   10  A    between atoms: C_30  and  C_33
REMARK   11  A    between atoms: C_31  and  C_44
REMARK   12  A    between atoms: C_34  and  C_39
REMARK   13  A    between atoms: C_45  and  C_46
REMARK                            x       y       z     vdW  Elec       q    Type
REMARK                         _______ _______ _______ _____ _____    ______ ____
ROOT
ATOM      1  C   UNL A   1     -25.324   0.648  28.596  0.00  0.00    -0.029 C 
ATOM      2  C   UNL A   1     -23.097  -0.074  29.051  0.00  0.00    -0.006 C 
ATOM      3  C   UNL A   1     -24.520  -0.025  29.302  0.00  0.00    -0.021 C 
ATOM      4  C   UNL A   1     -23.482   1.197  27.183  0.00  0.00    -0.006 C 
ATOM      5  C   UNL A   1     -22.617   0.765  28.037  0.00  0.00    +0.012 C 
ATOM      6  C   UNL A   1     -24.771   1.187  27.410  0.00  0.00    -0.019 C 
ENDROOT
BRANCH   6   7
ATOM      7  C   UNL A   1     -25.688   1.614  26.461  0.00  0.00    +0.092 C 
ATOM      8  C   UNL A   1     -26.250   2.920  26.395  0.00  0.00    +0.059 C 
ATOM      9  C   UNL A   1     -27.438   3.091  25.645  0.00  0.00    +0.102 C 
ATOM     10  N   UNL A   1     -28.075   2.089  25.003  0.00  0.00    -0.212 NA
ATOM     11  C   UNL A   1     -27.543   0.849  25.079  0.00  0.00    +0.234 C 
ATOM     12  C   UNL A   1     -26.354   0.576  25.777  0.00  0.00    +0.244 C 
ATOM     13  F   UNL A   1     -25.860  -0.681  25.795  0.00  0.00    -0.227 F 
BRANCH   8  14
ATOM     14  C   UNL A   1     -25.642   4.093  27.123  0.00  0.00    +0.263 C 
ATOM     15  N   UNL A   1     -25.614   5.252  26.449  0.00  0.00    -0.200 NA
ATOM     16  C   UNL A   1     -25.026   6.479  26.963  0.00  0.00    +0.139 C 
ATOM     17  O   UNL A   1     -25.143   3.966  28.243  0.00  0.00    -0.269 OA
ENDBRANCH   8  14
BRANCH  11  18
ATOM     18  O   UNL A   1     -28.193  -0.208  24.477  0.00  0.00    -0.459 OA
BRANCH  18  19
ATOM     19  C   UNL A   1     -29.460   0.005  23.866  0.00  0.00    +0.242 C 
BRANCH  19  20
ATOM     20  C   UNL A   1     -30.065  -1.377  23.573  0.00  0.00    +0.229 C 
ATOM     21  O   UNL A   1     -30.729  -1.878  24.721  0.00  0.00    -0.216 OA
ENDBRANCH  19  20
ENDBRANCH  18  19
ENDBRANCH  11  18
ENDBRANCH   6   7
BRANCH   5  23
ATOM     22  F   UNL A   1     -21.022   2.011  26.872  0.00  0.00    -0.229 F 
ATOM     23  C   UNL A   1     -21.214   1.200  27.951  0.00  0.00    +0.220 C 
ENDBRANCH   5  23
BRANCH   3  24
ATOM     24  C   UNL A   1     -24.855  -1.012  30.143  0.00  0.00    +0.060 C 
BRANCH  24  25
ATOM     25  C   UNL A   1     -24.973  -2.505  29.788  0.00  0.00    -0.017 C 
ATOM     26  C   UNL A   1     -23.906  -3.173  29.146  0.00  0.00    -0.004 C 
ATOM     27  C   UNL A   1     -23.989  -4.549  28.853  0.00  0.00    -0.000 C 
ATOM     28  C   UNL A   1     -25.137  -5.280  29.205  0.00  0.00    -0.000 C 
ATOM     29  C   UNL A   1     -26.232  -4.611  29.784  0.00  0.00    -0.000 C 
ATOM     30  C   UNL A   1     -26.155  -3.232  30.065  0.00  0.00    -0.004 C 
ENDBRANCH  24  25
BRANCH  24  31
ATOM     31  C   UNL A   1     -25.387  -0.679  31.571  0.00  0.00    +0.081 C 
ATOM     32  C   UNL A   1     -25.189   0.773  32.028  0.00  0.00    +0.019 C 
ATOM     33  C   UNL A   1     -25.336   0.684  33.544  0.00  0.00    +0.020 C 
ATOM     34  C   UNL A   1     -24.829  -0.715  33.905  0.00  0.00    +0.089 C 
ATOM     35  N   UNL A   1     -24.758  -1.481  32.646  0.00  0.00    -0.219 NA
ENDBRANCH  24  31
ENDBRANCH   3  24
BRANCH   1  36
ATOM     36  C   UNL A   1     -26.816   0.671  28.949  0.00  0.00    +0.027 C 
BRANCH  36  37
ATOM     37  C   UNL A   1     -27.961   0.882  28.567  0.00  0.00    +0.025 C 
BRANCH  37  43
ATOM     38  C   UNL A   1     -30.378   3.520  28.511  0.00  0.00    +0.045 C 
ATOM     39  C   UNL A   1     -30.360  -0.002  27.488  0.00  0.00    +0.112 C 
ATOM     40  N   UNL A   1     -30.085   1.362  27.919  0.00  0.00    -0.311 N 
ATOM     41  C   UNL A   1     -31.076   2.407  27.864  0.00  0.00    +0.025 C 
ATOM     42  C   UNL A   1     -32.358   2.418  27.484  0.00  0.00    +0.011 C 
ATOM     43  C   UNL A   1     -29.232   1.463  29.142  0.00  0.00    +0.076 C 
ATOM     44  C   UNL A   1     -29.422   2.949  29.536  0.00  0.00    +0.057 C 
BRANCH  44  46
ATOM     45  O   UNL A   1     -27.435   2.687  30.464  0.00  0.00    -0.220 OA
ATOM     46  C   UNL A   1     -28.047   3.564  29.664  0.00  0.00    +0.184 C 
ENDBRANCH  44  46
ENDBRANCH  37  43
ENDBRANCH  36  37
ENDBRANCH   1  36
TORSDOF 13
