MODEL 3256
MODEL 1
REMARK VINA RESULT:    -8.372      0.000      0.000
REMARK INTER + INTRA:         -12.990
REMARK INTER:                 -11.309
REMARK INTRA:                  -1.681
REMARK UNBOUND:                -1.681
REMARK  Name = No_3256-gen_results/8p0m/2024-11-27-11-27-31/
REMARK  6 active torsions:
REMARK  status: ('A' for Active; 'I' for Inactive)
REMARK    1  A    between atoms: C_3  and  O_20
REMARK    2  A    between atoms: C_7  and  C_8
REMARK    3  A    between atoms: O_20  and  C_21
REMARK    4  A    between atoms: C_21  and  C_22
REMARK    5  A    between atoms: N_24  and  C_26
REMARK    6  A    between atoms: C_30  and  C_32
REMARK                            x       y       z     vdW  Elec       q    Type
REMARK                         _______ _______ _______ _____ _____    ______ ____
ROOT
ATOM      1  F   UNL A   1     -24.879  -1.055  27.811  0.00  0.00    -0.201 F 
ATOM      2  C   UNL A   1     -24.215  -0.931  28.654  0.00  0.00    +0.175 A 
ATOM      3  C   UNL A   1     -23.184  -0.161  28.604  0.00  0.00    +0.176 A 
ATOM      4  C   UNL A   1     -22.307   0.017  29.728  0.00  0.00    +0.040 A 
ATOM      5  C   UNL A   1     -22.608  -0.727  30.887  0.00  0.00    +0.003 A 
ATOM      6  C   UNL A   1     -23.734  -1.560  30.984  0.00  0.00    +0.003 A 
ATOM      7  C   UNL A   1     -24.549  -1.653  29.915  0.00  0.00    +0.034 A 
ENDROOT
BRANCH   7   8
ATOM      8  C   UNL A   1     -25.704  -2.507  30.001  0.00  0.00    +0.048 A 
ATOM      9  C   UNL A   1     -26.663  -2.429  30.460  0.00  0.00    +0.005 A 
ATOM     10  C   UNL A   1     -27.144  -1.094  31.067  0.00  0.00    +0.003 A 
ATOM     11  C   UNL A   1     -28.463  -1.015  31.636  0.00  0.00    +0.030 A 
ATOM     12  C   UNL A   1     -29.367  -2.091  31.448  0.00  0.00    +0.140 A 
ATOM     13  C   UNL A   1     -29.039  -3.278  30.882  0.00  0.00    +0.031 A 
ATOM     14  C   UNL A   1     -27.767  -3.416  30.394  0.00  0.00    +0.022 A 
ATOM     15  C   UNL A   1     -25.299  -3.886  29.395  0.00  0.00    +0.222 A 
ATOM     16  F   UNL A   1     -30.625  -1.932  31.900  0.00  0.00    -0.204 F 
ATOM     17  N   UNL A   1     -25.966  -4.912  29.638  0.00  0.00    -0.216 NA
ATOM     18  C   UNL A   1     -27.298  -4.740  29.999  0.00  0.00    +0.101 A 
ATOM     19  F   UNL A   1     -24.033  -4.097  28.993  0.00  0.00    -0.183 F 
ENDBRANCH   7   8
BRANCH   3  20
ATOM     20  O   UNL A   1     -22.889   0.514  27.535  0.00  0.00    -0.415 OA
BRANCH  20  21
ATOM     21  C   UNL A   1     -23.417   1.565  27.135  0.00  0.00    +0.402 C 
ATOM     22  O   UNL A   1     -22.956   2.628  27.725  0.00  0.00    -0.239 OA
BRANCH  21  23
ATOM     23  C   UNL A   1     -24.277   1.557  26.280  0.00  0.00    +0.345 C 
ATOM     24  O   UNL A   1     -23.997   1.313  25.110  0.00  0.00    -0.261 OA
ATOM     25  N   UNL A   1     -25.654   1.764  26.531  0.00  0.00    -0.170 NA
BRANCH  25  26
ATOM     26  C   UNL A   1     -26.726   1.704  25.578  0.00  0.00    +0.074 A 
ATOM     27  C   UNL A   1     -27.103   2.813  25.209  0.00  0.00    +0.017 A 
ATOM     28  C   UNL A   1     -28.139   2.987  24.279  0.00  0.00    +0.001 A 
ATOM     29  C   UNL A   1     -28.736   1.749  23.800  0.00  0.00    +0.000 A 
ATOM     30  C   UNL A   1     -28.274   0.557  24.284  0.00  0.00    +0.001 A 
ATOM     31  C   UNL A   1     -27.210   0.483  25.172  0.00  0.00    +0.017 A 
BRANCH  30  32
ATOM     32  C   UNL A   1     -28.838  -0.717  23.771  0.00  0.00    -0.004 C 
ATOM     33  C   UNL A   1     -30.050  -0.966  23.944  0.00  0.00    -0.026 C 
ATOM     34  C   UNL A   1     -30.751  -1.834  23.771  0.00  0.00    +0.031 C 
ENDBRANCH  30  32
ENDBRANCH  25  26
ENDBRANCH  21  23
ENDBRANCH  20  21
ENDBRANCH   3  20
TORSDOF 6
ENDMDL
ENDMDL
