REMARK  Name = outputs/IAG933/test6/raw/output_3256_IAG933_linker_design_.xyz
REMARK  10 active torsions:
REMARK  status: ('A' for Active; 'I' for Inactive)
REMARK    1  A    between atoms: C_1  and  C_2
REMARK    2  A    between atoms: C_1  and  C_8
REMARK    3  A    between atoms: C_1  and  C_39
REMARK    4  A    between atoms: C_13  and  C_29
REMARK    5  A    between atoms: C_14  and  C_15
REMARK    6  A    between atoms: C_15  and  O_18
REMARK    7  A    between atoms: O_18  and  C_30
REMARK    8  A    between atoms: C_21  and  O_22
REMARK    9  A    between atoms: O_22  and  C_23
REMARK   10  A    between atoms: C_23  and  C_24
REMARK                            x       y       z     vdW  Elec       q    Type
REMARK                         _______ _______ _______ _____ _____    ______ ____
ROOT
ATOM      1  C   UNL A   1     -25.688   1.614  26.461  0.00  0.00    +0.055 C 
ATOM      2  C   UNL A   1     -26.250   2.920  26.395  0.00  0.00    +0.076 C 
ATOM      3  C   UNL A   1     -27.438   3.091  25.645  0.00  0.00    +0.107 C 
ATOM      4  N   UNL A   1     -28.075   2.089  25.003  0.00  0.00    -0.208 NA
ATOM      5  C   UNL A   1     -27.543   0.849  25.079  0.00  0.00    +0.253 C 
ATOM      6  C   UNL A   1     -26.354   0.576  25.777  0.00  0.00    +0.195 C 
ATOM      7  F   UNL A   1     -25.860  -0.681  25.795  0.00  0.00    -0.199 F 
ENDROOT
BRANCH   1   9
ATOM      8  N   UNL A   1     -24.864   0.338  28.222  0.00  0.00    -0.267 NA
ATOM      9  C   UNL A   1     -24.528   1.272  27.255  0.00  0.00    +0.081 C 
ATOM     10  C   UNL A   1     -21.985   0.891  28.919  0.00  0.00    +0.027 C 
ATOM     11  C   UNL A   1     -22.889   0.053  29.486  0.00  0.00    +0.000 C 
ATOM     12  C   UNL A   1     -23.271   1.765  26.997  0.00  0.00    +0.048 C 
ATOM     13  F   UNL A   1     -20.947   2.100  27.232  0.00  0.00    -0.204 F 
ATOM     14  C   UNL A   1     -22.076   1.573  27.723  0.00  0.00    +0.141 C 
ATOM     15  C   UNL A   1     -24.261  -0.127  29.282  0.00  0.00    +0.131 C 
BRANCH  15  16
ATOM     16  C   UNL A   1     -24.855  -1.012  30.143  0.00  0.00    +0.065 C 
BRANCH  16  17
ATOM     17  C   UNL A   1     -24.973  -2.505  29.788  0.00  0.00    -0.019 C 
ATOM     18  C   UNL A   1     -23.906  -3.173  29.146  0.00  0.00    -0.004 C 
ATOM     19  C   UNL A   1     -23.989  -4.549  28.853  0.00  0.00    -0.000 C 
ATOM     20  C   UNL A   1     -25.137  -5.280  29.205  0.00  0.00    -0.000 C 
ATOM     21  C   UNL A   1     -26.232  -4.611  29.784  0.00  0.00    -0.000 C 
ATOM     22  C   UNL A   1     -26.155  -3.232  30.065  0.00  0.00    -0.004 C 
ENDBRANCH  16  17
BRANCH  16  23
ATOM     23  C   UNL A   1     -25.387  -0.679  31.571  0.00  0.00    +0.079 C 
ATOM     24  C   UNL A   1     -25.189   0.773  32.028  0.00  0.00    +0.019 C 
ATOM     25  C   UNL A   1     -25.336   0.684  33.544  0.00  0.00    +0.020 C 
ATOM     26  C   UNL A   1     -24.829  -0.715  33.905  0.00  0.00    +0.089 C 
ATOM     27  N   UNL A   1     -24.758  -1.481  32.646  0.00  0.00    -0.219 NA
ENDBRANCH  16  23
ENDBRANCH  15  16
ENDBRANCH   1   9
BRANCH   2  28
ATOM     28  C   UNL A   1     -25.642   4.093  27.123  0.00  0.00    +0.227 C 
ATOM     29  N   UNL A   1     -25.614   5.252  26.449  0.00  0.00    -0.235 NA
ATOM     30  C   UNL A   1     -25.026   6.479  26.963  0.00  0.00    +0.155 C 
BRANCH  28  31
ATOM     31  O   UNL A   1     -25.143   3.966  28.243  0.00  0.00    -0.440 OA
BRANCH  31  32
ATOM     32  C   UNL A   1     -25.971   4.155  29.408  0.00  0.00    +0.133 C 
ATOM     33  C   UNL A   1     -28.442   3.876  31.327  0.00  0.00    +0.097 C 
ATOM     34  C   UNL A   1     -27.400   3.010  31.127  0.00  0.00    +0.003 C 
ATOM     35  F   UNL A   1     -27.662   7.060  30.596  0.00  0.00    -0.183 F 
ATOM     36  C   UNL A   1     -26.293   3.090  30.303  0.00  0.00    +0.092 C 
ATOM     37  N   UNL A   1     -28.421   5.166  31.046  0.00  0.00    -0.217 NA
ATOM     38  C   UNL A   1     -27.504   5.858  30.423  0.00  0.00    +0.225 C 
ATOM     39  C   UNL A   1     -26.485   5.418  29.597  0.00  0.00    +0.083 C 
ENDBRANCH  31  32
ENDBRANCH  28  31
ENDBRANCH   2  28
BRANCH   5  40
ATOM     40  O   UNL A   1     -28.193  -0.208  24.477  0.00  0.00    -0.456 OA
BRANCH  40  41
ATOM     41  C   UNL A   1     -29.460   0.005  23.866  0.00  0.00    +0.243 C 
BRANCH  41  42
ATOM     42  C   UNL A   1     -30.065  -1.377  23.573  0.00  0.00    +0.229 C 
ATOM     43  O   UNL A   1     -30.729  -1.878  24.721  0.00  0.00    -0.216 OA
ENDBRANCH  41  42
ENDBRANCH  40  41
ENDBRANCH   5  40
TORSDOF 10
