MODEL 3258
MODEL 1
REMARK VINA RESULT:    -8.021      0.000      0.000
REMARK INTER + INTRA:         -11.241
REMARK INTER:                  -9.896
REMARK INTRA:                  -1.345
REMARK UNBOUND:                -1.345
REMARK  Name = No_3258-gen_results/8p0m/2024-11-27-11-27-31/
REMARK  4 active torsions:
REMARK  status: ('A' for Active; 'I' for Inactive)
REMARK    1  A    between atoms: C_2  and  C_7
REMARK    2  A    between atoms: C_9  and  C_11
REMARK    3  A    between atoms: C_16  and  C_24
REMARK    4  A    between atoms: C_18  and  C_20
REMARK                            x       y       z     vdW  Elec       q    Type
REMARK                         _______ _______ _______ _____ _____    ______ ____
ROOT
ATOM      1  C   UNL A   1      -9.054   0.083  35.681  0.00  0.00    +0.032 C 
ATOM      2  C   UNL A   1      -8.126   0.438  35.329  0.00  0.00    +0.045 C 
ATOM      3  C   UNL A   1      -9.932   1.140  36.182  0.00  0.00    -0.026 A 
ATOM      4  C   UNL A   1     -10.425   1.966  35.415  0.00  0.00    -0.026 A 
ATOM      5  C   UNL A   1      -8.131   1.629  34.299  0.00  0.00    +0.011 C 
ATOM      6  C   UNL A   1      -9.222   2.532  34.526  0.00  0.00    +0.026 C 
ATOM      7  C   UNL A   1     -11.254   0.610  37.020  0.00  0.00    -0.004 A 
ATOM      8  C   UNL A   1     -12.318   1.222  37.038  0.00  0.00    +0.004 A 
ATOM      9  C   UNL A   1     -12.571   2.378  36.225  0.00  0.00    +0.071 A 
ATOM     10  C   UNL A   1     -11.574   2.790  35.379  0.00  0.00    -0.001 A 
ENDROOT
BRANCH   2  11
ATOM     11  C   UNL A   1      -6.928  -0.426  34.938  0.00  0.00    +0.065 A 
ATOM     12  N   UNL A   1      -6.901  -1.440  34.333  0.00  0.00    -0.248 NA
ATOM     13  C   UNL A   1      -5.654   0.050  35.520  0.00  0.00    +0.093 A 
ATOM     14  C   UNL A   1      -5.861  -2.315  34.214  0.00  0.00    +0.099 A 
ATOM     15  C   UNL A   1      -4.539  -0.760  35.304  0.00  0.00    +0.009 A 
ATOM     16  C   UNL A   1      -4.636  -1.926  34.606  0.00  0.00    +0.021 A 
BRANCH  13  17
ATOM     17  C   UNL A   1      -5.604   1.253  36.276  0.00  0.00    +0.389 C 
ATOM     18  O   UNL A   1      -5.145   2.258  35.796  0.00  0.00    -0.240 OA
ATOM     19  O   UNL A   1      -5.859   1.142  37.556  0.00  0.00    -0.240 OA
ENDBRANCH  13  17
ENDBRANCH   2  11
BRANCH   7  20
ATOM     20  C   UNL A   1     -11.039  -0.503  38.016  0.00  0.00    -0.000 A 
ATOM     21  C   UNL A   1     -10.892  -0.219  39.378  0.00  0.00    -0.000 A 
ATOM     22  C   UNL A   1     -11.519  -0.817  40.143  0.00  0.00    -0.000 A 
ATOM     23  C   UNL A   1     -11.873  -2.223  39.855  0.00  0.00    -0.000 A 
ATOM     24  C   UNL A   1     -11.446  -1.765  37.770  0.00  0.00    -0.000 A 
ATOM     25  C   UNL A   1     -11.904  -2.577  38.595  0.00  0.00    -0.000 A 
ENDBRANCH   7  20
BRANCH   9  26
ATOM     26  C   UNL A   1     -13.913   3.043  36.205  0.00  0.00    +0.419 C 
ATOM     27  F   UNL A   1     -14.803   2.649  36.953  0.00  0.00    -0.166 F 
ATOM     28  F   UNL A   1     -13.726   4.424  36.654  0.00  0.00    -0.166 F 
ATOM     29  F   UNL A   1     -14.401   3.195  34.942  0.00  0.00    -0.166 F 
ENDBRANCH   9  26
TORSDOF 4
ENDMDL
ENDMDL
