REMARK  Name = No_3258-gen_results/8p0m/2024-11-27-11-27-31/
REMARK  4 active torsions:
REMARK  status: ('A' for Active; 'I' for Inactive)
REMARK    1  A    between atoms: C_2  and  C_7
REMARK    2  A    between atoms: C_9  and  C_11
REMARK    3  A    between atoms: C_16  and  C_24
REMARK    4  A    between atoms: C_18  and  C_20
REMARK                            x       y       z     vdW  Elec       q    Type
REMARK                         _______ _______ _______ _____ _____    ______ ____
ROOT
ATOM      1  C   UNL A   1     -28.016  -0.814  28.878  0.00  0.00    +0.032 C 
ATOM      2  C   UNL A   1     -28.469  -0.785  29.829  0.00  0.00    +0.045 C 
ATOM      3  C   UNL A   1     -27.087   0.290  28.638  0.00  0.00    -0.026 A 
ATOM      4  C   UNL A   1     -26.024   0.364  29.253  0.00  0.00    -0.026 A 
ATOM      5  C   UNL A   1     -27.537  -0.619  31.088  0.00  0.00    +0.011 C 
ATOM      6  C   UNL A   1     -26.384   0.183  30.801  0.00  0.00    +0.026 C 
ATOM      7  C   UNL A   1     -26.595   0.461  27.071  0.00  0.00    -0.004 A 
ATOM      8  C   UNL A   1     -25.493   0.908  26.765  0.00  0.00    +0.004 A 
ATOM      9  C   UNL A   1     -24.469   1.194  27.729  0.00  0.00    +0.071 A 
ATOM     10  C   UNL A   1     -24.744   0.928  29.046  0.00  0.00    -0.001 A 
ENDROOT
BRANCH   2  11
ATOM     11  C   UNL A   1     -29.623  -1.670  30.297  0.00  0.00    +0.065 A 
ATOM     12  N   UNL A   1     -29.607  -2.795  30.656  0.00  0.00    -0.248 NA
ATOM     13  C   UNL A   1     -30.946  -1.023  30.153  0.00  0.00    +0.093 A 
ATOM     14  C   UNL A   1     -30.670  -3.633  30.827  0.00  0.00    +0.099 A 
ATOM     15  C   UNL A   1     -32.054  -1.818  30.447  0.00  0.00    +0.009 A 
ATOM     16  C   UNL A   1     -31.911  -3.117  30.832  0.00  0.00    +0.021 A 
BRANCH  13  17
ATOM     17  C   UNL A   1     -31.053   0.324  29.710  0.00  0.00    +0.389 C 
ATOM     18  O   UNL A   1     -30.685   1.229  30.414  0.00  0.00    -0.240 OA
ATOM     19  O   UNL A   1     -31.768   0.522  28.631  0.00  0.00    -0.240 OA
ENDBRANCH  13  17
ENDBRANCH   2  11
BRANCH   7  20
ATOM     20  C   UNL A   1     -27.649   0.331  25.998  0.00  0.00    -0.000 A 
ATOM     21  C   UNL A   1     -28.849   1.045  26.090  0.00  0.00    -0.000 A 
ATOM     22  C   UNL A   1     -29.214   1.643  25.171  0.00  0.00    -0.000 A 
ATOM     23  C   UNL A   1     -28.910   1.146  23.812  0.00  0.00    -0.000 A 
ATOM     24  C   UNL A   1     -27.340  -0.042  24.740  0.00  0.00    -0.000 A 
ATOM     25  C   UNL A   1     -27.865   0.368  23.688  0.00  0.00    -0.000 A 
ENDBRANCH   7  20
BRANCH   9  26
ATOM     26  C   UNL A   1     -23.105   1.651  27.311  0.00  0.00    +0.419 C 
ATOM     27  F   UNL A   1     -22.915   2.039  26.162  0.00  0.00    -0.166 F 
ATOM     28  F   UNL A   1     -22.782   2.845  28.094  0.00  0.00    -0.166 F 
ATOM     29  F   UNL A   1     -22.128   0.774  27.673  0.00  0.00    -0.166 F 
ENDBRANCH   9  26
TORSDOF 4
