REMARK  Name = No_3259-gen_results/8p0m/2024-11-27-11-27-31/
REMARK  6 active torsions:
REMARK  status: ('A' for Active; 'I' for Inactive)
REMARK    1  A    between atoms: C_5  and  O_16
REMARK    2  A    between atoms: O_16  and  C_17
REMARK    3  A    between atoms: C_18  and  C_19
REMARK    4  A    between atoms: C_19  and  C_21
REMARK    5  A    between atoms: C_21  and  C_22
REMARK    6  A    between atoms: C_27  and  C_28
REMARK                            x       y       z     vdW  Elec       q    Type
REMARK                         _______ _______ _______ _____ _____    ______ ____
ROOT
ATOM      1  C   UNL A   1     -28.016  -0.814  28.878  0.00  0.00    +0.051 A 
ATOM      2  C   UNL A   1     -28.469  -0.785  29.829  0.00  0.00    +0.096 A 
ATOM      3  C   UNL A   1     -26.504  -0.778  28.877  0.00  0.00    +0.140 A 
ATOM      4  C   UNL A   1     -25.810  -0.853  30.103  0.00  0.00    +0.037 A 
ATOM      5  C   UNL A   1     -27.991  -0.892  31.226  0.00  0.00    +0.168 A 
ATOM      6  C   UNL A   1     -24.398  -0.836  30.177  0.00  0.00    +0.003 A 
ATOM      7  C   UNL A   1     -26.575  -0.890  31.266  0.00  0.00    +0.042 A 
ATOM      8  C   UNL A   1     -23.771  -0.918  31.096  0.00  0.00    -0.000 A 
ATOM      9  C   UNL A   1     -23.656  -0.714  28.886  0.00  0.00    +0.021 A 
ATOM     10  C   UNL A   1     -22.252  -0.575  28.940  0.00  0.00    -0.001 A 
ATOM     11  C   UNL A   1     -22.294  -0.763  31.309  0.00  0.00    -0.000 A 
ATOM     12  C   UNL A   1     -21.603  -0.585  30.099  0.00  0.00    -0.000 A 
ATOM     13 CL   UNL A   1     -30.309  -0.763  29.835  0.00  0.00    -0.079 Cl
ATOM     14  O   UNL A   1     -25.826  -0.773  27.751  0.00  0.00    -0.471 OA
ATOM     15  C   UNL A   1     -24.524  -0.653  27.726  0.00  0.00    +0.232 C 
ENDROOT
BRANCH   5  16
ATOM     16  O   UNL A   1     -28.740  -0.913  32.310  0.00  0.00    -0.404 OA
BRANCH  16  17
ATOM     17  C   UNL A   1     -29.838  -0.373  32.495  0.00  0.00    +0.120 C 
ATOM     18  C   UNL A   1     -30.759  -0.032  32.900  0.00  0.00    -0.014 C 
BRANCH  18  19
ATOM     19  C   UNL A   1     -31.810   0.588  33.337  0.00  0.00    +0.231 C 
ATOM     20  F   UNL A   1     -32.666   0.401  33.859  0.00  0.00    -0.223 F 
BRANCH  19  21
ATOM     21  C   UNL A   1     -31.939   1.843  32.433  0.00  0.00    +0.075 C 
BRANCH  21  22
ATOM     22  C   UNL A   1     -31.099   2.750  32.336  0.00  0.00    -0.018 A 
ATOM     23  C   UNL A   1     -30.786   3.491  33.556  0.00  0.00    -0.004 A 
ATOM     24  C   UNL A   1     -29.656   4.269  33.522  0.00  0.00    -0.000 A 
ATOM     25  C   UNL A   1     -30.401   3.191  31.174  0.00  0.00    -0.004 A 
ATOM     26  C   UNL A   1     -29.311   4.097  31.159  0.00  0.00    -0.000 A 
ATOM     27  C   UNL A   1     -28.991   4.737  32.402  0.00  0.00    -0.000 A 
BRANCH  27  28
ATOM     28  C   UNL A   1     -27.891   5.684  32.407  0.00  0.00    -0.005 C 
ATOM     29  C   UNL A   1     -27.849   6.663  32.942  0.00  0.00    -0.026 C 
ATOM     30  C   UNL A   1     -27.189   7.652  33.010  0.00  0.00    +0.031 C 
ENDBRANCH  27  28
ENDBRANCH  21  22
ENDBRANCH  19  21
ENDBRANCH  18  19
ENDBRANCH  16  17
ENDBRANCH   5  16
TORSDOF 6
