MODEL 3259
MODEL 1
REMARK VINA RESULT:    -6.629      0.000      0.000
REMARK INTER + INTRA:         -12.310
REMARK INTER:                  -8.954
REMARK INTRA:                  -3.356
REMARK UNBOUND:                -3.356
REMARK  Name = No_3259-gen_results/8p0m/2024-11-27-11-27-31/
REMARK  6 active torsions:
REMARK  status: ('A' for Active; 'I' for Inactive)
REMARK    1  A    between atoms: C_5  and  O_16
REMARK    2  A    between atoms: O_16  and  C_17
REMARK    3  A    between atoms: C_18  and  C_19
REMARK    4  A    between atoms: C_19  and  C_21
REMARK    5  A    between atoms: C_21  and  C_22
REMARK    6  A    between atoms: C_27  and  C_28
REMARK                            x       y       z     vdW  Elec       q    Type
REMARK                         _______ _______ _______ _____ _____    ______ ____
ROOT
ATOM      1  C   UNL A   1      -7.745   1.534  37.238  0.00  0.00    +0.051 A 
ATOM      2  C   UNL A   1      -8.188   1.604  36.284  0.00  0.00    +0.096 A 
ATOM      3  C   UNL A   1      -8.488   0.678  38.239  0.00  0.00    +0.140 A 
ATOM      4  C   UNL A   1      -9.608  -0.068  37.814  0.00  0.00    +0.037 A 
ATOM      5  C   UNL A   1      -9.303   0.921  35.589  0.00  0.00    +0.168 A 
ATOM      6  C   UNL A   1     -10.344  -0.897  38.692  0.00  0.00    +0.003 A 
ATOM      7  C   UNL A   1     -10.009   0.085  36.489  0.00  0.00    +0.042 A 
ATOM      8  C   UNL A   1     -11.220  -1.539  38.436  0.00  0.00    -0.000 A 
ATOM      9  C   UNL A   1      -9.893  -0.941  40.115  0.00  0.00    +0.021 A 
ATOM     10  C   UNL A   1     -10.679  -1.666  41.037  0.00  0.00    -0.001 A 
ATOM     11  C   UNL A   1     -12.158  -2.331  39.298  0.00  0.00    -0.000 A 
ATOM     12  C   UNL A   1     -11.769  -2.319  40.648  0.00  0.00    -0.000 A 
ATOM     13 CL   UNL A   1      -7.324   2.696  35.082  0.00  0.00    -0.079 Cl
ATOM     14  O   UNL A   1      -8.053   0.543  39.472  0.00  0.00    -0.471 OA
ATOM     15  C   UNL A   1      -8.727  -0.120  40.376  0.00  0.00    +0.232 C 
ENDROOT
BRANCH   5  16
ATOM     16  O   UNL A   1      -9.666   1.094  34.335  0.00  0.00    -0.404 OA
BRANCH  16  17
ATOM     17  C   UNL A   1     -10.794   1.343  33.889  0.00  0.00    +0.120 C 
ATOM     18  C   UNL A   1     -11.841   1.447  33.747  0.00  0.00    -0.014 C 
BRANCH  18  19
ATOM     19  C   UNL A   1     -13.073   1.788  33.532  0.00  0.00    +0.231 C 
ATOM     20  F   UNL A   1     -13.777   1.746  32.795  0.00  0.00    -0.223 F 
BRANCH  19  21
ATOM     21  C   UNL A   1     -13.357   2.926  34.548  0.00  0.00    +0.075 C 
BRANCH  21  22
ATOM     22  C   UNL A   1     -12.902   2.993  35.700  0.00  0.00    -0.018 A 
ATOM     23  C   UNL A   1     -13.600   2.226  36.729  0.00  0.00    -0.004 A 
ATOM     24  C   UNL A   1     -12.933   2.052  37.915  0.00  0.00    -0.000 A 
ATOM     25  C   UNL A   1     -11.786   3.745  36.169  0.00  0.00    -0.004 A 
ATOM     26  C   UNL A   1     -11.193   3.630  37.452  0.00  0.00    -0.000 A 
ATOM     27  C   UNL A   1     -11.874   2.798  38.402  0.00  0.00    -0.000 A 
BRANCH  27  28
ATOM     28  C   UNL A   1     -11.296   2.681  39.728  0.00  0.00    -0.005 C 
ATOM     29  C   UNL A   1     -11.736   2.154  40.609  0.00  0.00    -0.026 C 
ATOM     30  C   UNL A   1     -11.578   2.023  41.782  0.00  0.00    +0.031 C 
ENDBRANCH  27  28
ENDBRANCH  21  22
ENDBRANCH  19  21
ENDBRANCH  18  19
ENDBRANCH  16  17
ENDBRANCH   5  16
TORSDOF 6
ENDMDL
ENDMDL
