MODEL 325
MODEL 1
REMARK VINA RESULT:    -5.099      0.000      0.000
REMARK INTER + INTRA:          -5.099
REMARK INTER:                  -5.099
REMARK INTRA:                   0.000
REMARK UNBOUND:                 0.000
REMARK  Name = No_325-gen_results/8p0m/2024-11-27-11-27-31/
REMARK  0 active torsions:
REMARK  status: ('A' for Active; 'I' for Inactive)
REMARK                            x       y       z     vdW  Elec       q    Type
REMARK                         _______ _______ _______ _____ _____    ______ ____
ROOT
ATOM      1  C   UNL A   1     -22.714  -1.127  29.240  0.00  0.00    +0.099 A 
ATOM      2  C   UNL A   1     -22.832  -0.234  28.433  0.00  0.00    +0.019 A 
ATOM      3  C   UNL A   1     -24.029  -0.033  27.754  0.00  0.00    +0.004 A 
ATOM      4  C   UNL A   1     -24.295   1.021  26.733  0.00  0.00    +0.011 A 
ATOM      5  C   UNL A   1     -23.270   1.997  26.562  0.00  0.00    +0.058 A 
ATOM      6  C   UNL A   1     -22.088   1.809  27.305  0.00  0.00    +0.011 A 
ATOM      7  C   UNL A   1     -21.887   0.806  28.173  0.00  0.00    +0.002 A 
ATOM      8  N   UNL A   1     -23.614  -2.220  29.260  0.00  0.00    -0.242 NA
ATOM      9  C   UNL A   1     -24.885  -2.042  28.723  0.00  0.00    +0.099 A 
ATOM     10  C   UNL A   1     -25.102  -1.024  27.841  0.00  0.00    +0.021 A 
ATOM     11 CL   UNL A   1     -23.535   3.272  25.451  0.00  0.00    -0.082 Cl
ENDROOT
TORSDOF 0
ENDMDL
ENDMDL
