MODEL 3260
MODEL 1
REMARK VINA RESULT:    -7.105      0.000      0.000
REMARK INTER + INTRA:          -9.161
REMARK INTER:                  -8.352
REMARK INTRA:                  -0.809
REMARK UNBOUND:                -0.809
REMARK  Name = No_3260-gen_results/8p0m/2024-11-27-11-27-31/
REMARK  3 active torsions:
REMARK  status: ('A' for Active; 'I' for Inactive)
REMARK    1  A    between atoms: C_2  and  C_13
REMARK    2  A    between atoms: C_4  and  C_7
REMARK    3  A    between atoms: N_15  and  C_16
REMARK                            x       y       z     vdW  Elec       q    Type
REMARK                         _______ _______ _______ _____ _____    ______ ____
ROOT
ATOM      1  C   UNL A   1     -24.217  -0.919  28.220  0.00  0.00    +0.005 A 
ATOM      2  C   UNL A   1     -23.400  -0.263  28.327  0.00  0.00    +0.055 A 
ATOM      3  C   UNL A   1     -25.303  -0.456  27.275  0.00  0.00    +0.000 A 
ATOM      4  C   UNL A   1     -25.101   0.711  26.509  0.00  0.00    +0.000 A 
ATOM      5  C   UNL A   1     -22.938   0.964  27.639  0.00  0.00    +0.005 A 
ATOM      6  C   UNL A   1     -23.909   1.417  26.757  0.00  0.00    +0.000 A 
ENDROOT
BRANCH   4   7
ATOM      7  C   UNL A   1     -26.095   1.204  25.618  0.00  0.00    +0.000 A 
ATOM      8  C   UNL A   1     -26.490   2.238  25.582  0.00  0.00    +0.000 A 
ATOM      9  C   UNL A   1     -27.592   2.813  24.723  0.00  0.00    +0.000 A 
ATOM     10  C   UNL A   1     -28.114   1.888  23.904  0.00  0.00    +0.000 A 
ATOM     11  C   UNL A   1     -26.749   0.271  24.706  0.00  0.00    +0.000 A 
ATOM     12  C   UNL A   1     -27.718   0.596  23.895  0.00  0.00    +0.000 A 
ENDBRANCH   4   7
BRANCH   2  13
ATOM     13  C   UNL A   1     -22.131  -0.614  29.288  0.00  0.00    +0.269 C 
ATOM     14  O   UNL A   1     -21.154  -1.095  28.882  0.00  0.00    -0.268 OA
ATOM     15  N   UNL A   1     -22.373  -0.470  30.626  0.00  0.00    -0.175 NA
BRANCH  15  16
ATOM     16  C   UNL A   1     -23.548   0.093  31.232  0.00  0.00    +0.074 A 
ATOM     17  C   UNL A   1     -24.228  -0.794  31.890  0.00  0.00    +0.017 A 
ATOM     18  C   UNL A   1     -25.370  -0.355  32.636  0.00  0.00    +0.001 A 
ATOM     19  C   UNL A   1     -25.774   1.003  32.569  0.00  0.00    +0.000 A 
ATOM     20  C   UNL A   1     -25.006   1.886  31.800  0.00  0.00    +0.001 A 
ATOM     21  C   UNL A   1     -23.839   1.425  31.148  0.00  0.00    +0.017 A 
ENDBRANCH  15  16
ENDBRANCH   2  13
TORSDOF 3
ENDMDL
ENDMDL
