MODEL 3261
MODEL 1
REMARK VINA RESULT:    -7.429      0.000      0.000
REMARK INTER + INTRA:         -12.230
REMARK INTER:                 -10.903
REMARK INTRA:                  -1.326
REMARK UNBOUND:                -1.326
REMARK  Name = No_3261-gen_results/8p0m/2024-11-27-11-27-31/
REMARK  8 active torsions:
REMARK  status: ('A' for Active; 'I' for Inactive)
REMARK    1  A    between atoms: C_1  and  C_2
REMARK    2  A    between atoms: C_1  and  N_12
REMARK    3  A    between atoms: C_2  and  C_5
REMARK    4  A    between atoms: C_5  and  C_6
REMARK    5  A    between atoms: C_7  and  C_24
REMARK    6  A    between atoms: N_12  and  C_14
REMARK    7  A    between atoms: C_14  and  C_15
REMARK    8  A    between atoms: C_24  and  C_25
REMARK                            x       y       z     vdW  Elec       q    Type
REMARK                         _______ _______ _______ _____ _____    ______ ____
ROOT
ATOM      1  C   UNL A   1     -26.147   0.303  25.677  0.00  0.00    +0.211 C 
ATOM      2  F   UNL A   1     -25.814  -0.501  24.802  0.00  0.00    -0.233 F 
ENDROOT
BRANCH   1   3
ATOM      3  C   UNL A   1     -26.989   1.089  25.310  0.00  0.00    +0.246 C 
ATOM      4  O   UNL A   1     -26.716   2.378  25.497  0.00  0.00    -0.202 OA
BRANCH   3   5
ATOM      5  N   UNL A   1     -28.345   0.760  25.302  0.00  0.00    -0.243 NA
ATOM      6  C   UNL A   1     -29.154   0.682  26.438  0.00  0.00    +0.092 C 
BRANCH   5   7
ATOM      7  C   UNL A   1     -28.968   0.156  24.117  0.00  0.00    +0.099 C 
BRANCH   7   8
ATOM      8  C   UNL A   1     -30.298   0.688  23.853  0.00  0.00    +0.149 C 
ATOM      9  C   UNL A   1     -31.179  -0.044  23.274  0.00  0.00    +0.200 C 
ATOM     10  O   UNL A   1     -31.441  -1.149  23.653  0.00  0.00    -0.292 OA
ATOM     11  N   UNL A   1     -29.919   1.975  23.111  0.00  0.00    -0.208 NA
ATOM     12  C   UNL A   1     -30.899   2.706  22.672  0.00  0.00    +0.125 C 
ATOM     13  C   UNL A   1     -31.923   1.918  21.971  0.00  0.00    +0.207 C 
ATOM     14  C   UNL A   1     -32.485   0.870  22.869  0.00  0.00    +0.241 C 
ATOM     15  O   UNL A   1     -33.433   0.026  22.288  0.00  0.00    -0.212 OA
ATOM     16  O   UNL A   1     -33.027   2.863  21.674  0.00  0.00    -0.218 OA
ENDBRANCH   7   8
ENDBRANCH   5   7
ENDBRANCH   3   5
ENDBRANCH   1   3
BRANCH   1  17
ATOM     17  C   UNL A   1     -25.720  -0.103  27.041  0.00  0.00    +0.066 C 
BRANCH  17  18
ATOM     18  C   UNL A   1     -24.498   0.086  27.555  0.00  0.00    -0.023 A 
ATOM     19  C   UNL A   1     -24.093  -0.234  28.873  0.00  0.00    -0.022 A 
ATOM     20  C   UNL A   1     -22.806   0.034  29.366  0.00  0.00    -0.004 A 
ATOM     21  C   UNL A   1     -21.921   0.820  28.528  0.00  0.00    -0.000 A 
ATOM     22  C   UNL A   1     -22.358   1.308  27.314  0.00  0.00    -0.000 A 
ATOM     23  C   UNL A   1     -23.570   0.963  26.851  0.00  0.00    -0.004 A 
BRANCH  19  24
ATOM     24  C   UNL A   1     -24.907  -1.073  29.721  0.00  0.00    +0.052 C 
BRANCH  24  25
ATOM     25  C   UNL A   1     -24.950  -2.468  29.446  0.00  0.00    -0.018 A 
ATOM     26  C   UNL A   1     -23.868  -3.090  28.850  0.00  0.00    -0.004 A 
ATOM     27  C   UNL A   1     -26.055  -3.204  29.957  0.00  0.00    -0.004 A 
ATOM     28  C   UNL A   1     -26.113  -4.628  29.636  0.00  0.00    -0.000 A 
ATOM     29  C   UNL A   1     -23.962  -4.460  28.522  0.00  0.00    -0.000 A 
ATOM     30  C   UNL A   1     -25.119  -5.213  28.908  0.00  0.00    -0.000 A 
ENDBRANCH  24  25
ENDBRANCH  19  24
ENDBRANCH  17  18
ENDBRANCH   1  17
TORSDOF 8
ENDMDL
ENDMDL
