REMARK  Name = No_3261-gen_results/8p0m/2024-11-27-11-27-31/
REMARK  8 active torsions:
REMARK  status: ('A' for Active; 'I' for Inactive)
REMARK    1  A    between atoms: C_1  and  C_2
REMARK    2  A    between atoms: C_1  and  N_12
REMARK    3  A    between atoms: C_2  and  C_5
REMARK    4  A    between atoms: C_5  and  C_6
REMARK    5  A    between atoms: C_7  and  C_24
REMARK    6  A    between atoms: N_12  and  C_14
REMARK    7  A    between atoms: C_14  and  C_15
REMARK    8  A    between atoms: C_24  and  C_25
REMARK                            x       y       z     vdW  Elec       q    Type
REMARK                         _______ _______ _______ _____ _____    ______ ____
ROOT
ATOM      1  C   UNL A   1     -27.064  -0.119  28.608  0.00  0.00    +0.211 C 
ATOM      2  F   UNL A   1     -27.043   0.244  27.428  0.00  0.00    -0.233 F 
ENDROOT
BRANCH   1   3
ATOM      3  C   UNL A   1     -28.016  -0.814  28.878  0.00  0.00    +0.246 C 
ATOM      4  O   UNL A   1     -29.214  -0.246  28.764  0.00  0.00    -0.202 OA
BRANCH   3   5
ATOM      5  N   UNL A   1     -27.929  -1.843  29.816  0.00  0.00    -0.243 NA
ATOM      6  C   UNL A   1     -26.748  -2.492  30.182  0.00  0.00    +0.092 C 
BRANCH   5   7
ATOM      7  C   UNL A   1     -29.132  -2.551  30.274  0.00  0.00    +0.099 C 
BRANCH   7   8
ATOM      8  C   UNL A   1     -29.123  -2.798  31.709  0.00  0.00    +0.149 C 
ATOM      9  C   UNL A   1     -29.905  -3.682  32.214  0.00  0.00    +0.200 C 
ATOM     10  O   UNL A   1     -29.968  -4.798  31.785  0.00  0.00    -0.292 OA
ATOM     11  N   UNL A   1     -29.329  -1.367  32.219  0.00  0.00    -0.208 NA
ATOM     12  C   UNL A   1     -29.418  -1.213  33.506  0.00  0.00    +0.125 C 
ATOM     13  C   UNL A   1     -30.328  -2.183  34.131  0.00  0.00    +0.207 C 
ATOM     14  C   UNL A   1     -29.880  -3.577  33.855  0.00  0.00    +0.241 C 
ATOM     15  O   UNL A   1     -30.704  -4.585  34.359  0.00  0.00    -0.212 OA
ATOM     16  O   UNL A   1     -30.199  -1.975  35.594  0.00  0.00    -0.218 OA
ENDBRANCH   7   8
ENDBRANCH   5   7
ENDBRANCH   3   5
ENDBRANCH   1   3
BRANCH   1  17
ATOM     17  C   UNL A   1     -25.766   0.070  29.304  0.00  0.00    +0.066 C 
BRANCH  17  18
ATOM     18  C   UNL A   1     -24.624   0.452  28.717  0.00  0.00    -0.023 A 
ATOM     19  C   UNL A   1     -23.337   0.420  29.306  0.00  0.00    -0.022 A 
ATOM     20  C   UNL A   1     -22.183   0.880  28.651  0.00  0.00    -0.004 A 
ATOM     21  C   UNL A   1     -22.363   1.563  27.384  0.00  0.00    -0.000 A 
ATOM     22  C   UNL A   1     -23.628   1.776  26.878  0.00  0.00    -0.000 A 
ATOM     23  C   UNL A   1     -24.695   1.252  27.501  0.00  0.00    -0.004 A 
BRANCH  19  24
ATOM     24  C   UNL A   1     -23.093  -0.307  30.529  0.00  0.00    +0.052 C 
BRANCH  24  25
ATOM     25  C   UNL A   1     -23.878   0.014  31.671  0.00  0.00    -0.018 A 
ATOM     26  C   UNL A   1     -24.039  -0.913  32.684  0.00  0.00    -0.004 A 
ATOM     27  C   UNL A   1     -24.331   1.357  31.799  0.00  0.00    -0.004 A 
ATOM     28  C   UNL A   1     -25.171   1.669  32.954  0.00  0.00    -0.000 A 
ATOM     29  C   UNL A   1     -24.880  -0.598  33.773  0.00  0.00    -0.000 A 
ATOM     30  C   UNL A   1     -25.462   0.707  33.876  0.00  0.00    -0.000 A 
ENDBRANCH  24  25
ENDBRANCH  19  24
ENDBRANCH  17  18
ENDBRANCH   1  17
TORSDOF 8
