MODEL 3262
MODEL 1
REMARK VINA RESULT:    -7.802      0.000      0.000
REMARK INTER + INTRA:          -8.386
REMARK INTER:                  -8.258
REMARK INTRA:                  -0.127
REMARK UNBOUND:                -0.127
REMARK  Name = No_3262-gen_results/8p0m/2024-11-27-11-27-31/
REMARK  1 active torsions:
REMARK  status: ('A' for Active; 'I' for Inactive)
REMARK    1  A    between atoms: C_2  and  C_10
REMARK                            x       y       z     vdW  Elec       q    Type
REMARK                         _______ _______ _______ _____ _____    ______ ____
ROOT
ATOM      1  C   UNL A   1     -29.346 -13.173  32.896  0.00  0.00    +0.013 A 
ATOM      2  C   UNL A   1     -28.712 -12.387  32.596  0.00  0.00    +0.080 A 
ATOM      3  C   UNL A   1     -30.128 -13.745  31.800  0.00  0.00    +0.075 A 
ATOM      4  C   UNL A   1     -31.010 -14.924  31.949  0.00  0.00    +0.346 C 
ATOM      5  C   UNL A   1     -28.422 -11.722  31.333  0.00  0.00    +0.003 A 
ATOM      6  C   UNL A   1     -29.151 -12.226  30.276  0.00  0.00    -0.018 A 
ATOM      7  C   UNL A   1     -29.973 -13.272  30.471  0.00  0.00    +0.020 A 
ATOM      8  O   UNL A   1     -31.897 -14.967  31.144  0.00  0.00    -0.418 OA
ATOM      9  O   UNL A   1     -30.860 -15.694  32.892  0.00  0.00    -0.244 OA
ATOM     10  C   UNL A   1     -31.932 -16.169  30.259  0.00  0.00    +0.182 A 
ATOM     11  C   UNL A   1     -31.243 -16.163  29.115  0.00  0.00    +0.173 A 
ATOM     12  C   UNL A   1     -30.920 -17.459  28.499  0.00  0.00    +0.040 A 
ATOM     13  C   UNL A   1     -31.685 -18.564  28.863  0.00  0.00    +0.003 A 
ATOM     14  C   UNL A   1     -32.509 -18.449  29.961  0.00  0.00    +0.003 A 
ATOM     15  C   UNL A   1     -32.607 -17.293  30.749  0.00  0.00    +0.041 A 
ATOM     16  C   UNL A   1     -28.970 -11.630  28.925  0.00  0.00    +0.052 C 
ATOM     17  C   UNL A   1     -29.504 -12.064  27.969  0.00  0.00    -0.018 A 
ATOM     18  C   UNL A   1     -29.406 -11.562  26.564  0.00  0.00    -0.004 A 
ATOM     19  C   UNL A   1     -30.105 -12.128  25.428  0.00  0.00    -0.000 A 
ATOM     20  C   UNL A   1     -31.025 -13.150  25.798  0.00  0.00    -0.000 A 
ATOM     21  C   UNL A   1     -31.184 -13.557  27.068  0.00  0.00    -0.001 A 
ATOM     22  C   UNL A   1     -30.529 -13.071  28.048  0.00  0.00    +0.014 A 
ATOM     23  C   UNL A   1     -30.723 -13.707  29.373  0.00  0.00    +0.170 C 
ATOM     24  O   UNL A   1     -30.528 -15.046  28.711  0.00  0.00    -0.471 OA
ATOM     25  C   UNL A   1     -32.197 -13.134  29.481  0.00  0.00    +0.053 C 
ENDROOT
BRANCH   2  26
ATOM     26  C   UNL A   1     -27.722 -11.716  33.707  0.00  0.00    +0.388 C 
ATOM     27  O   UNL A   1     -27.166 -12.325  34.518  0.00  0.00    -0.241 OA
ATOM     28  O   UNL A   1     -27.839 -10.449  33.804  0.00  0.00    -0.241 OA
ENDBRANCH   2  26
TORSDOF 1
ENDMDL
ENDMDL
