MODEL 3263
MODEL 1
REMARK VINA RESULT:    -7.613      0.000      0.000
REMARK INTER + INTRA:          -8.356
REMARK INTER:                  -8.058
REMARK INTRA:                  -0.298
REMARK UNBOUND:                -0.298
REMARK  Name = No_3263-gen_results/8p0m/2024-11-27-11-27-31/
REMARK  1 active torsions:
REMARK  status: ('A' for Active; 'I' for Inactive)
REMARK    1  A    between atoms: C_4  and  C_11
REMARK                            x       y       z     vdW  Elec       q    Type
REMARK                         _______ _______ _______ _____ _____    ______ ____
ROOT
ATOM      1  C   UNL A   1     -23.983  -4.680  28.544  0.00  0.00    +0.000 A 
ATOM      2  C   UNL A   1     -23.886  -3.476  28.603  0.00  0.00    +0.000 A 
ATOM      3  C   UNL A   1     -24.837  -2.654  29.208  0.00  0.00    +0.000 A 
ATOM      4  C   UNL A   1     -24.807  -1.183  29.314  0.00  0.00    +0.000 A 
ATOM      5  C   UNL A   1     -25.828  -0.362  29.911  0.00  0.00    +0.000 A 
ATOM      6  C   UNL A   1     -26.813  -1.068  30.608  0.00  0.00    +0.000 A 
ATOM      7  C   UNL A   1     -25.273  -5.293  29.011  0.00  0.00    +0.000 A 
ATOM      8  C   UNL A   1     -26.224  -4.574  29.698  0.00  0.00    +0.000 A 
ATOM      9  C   UNL A   1     -26.085  -3.202  29.801  0.00  0.00    +0.000 A 
ATOM     10  C   UNL A   1     -27.014  -2.427  30.495  0.00  0.00    +0.000 A 
ENDROOT
BRANCH   4  11
ATOM     11  C   UNL A   1     -23.659  -0.413  28.732  0.00  0.00    +0.000 A 
ATOM     12  C   UNL A   1     -23.961   0.529  27.756  0.00  0.00    +0.000 A 
ATOM     13  C   UNL A   1     -22.397  -0.689  29.093  0.00  0.00    +0.000 A 
ATOM     14  C   UNL A   1     -21.346   0.143  28.741  0.00  0.00    +0.000 A 
ATOM     15  C   UNL A   1     -22.919   1.390  27.291  0.00  0.00    +0.000 A 
ATOM     16  C   UNL A   1     -21.604   1.111  27.659  0.00  0.00    +0.000 A 
ENDBRANCH   4  11
TORSDOF 1
ENDMDL
ENDMDL
