MODEL 3265
MODEL 1
REMARK VINA RESULT:    -6.552      0.000      0.000
REMARK INTER + INTRA:          -8.142
REMARK INTER:                  -7.701
REMARK INTRA:                  -0.440
REMARK UNBOUND:                -0.440
REMARK  Name = No_3265-gen_results/8p0m/2024-11-27-11-27-31/
REMARK  3 active torsions:
REMARK  status: ('A' for Active; 'I' for Inactive)
REMARK    1  A    between atoms: C_3  and  C_4
REMARK    2  A    between atoms: C_16  and  O_17
REMARK    3  A    between atoms: O_17  and  C_18
REMARK                            x       y       z     vdW  Elec       q    Type
REMARK                         _______ _______ _______ _____ _____    ______ ____
ROOT
ATOM      1  C   UNL A   1     -23.987   1.091  26.533  0.00  0.00    +0.002 A 
ATOM      2  C   UNL A   1     -22.860   1.840  26.043  0.00  0.00    +0.000 A 
ATOM      3  C   UNL A   1     -21.710   1.840  26.778  0.00  0.00    +0.003 A 
ATOM      4  C   UNL A   1     -21.545   1.437  28.064  0.00  0.00    +0.037 A 
ATOM      5  C   UNL A   1     -23.815   0.603  27.893  0.00  0.00    +0.055 A 
ATOM      6  C   UNL A   1     -22.626   0.782  28.599  0.00  0.00    +0.138 A 
ATOM      7  O   UNL A   1     -22.598   0.286  29.864  0.00  0.00    -0.471 OA
ATOM      8  C   UNL A   1     -23.906   0.277  30.433  0.00  0.00    +0.253 C 
ATOM      9  C   UNL A   1     -24.872   0.255  28.740  0.00  0.00    +0.235 C 
ENDROOT
BRANCH   1  12
ATOM     10  C   UNL A   1     -26.905  -0.083  24.662  0.00  0.00    +0.007 A 
ATOM     11  C   UNL A   1     -25.812  -0.109  25.179  0.00  0.00    +0.001 A 
ATOM     12  C   UNL A   1     -25.316   0.994  25.865  0.00  0.00    -0.000 A 
ATOM     13  C   UNL A   1     -27.656   1.180  24.586  0.00  0.00    +0.035 A 
ATOM     14  C   UNL A   1     -27.292   2.292  25.286  0.00  0.00    +0.007 A 
ATOM     15  C   UNL A   1     -26.068   2.240  25.975  0.00  0.00    +0.001 A 
ATOM     16 BR   UNL A   1     -29.315   1.270  23.662  0.00  0.00    -0.049 Br
ENDBRANCH   1  12
BRANCH   9  17
ATOM     17  O   UNL A   1     -25.294  -0.918  28.815  0.00  0.00    -0.467 OA
BRANCH  17  18
ATOM     18  C   UNL A   1     -24.733  -1.960  28.092  0.00  0.00    +0.185 C 
ATOM     19  C   UNL A   1     -24.139  -2.970  28.826  0.00  0.00    +0.108 C 
ATOM     20 CL   UNL A   1     -24.105  -4.177  28.712  0.00  0.00    -0.078 Cl
ENDBRANCH  17  18
ENDBRANCH   9  17
TORSDOF 3
ENDMDL
ENDMDL
