REMARK  Name = No_3265-gen_results/8p0m/2024-11-27-11-27-31/
REMARK  3 active torsions:
REMARK  status: ('A' for Active; 'I' for Inactive)
REMARK    1  A    between atoms: C_3  and  C_4
REMARK    2  A    between atoms: C_16  and  O_17
REMARK    3  A    between atoms: O_17  and  C_18
REMARK                            x       y       z     vdW  Elec       q    Type
REMARK                         _______ _______ _______ _____ _____    ______ ____
ROOT
ATOM      1  C   UNL A   1     -24.546   0.349  28.823  0.00  0.00    +0.002 A 
ATOM      2  C   UNL A   1     -23.241   0.022  29.332  0.00  0.00    +0.000 A 
ATOM      3  C   UNL A   1     -22.192   0.830  29.000  0.00  0.00    +0.003 A 
ATOM      4  C   UNL A   1     -22.147   1.778  28.029  0.00  0.00    +0.037 A 
ATOM      5  C   UNL A   1     -24.532   1.399  27.816  0.00  0.00    +0.055 A 
ATOM      6  C   UNL A   1     -23.362   2.069  27.461  0.00  0.00    +0.138 A 
ATOM      7  O   UNL A   1     -23.484   3.023  26.501  0.00  0.00    -0.471 OA
ATOM      8  C   UNL A   1     -24.564   2.719  25.620  0.00  0.00    +0.253 C 
ATOM      9  C   UNL A   1     -25.545   1.592  26.871  0.00  0.00    +0.235 C 
ENDROOT
BRANCH   1  12
ATOM     10  C   UNL A   1     -28.016  -0.814  28.878  0.00  0.00    +0.007 A 
ATOM     11  C   UNL A   1     -27.064  -0.119  28.608  0.00  0.00    +0.001 A 
ATOM     12  C   UNL A   1     -25.792  -0.430  29.076  0.00  0.00    -0.000 A 
ATOM     13  C   UNL A   1     -27.882  -1.899  29.863  0.00  0.00    +0.035 A 
ATOM     14  C   UNL A   1     -26.671  -2.327  30.321  0.00  0.00    +0.007 A 
ATOM     15  C   UNL A   1     -25.543  -1.585  29.932  0.00  0.00    +0.001 A 
ATOM     16 BR   UNL A   1     -29.395  -2.917  30.399  0.00  0.00    -0.049 Br
ENDBRANCH   1  12
BRANCH   9  17
ATOM     17  O   UNL A   1     -26.495   2.376  27.078  0.00  0.00    -0.467 OA
BRANCH  17  18
ATOM     18  C   UNL A   1     -27.692   2.298  26.380  0.00  0.00    +0.185 C 
ATOM     19  C   UNL A   1     -28.801   2.847  26.996  0.00  0.00    +0.108 C 
ATOM     20 CL   UNL A   1     -29.746   3.493  26.594  0.00  0.00    -0.078 Cl
ENDBRANCH  17  18
ENDBRANCH   9  17
TORSDOF 3
