MODEL 3266
MODEL 1
REMARK VINA RESULT:    -6.183      0.000      0.000
REMARK INTER + INTRA:          -7.279
REMARK INTER:                  -6.906
REMARK INTRA:                  -0.373
REMARK UNBOUND:                -0.373
REMARK  Name = No_3266-gen_results/8p0m/2024-11-27-11-27-31/
REMARK  2 active torsions:
REMARK  status: ('A' for Active; 'I' for Inactive)
REMARK    1  A    between atoms: C_2  and  C_3
REMARK    2  A    between atoms: N_4  and  C_11
REMARK                            x       y       z     vdW  Elec       q    Type
REMARK                         _______ _______ _______ _____ _____    ______ ____
ROOT
ATOM      1  O   UNL A   1     -24.172   1.154  29.349  0.00  0.00    -0.270 OA
ATOM      2  C   UNL A   1     -24.443   0.087  29.690  0.00  0.00    +0.253 C 
ATOM      3  N   UNL A   1     -24.898  -0.970  28.768  0.00  0.00    -0.253 N 
ATOM      4  C   UNL A   1     -25.082  -0.586  27.368  0.00  0.00    +0.120 C 
ENDROOT
BRANCH   2   5
ATOM      5  C   UNL A   1     -24.227  -0.332  30.987  0.00  0.00    +0.054 A 
ATOM      6  C   UNL A   1     -23.010  -0.910  31.433  0.00  0.00    +0.004 A 
ATOM      7  C   UNL A   1     -25.245  -0.197  32.016  0.00  0.00    +0.004 A 
ATOM      8  C   UNL A   1     -22.890  -1.434  32.739  0.00  0.00    +0.000 A 
ATOM      9  C   UNL A   1     -25.039  -0.515  33.386  0.00  0.00    +0.000 A 
ATOM     10  C   UNL A   1     -23.812  -1.164  33.706  0.00  0.00    +0.000 A 
ENDBRANCH   2   5
BRANCH   3  11
ATOM     11  C   UNL A   1     -25.151  -2.284  29.152  0.00  0.00    +0.054 A 
ATOM     12  C   UNL A   1     -26.129  -2.636  29.525  0.00  0.00    +0.015 A 
ATOM     13  C   UNL A   1     -26.431  -4.113  29.786  0.00  0.00    +0.001 A 
ATOM     14  C   UNL A   1     -25.416  -4.989  29.385  0.00  0.00    +0.000 A 
ATOM     15  C   UNL A   1     -24.248  -4.506  28.804  0.00  0.00    +0.001 A 
ATOM     16  C   UNL A   1     -24.072  -3.119  28.654  0.00  0.00    +0.015 A 
ENDBRANCH   3  11
TORSDOF 2
ENDMDL
ENDMDL
