MODEL 3267
MODEL 1
REMARK VINA RESULT:    -7.083      0.000      0.000
REMARK INTER + INTRA:          -8.960
REMARK INTER:                  -8.326
REMARK INTRA:                  -0.635
REMARK UNBOUND:                -0.635
REMARK  Name = No_3267-gen_results/8p0m/2024-11-27-11-27-31/
REMARK  3 active torsions:
REMARK  status: ('A' for Active; 'I' for Inactive)
REMARK    1  A    between atoms: C_1  and  C_7
REMARK    2  A    between atoms: C_3  and  C_14
REMARK    3  A    between atoms: C_5  and  C_10
REMARK                            x       y       z     vdW  Elec       q    Type
REMARK                         _______ _______ _______ _____ _____    ______ ____
ROOT
ATOM      1  C   UNL A   1     -10.631   1.208  35.067  0.00  0.00    +0.080 A 
ATOM      2  C   UNL A   1     -11.067   0.766  36.105  0.00  0.00    +0.007 A 
ATOM      3  C   UNL A   1     -10.401  -0.162  36.880  0.00  0.00    +0.000 A 
ATOM      4  C   UNL A   1      -9.114  -0.591  36.450  0.00  0.00    +0.005 A 
ATOM      5  C   UNL A   1      -8.599   0.057  35.378  0.00  0.00    +0.055 A 
ATOM      6  C   UNL A   1      -9.294   0.964  34.720  0.00  0.00    +0.011 A 
ENDROOT
BRANCH   3   7
ATOM      7  C   UNL A   1     -11.043  -0.848  38.080  0.00  0.00    +0.000 A 
ATOM      8  C   UNL A   1     -11.436  -2.121  37.888  0.00  0.00    +0.000 A 
ATOM      9  C   UNL A   1     -12.312  -2.747  38.832  0.00  0.00    +0.000 A 
ATOM     10  C   UNL A   1     -12.333  -2.146  40.078  0.00  0.00    +0.000 A 
ATOM     11  C   UNL A   1     -11.918  -0.824  40.269  0.00  0.00    +0.000 A 
ATOM     12  C   UNL A   1     -11.251  -0.153  39.249  0.00  0.00    +0.000 A 
ENDBRANCH   3   7
BRANCH   5  13
ATOM     13  C   UNL A   1      -7.237  -0.360  34.966  0.00  0.00    +0.265 C 
ATOM     14  N   UNL A   1      -7.018  -1.504  34.689  0.00  0.00    -0.200 NA
ATOM     15  O   UNL A   1      -6.256   0.452  34.957  0.00  0.00    -0.268 OA
ATOM     16  C   UNL A   1      -5.695  -2.085  34.350  0.00  0.00    +0.139 C 
ENDBRANCH   5  13
BRANCH   1  17
ATOM     17  C   UNL A   1     -11.423   2.229  34.289  0.00  0.00    +0.388 C 
ATOM     18  O   UNL A   1     -11.402   3.264  34.271  0.00  0.00    -0.241 OA
ATOM     19  O   UNL A   1     -12.012   1.539  33.145  0.00  0.00    -0.241 OA
ENDBRANCH   1  17
TORSDOF 3
ENDMDL
ENDMDL
