REMARK  Name = outputs/IAG933/test6/raw/output_3267_IAG933_linker_design_.xyz
REMARK  10 active torsions:
REMARK  status: ('A' for Active; 'I' for Inactive)
REMARK    1  A    between atoms: C_1  and  C_2
REMARK    2  A    between atoms: C_1  and  C_8
REMARK    3  A    between atoms: C_1  and  C_29
REMARK    4  A    between atoms: C_14  and  C_15
REMARK    5  A    between atoms: C_21  and  O_22
REMARK    6  A    between atoms: O_22  and  C_23
REMARK    7  A    between atoms: C_23  and  C_24
REMARK    8  A    between atoms: C_28  and  N_30
REMARK    9  A    between atoms: C_29  and  N_30
REMARK   10  A    between atoms: C_29  and  C_31
REMARK                            x       y       z     vdW  Elec       q    Type
REMARK                         _______ _______ _______ _____ _____    ______ ____
ROOT
ATOM      1  C   UNL A   1     -25.688   1.614  26.461  0.00  0.00    +0.059 C 
ATOM      2  C   UNL A   1     -26.250   2.920  26.395  0.00  0.00    +0.080 C 
ATOM      3  C   UNL A   1     -27.438   3.091  25.645  0.00  0.00    +0.107 C 
ATOM      4  N   UNL A   1     -28.075   2.089  25.003  0.00  0.00    -0.211 NA
ATOM      5  C   UNL A   1     -27.543   0.849  25.079  0.00  0.00    +0.239 C 
ATOM      6  C   UNL A   1     -26.354   0.576  25.777  0.00  0.00    +0.265 C 
ATOM      7  F   UNL A   1     -25.860  -0.681  25.795  0.00  0.00    -0.222 F 
ATOM      8  C   UNL A   1     -23.348   0.404  28.544  0.00  0.00    +0.069 C 
ATOM      9  C   UNL A   1     -21.021   0.506  28.270  0.00  0.00    -0.003 C 
ATOM     10  C   UNL A   1     -22.304   1.456  26.803  0.00  0.00    +0.061 C 
ATOM     11 CL   UNL A   1     -22.524   2.246  25.064  0.00  0.00    -0.082 Cl
ATOM     12  C   UNL A   1     -23.427   1.142  27.448  0.00  0.00    +0.028 C 
ATOM     13  C   UNL A   1     -22.118   0.130  29.000  0.00  0.00    -0.020 C 
ATOM     14  C   UNL A   1     -24.499   1.609  26.931  0.00  0.00    -0.106 C 
ATOM     15  C   UNL A   1     -21.086   1.212  27.177  0.00  0.00    +0.011 C 
ENDROOT
BRANCH   2  16
ATOM     16  C   UNL A   1     -25.642   4.093  27.123  0.00  0.00    +0.267 C 
ATOM     17  N   UNL A   1     -25.614   5.252  26.449  0.00  0.00    -0.200 NA
ATOM     18  C   UNL A   1     -25.026   6.479  26.963  0.00  0.00    +0.139 C 
ATOM     19  O   UNL A   1     -25.143   3.966  28.243  0.00  0.00    -0.268 OA
ENDBRANCH   2  16
BRANCH   5  20
ATOM     20  O   UNL A   1     -28.193  -0.208  24.477  0.00  0.00    -0.458 OA
BRANCH  20  21
ATOM     21  C   UNL A   1     -29.460   0.005  23.866  0.00  0.00    +0.242 C 
BRANCH  21  22
ATOM     22  C   UNL A   1     -30.065  -1.377  23.573  0.00  0.00    +0.229 C 
ATOM     23  O   UNL A   1     -30.729  -1.878  24.721  0.00  0.00    -0.216 OA
ENDBRANCH  21  22
ENDBRANCH  20  21
ENDBRANCH   5  20
BRANCH   8  24
ATOM     24  C   UNL A   1     -24.515  -0.129  29.129  0.00  0.00    +0.087 C 
BRANCH  24  25
ATOM     25  C   UNL A   1     -24.855  -1.012  30.143  0.00  0.00    +0.055 C 
BRANCH  25  26
ATOM     26  C   UNL A   1     -24.973  -2.505  29.788  0.00  0.00    -0.020 C 
ATOM     27  C   UNL A   1     -23.906  -3.173  29.146  0.00  0.00    -0.004 C 
ATOM     28  C   UNL A   1     -23.989  -4.549  28.853  0.00  0.00    -0.000 C 
ATOM     29  C   UNL A   1     -25.137  -5.280  29.205  0.00  0.00    -0.000 C 
ATOM     30  C   UNL A   1     -26.232  -4.611  29.784  0.00  0.00    -0.000 C 
ATOM     31  C   UNL A   1     -26.155  -3.232  30.065  0.00  0.00    -0.004 C 
ENDBRANCH  25  26
BRANCH  25  32
ATOM     32  C   UNL A   1     -25.387  -0.679  31.571  0.00  0.00    +0.078 C 
ATOM     33  C   UNL A   1     -25.189   0.773  32.028  0.00  0.00    +0.019 C 
ATOM     34  C   UNL A   1     -25.336   0.684  33.544  0.00  0.00    +0.020 C 
ATOM     35  C   UNL A   1     -24.829  -0.715  33.905  0.00  0.00    +0.089 C 
ATOM     36  N   UNL A   1     -24.758  -1.481  32.646  0.00  0.00    -0.219 NA
ENDBRANCH  25  32
ENDBRANCH  24  25
BRANCH  24  37
ATOM     37  N   UNL A   1     -25.945  -0.348  28.695  0.00  0.00    -0.211 NA
BRANCH  37  38
ATOM     38  C   UNL A   1     -27.026   0.439  28.901  0.00  0.00    +0.150 C 
ATOM     39  O   UNL A   1     -26.503   2.262  30.535  0.00  0.00    -0.273 OA
ATOM     40  C   UNL A   1     -28.292   0.187  28.232  0.00  0.00    +0.046 C 
ATOM     41  C   UNL A   1     -30.673   1.077  28.527  0.00  0.00    +0.022 C 
ATOM     42  C   UNL A   1     -27.219   1.576  29.858  0.00  0.00    +0.241 C 
ATOM     43  N   UNL A   1     -28.599   1.706  29.894  0.00  0.00    -0.278 N 
ATOM     44  C   UNL A   1     -29.209   0.978  28.869  0.00  0.00    +0.077 C 
ATOM     45  C   UNL A   1     -29.280   2.714  30.773  0.00  0.00    +0.115 C 
ENDBRANCH  37  38
ENDBRANCH  24  37
ENDBRANCH   8  24
TORSDOF 10
