MODEL 3269
MODEL 1
REMARK VINA RESULT:    -5.328      0.000      0.000
REMARK INTER + INTRA:          -5.986
REMARK INTER:                  -5.950
REMARK INTRA:                  -0.035
REMARK UNBOUND:                -0.035
REMARK  Name = No_3269-gen_results/8p0m/2024-11-27-11-27-31/
REMARK  2 active torsions:
REMARK  status: ('A' for Active; 'I' for Inactive)
REMARK    1  A    between atoms: C_4  and  P_8
REMARK    2  A    between atoms: P_8  and  O_10
REMARK                            x       y       z     vdW  Elec       q    Type
REMARK                         _______ _______ _______ _____ _____    ______ ____
ROOT
ATOM      1  C   UNL A   1     -26.462  -4.142  29.825  0.00  0.00    +0.012 A 
ATOM      2  C   UNL A   1     -25.913  -4.956  29.441  0.00  0.00    +0.001 A 
ATOM      3  C   UNL A   1     -25.843  -2.873  29.828  0.00  0.00    +0.065 A 
ATOM      4  C   UNL A   1     -24.557  -2.686  29.361  0.00  0.00    +0.094 A 
ATOM      5  C   UNL A   1     -23.910  -3.807  28.868  0.00  0.00    +0.008 A 
ATOM      6  C   UNL A   1     -24.582  -5.016  28.854  0.00  0.00    +0.000 A 
ATOM      7 CL   UNL A   1     -26.645  -1.454  30.408  0.00  0.00    -0.082 Cl
ENDROOT
BRANCH   4   8
ATOM      8  P   UNL A   1     -23.725  -1.122  29.344  0.00  0.00    +0.408 P 
ATOM      9  O   UNL A   1     -24.235  -0.146  28.549  0.00  0.00    -0.249 OA
ATOM     10  O   UNL A   1     -23.598  -0.658  30.865  0.00  0.00    -0.135 OA
BRANCH   8  11
ATOM     11  O   UNL A   1     -22.216  -1.499  28.920  0.00  0.00    -0.191 OA
ATOM     12 CL   UNL A   1     -21.064  -0.515  28.739  0.00  0.00    +0.070 Cl
ENDBRANCH   8  11
ENDBRANCH   4   8
TORSDOF 2
ENDMDL
ENDMDL
