MODEL 326
MODEL 1
REMARK VINA RESULT:    -7.052      0.000      0.000
REMARK INTER + INTRA:         -10.418
REMARK INTER:                  -9.525
REMARK INTRA:                  -0.893
REMARK UNBOUND:                -0.893
REMARK  Name = No_326-gen_results/8p0m/2024-11-27-11-27-31/
REMARK  6 active torsions:
REMARK  status: ('A' for Active; 'I' for Inactive)
REMARK    1  A    between atoms: C_3  and  C_8
REMARK    2  A    between atoms: C_6  and  O_7
REMARK    3  A    between atoms: O_7  and  C_14
REMARK    4  A    between atoms: C_14  and  C_15
REMARK    5  A    between atoms: C_15  and  O_16
REMARK    6  A    between atoms: O_16  and  C_17
REMARK                            x       y       z     vdW  Elec       q    Type
REMARK                         _______ _______ _______ _____ _____    ______ ____
ROOT
ATOM      1  C   UNL A   1     -25.268   2.214  27.727  0.00  0.00    +0.037 A 
ATOM      2  C   UNL A   1     -26.204   2.273  26.964  0.00  0.00    +0.003 A 
ATOM      3  C   UNL A   1     -26.309   1.398  25.888  0.00  0.00    +0.000 A 
ATOM      4  C   UNL A   1     -25.282   0.425  25.622  0.00  0.00    +0.003 A 
ATOM      5  C   UNL A   1     -24.224   0.442  26.539  0.00  0.00    +0.037 A 
ATOM      6  C   UNL A   1     -24.163   1.301  27.531  0.00  0.00    +0.139 A 
ENDROOT
BRANCH   3   7
ATOM      7  C   UNL A   1     -27.430   1.365  24.878  0.00  0.00    +0.000 A 
ATOM      8  C   UNL A   1     -28.110   2.462  24.597  0.00  0.00    +0.000 A 
ATOM      9  C   UNL A   1     -29.228   2.408  23.686  0.00  0.00    +0.000 A 
ATOM     10  C   UNL A   1     -29.696   1.187  23.169  0.00  0.00    +0.000 A 
ATOM     11  C   UNL A   1     -27.921   0.120  24.375  0.00  0.00    +0.000 A 
ATOM     12  C   UNL A   1     -29.045   0.077  23.486  0.00  0.00    +0.000 A 
ENDBRANCH   3   7
BRANCH   6  13
ATOM     13  O   UNL A   1     -23.081   1.275  28.356  0.00  0.00    -0.469 OA
BRANCH  13  14
ATOM     14  C   UNL A   1     -22.322   0.158  28.524  0.00  0.00    +0.284 C 
BRANCH  14  15
ATOM     15  C   UNL A   1     -22.888  -0.830  29.414  0.00  0.00    +0.362 C 
ATOM     16  O   UNL A   1     -22.306  -0.790  30.665  0.00  0.00    -0.170 OA
BRANCH  15  17
ATOM     17  O   UNL A   1     -22.937  -1.925  28.975  0.00  0.00    -0.448 OA
BRANCH  17  18
ATOM     18  C   UNL A   1     -23.857  -2.744  29.084  0.00  0.00    +0.141 A 
ATOM     19  C   UNL A   1     -23.880  -3.812  28.875  0.00  0.00    +0.037 A 
ATOM     20  C   UNL A   1     -24.946  -4.798  29.057  0.00  0.00    +0.003 A 
ATOM     21  C   UNL A   1     -26.099  -4.274  29.622  0.00  0.00    +0.000 A 
ATOM     22  C   UNL A   1     -26.163  -2.953  29.949  0.00  0.00    +0.003 A 
ATOM     23  C   UNL A   1     -25.075  -2.115  29.707  0.00  0.00    +0.037 A 
ENDBRANCH  17  18
ENDBRANCH  15  17
ENDBRANCH  14  15
ENDBRANCH  13  14
ENDBRANCH   6  13
TORSDOF 6
ENDMDL
ENDMDL
