REMARK  Name = No_3270-gen_results/8p0m/2024-11-27-11-27-31/
REMARK  2 active torsions:
REMARK  status: ('A' for Active; 'I' for Inactive)
REMARK    1  A    between atoms: C_1  and  C_2
REMARK    2  A    between atoms: C_8  and  C_9
REMARK                            x       y       z     vdW  Elec       q    Type
REMARK                         _______ _______ _______ _____ _____    ______ ____
ROOT
ATOM      1  C   UNL A   1     -27.064  -0.119  28.608  0.00  0.00    -0.000 A 
ATOM      2  C   UNL A   1     -27.001   0.691  27.491  0.00  0.00    -0.000 A 
ATOM      3  C   UNL A   1     -25.855   1.482  27.083  0.00  0.00    +0.000 A 
ATOM      4  C   UNL A   1     -24.690   1.453  27.881  0.00  0.00    +0.000 A 
ATOM      5  C   UNL A   1     -24.738   0.601  29.042  0.00  0.00    +0.000 A 
ATOM      6  C   UNL A   1     -25.823  -0.169  29.389  0.00  0.00    -0.000 A 
ENDROOT
BRANCH   1   7
ATOM      7  C   UNL A   1     -28.016  -0.814  28.878  0.00  0.00    -0.000 C 
ATOM      8  C   UNL A   1     -29.225  -0.047  29.280  0.00  0.00    -0.000 C 
BRANCH   8   9
ATOM      9  C   UNL A   1     -29.327   1.106  28.943  0.00  0.00    -0.005 C 
ATOM     10  C   UNL A   1     -30.487   1.822  29.368  0.00  0.00    -0.026 C 
ATOM     11  C   UNL A   1     -31.482   1.069  30.027  0.00  0.00    +0.031 C 
ENDBRANCH   8   9
ENDBRANCH   1   7
TORSDOF 2
