MODEL 3271
MODEL 1
REMARK VINA RESULT:    -4.964      0.000      0.000
REMARK INTER + INTRA:          -5.646
REMARK INTER:                  -5.545
REMARK INTRA:                  -0.101
REMARK UNBOUND:                -0.101
REMARK  Name = No_3271-gen_results/8p0m/2024-11-27-11-27-31/
REMARK  2 active torsions:
REMARK  status: ('A' for Active; 'I' for Inactive)
REMARK    1  A    between atoms: C_2  and  N_7
REMARK    2  A    between atoms: C_8  and  C_9
REMARK                            x       y       z     vdW  Elec       q    Type
REMARK                         _______ _______ _______ _____ _____    ______ ____
ROOT
ATOM      1  C   UNL A   1     -26.064  -3.307  29.857  0.00  0.00    +0.019 A 
ATOM      2  C   UNL A   1     -25.116  -2.633  29.529  0.00  0.00    +0.081 A 
ATOM      3  C   UNL A   1     -24.036  -3.192  28.854  0.00  0.00    +0.019 A 
ATOM      4  C   UNL A   1     -23.993  -4.603  28.566  0.00  0.00    +0.002 A 
ATOM      5  C   UNL A   1     -25.120  -5.312  29.002  0.00  0.00    +0.000 A 
ATOM      6  C   UNL A   1     -26.107  -4.738  29.651  0.00  0.00    +0.002 A 
ENDROOT
BRANCH   2   7
ATOM      7  N   UNL A   1     -24.983  -1.261  29.763  0.00  0.00    -0.248 NA
ATOM      8  C   UNL A   1     -24.814  -0.664  30.569  0.00  0.00    +0.072 C 
BRANCH   8   9
ATOM      9  C   UNL A   1     -24.456  -1.192  31.808  0.00  0.00    +0.047 C 
ATOM     10  C   UNL A   1     -23.050  -1.131  32.253  0.00  0.00    +0.007 C 
ENDBRANCH   8   9
ENDBRANCH   2   7
TORSDOF 2
ENDMDL
ENDMDL
