REMARK  Name = outputs/IAG933/test6/raw/output_3272_IAG933_linker_design_.xyz
REMARK  16 active torsions:
REMARK  status: ('A' for Active; 'I' for Inactive)
REMARK    1  A    between atoms: C_1  and  C_2
REMARK    2  A    between atoms: C_1  and  C_8
REMARK    3  A    between atoms: C_1  and  C_47
REMARK    4  A    between atoms: C_13  and  N_43
REMARK    5  A    between atoms: C_14  and  C_15
REMARK    6  A    between atoms: C_21  and  O_22
REMARK    7  A    between atoms: O_22  and  C_23
REMARK    8  A    between atoms: C_23  and  C_24
REMARK    9  A    between atoms: C_30  and  O_38
REMARK   10  A    between atoms: C_30  and  C_44
REMARK   11  A    between atoms: C_34  and  C_45
REMARK   12  A    between atoms: C_34  and  C_47
REMARK   13  A    between atoms: C_36  and  C_47
REMARK   14  A    between atoms: C_37  and  C_44
REMARK   15  A    between atoms: O_38  and  C_39
REMARK   16  A    between atoms: C_39  and  N_41
REMARK                            x       y       z     vdW  Elec       q    Type
REMARK                         _______ _______ _______ _____ _____    ______ ____
ROOT
ATOM      1  C   UNL A   1     -25.574  -0.399  28.992  0.00  0.00    +0.055 C 
ENDROOT
BRANCH   1   4
ATOM      2  C   UNL A   1     -21.110   1.383  28.049  0.00  0.00    +0.034 C 
ATOM      3  C   UNL A   1     -23.343   1.392  26.928  0.00  0.00    +0.122 C 
ATOM      4  C   UNL A   1     -24.648   0.527  28.346  0.00  0.00    +0.193 C 
ATOM      5  O   UNL A   1     -23.566   0.791  29.039  0.00  0.00    -0.338 OA
ATOM      6  C   UNL A   1     -22.744   1.562  28.123  0.00  0.00    +0.137 C 
ATOM      7  N   UNL A   1     -24.694   1.176  27.197  0.00  0.00    -0.282 N 
BRANCH   7   8
ATOM      8  C   UNL A   1     -25.688   1.614  26.461  0.00  0.00    +0.088 C 
ATOM      9  C   UNL A   1     -26.250   2.920  26.395  0.00  0.00    +0.090 C 
ATOM     10  C   UNL A   1     -27.438   3.091  25.645  0.00  0.00    +0.108 C 
ATOM     11  N   UNL A   1     -28.075   2.089  25.003  0.00  0.00    -0.208 NA
ATOM     12  C   UNL A   1     -27.543   0.849  25.079  0.00  0.00    +0.255 C 
ATOM     13  C   UNL A   1     -26.354   0.576  25.777  0.00  0.00    +0.206 C 
ATOM     14  F   UNL A   1     -25.860  -0.681  25.795  0.00  0.00    -0.198 F 
BRANCH   9  15
ATOM     15  C   UNL A   1     -25.642   4.093  27.123  0.00  0.00    +0.268 C 
ATOM     16  N   UNL A   1     -25.614   5.252  26.449  0.00  0.00    -0.200 NA
ATOM     17  C   UNL A   1     -25.026   6.479  26.963  0.00  0.00    +0.139 C 
ATOM     18  O   UNL A   1     -25.143   3.966  28.243  0.00  0.00    -0.268 OA
ENDBRANCH   9  15
BRANCH  12  19
ATOM     19  O   UNL A   1     -28.193  -0.208  24.477  0.00  0.00    -0.456 OA
BRANCH  19  20
ATOM     20  C   UNL A   1     -29.460   0.005  23.866  0.00  0.00    +0.243 C 
BRANCH  20  21
ATOM     21  C   UNL A   1     -30.065  -1.377  23.573  0.00  0.00    +0.229 C 
ATOM     22  O   UNL A   1     -30.729  -1.878  24.721  0.00  0.00    -0.216 OA
ENDBRANCH  20  21
ENDBRANCH  19  20
ENDBRANCH  12  19
ENDBRANCH   7   8
ENDBRANCH   1   4
BRANCH   1  23
ATOM     23  C   UNL A   1     -24.855  -1.012  30.143  0.00  0.00    +0.043 C 
BRANCH  23  24
ATOM     24  C   UNL A   1     -24.973  -2.505  29.788  0.00  0.00    -0.021 C 
ATOM     25  C   UNL A   1     -23.906  -3.173  29.146  0.00  0.00    -0.004 C 
ATOM     26  C   UNL A   1     -23.989  -4.549  28.853  0.00  0.00    -0.000 C 
ATOM     27  C   UNL A   1     -25.137  -5.280  29.205  0.00  0.00    -0.000 C 
ATOM     28  C   UNL A   1     -26.232  -4.611  29.784  0.00  0.00    -0.000 C 
ATOM     29  C   UNL A   1     -26.155  -3.232  30.065  0.00  0.00    -0.004 C 
ENDBRANCH  23  24
BRANCH  23  30
ATOM     30  C   UNL A   1     -25.387  -0.679  31.571  0.00  0.00    +0.077 C 
ATOM     31  C   UNL A   1     -25.189   0.773  32.028  0.00  0.00    +0.019 C 
ATOM     32  C   UNL A   1     -25.336   0.684  33.544  0.00  0.00    +0.020 C 
ATOM     33  C   UNL A   1     -24.829  -0.715  33.905  0.00  0.00    +0.089 C 
ATOM     34  N   UNL A   1     -24.758  -1.481  32.646  0.00  0.00    -0.219 NA
ENDBRANCH  23  30
ENDBRANCH   1  23
BRANCH   1  35
ATOM     35  C   UNL A   1     -27.076  -0.275  28.401  0.00  0.00    +0.034 C 
BRANCH  35  40
ATOM     36  C   UNL A   1     -29.737  -0.113  28.350  0.00  0.00    +0.047 C 
ATOM     37  C   UNL A   1     -30.761  -0.309  29.319  0.00  0.00    +0.079 C 
ATOM     38  C   UNL A   1     -29.788  -0.895  30.947  0.00  0.00    +0.222 C 
ATOM     39  N   UNL A   1     -30.527   0.025  30.528  0.00  0.00    -0.222 NA
ATOM     40  C   UNL A   1     -28.510  -0.062  29.046  0.00  0.00    +0.118 C 
ATOM     41  O   UNL A   1     -28.518  -0.769  30.321  0.00  0.00    -0.340 OA
BRANCH  39  42
ATOM     42  C   UNL A   1     -30.335   1.478  30.813  0.00  0.00    +0.222 C 
BRANCH  42  43
ATOM     43  O   UNL A   1     -29.636   2.370  29.896  0.00  0.00    -0.337 OA
BRANCH  43  44
ATOM     44  C   UNL A   1     -28.325   2.762  30.340  0.00  0.00    +0.147 C 
BRANCH  44  45
ATOM     45  C   UNL A   1     -28.229   4.290  30.485  0.00  0.00    +0.068 C 
BRANCH  45  47
ATOM     46  O   UNL A   1     -25.969   4.635  31.088  0.00  0.00    -0.220 OA
ATOM     47  C   UNL A   1     -27.235   4.705  31.628  0.00  0.00    +0.185 C 
ENDBRANCH  45  47
ENDBRANCH  44  45
ENDBRANCH  43  44
ENDBRANCH  42  43
ENDBRANCH  39  42
ENDBRANCH  35  40
ENDBRANCH   1  35
TORSDOF 16
