MODEL 3272
MODEL 1
REMARK VINA RESULT:    -7.623      0.000      0.000
REMARK INTER + INTRA:         -15.144
REMARK INTER:                 -10.742
REMARK INTRA:                  -4.401
REMARK UNBOUND:                -4.401
REMARK  Name = No_3272-gen_results/8p0m/2024-11-27-11-27-31/
REMARK  7 active torsions:
REMARK  status: ('A' for Active; 'I' for Inactive)
REMARK    1  A    between atoms: C_2  and  N_7
REMARK    2  A    between atoms: C_3  and  O_13
REMARK    3  A    between atoms: O_13  and  C_14
REMARK    4  A    between atoms: C_14  and  C_15
REMARK    5  A    between atoms: C_14  and  C_22
REMARK    6  A    between atoms: C_15  and  C_16
REMARK    7  A    between atoms: C_25  and  C_26
REMARK                            x       y       z     vdW  Elec       q    Type
REMARK                         _______ _______ _______ _____ _____    ______ ____
ROOT
ATOM      1  C   UNL A   1     -24.166   2.360  26.829  0.00  0.00    +0.170 C 
ENDROOT
BRANCH   1   2
ATOM      2  C   UNL A   1     -24.456   0.983  26.380  0.00  0.00    +0.044 C 
ATOM      3  C   UNL A   1     -24.207   0.745  25.076  0.00  0.00    +0.004 C 
ATOM      4  C   UNL A   1     -25.474   0.099  24.410  0.00  0.00    +0.001 C 
ATOM      5  C   UNL A   1     -25.836   0.440  26.785  0.00  0.00    +0.026 C 
ATOM      6  C   UNL A   1     -26.134  -0.528  25.441  0.00  0.00    +0.004 C 
BRANCH   5   7
ATOM      7  C   UNL A   1     -26.001  -0.475  27.988  0.00  0.00    -0.022 A 
ATOM      8  C   UNL A   1     -26.718  -0.400  28.941  0.00  0.00    -0.004 A 
ATOM      9  C   UNL A   1     -26.578  -1.255  30.109  0.00  0.00    -0.000 A 
ATOM     10  C   UNL A   1     -25.809  -2.392  30.052  0.00  0.00    -0.000 A 
ATOM     11  C   UNL A   1     -24.958  -2.437  28.910  0.00  0.00    -0.000 A 
ATOM     12  C   UNL A   1     -25.004  -1.548  27.922  0.00  0.00    -0.004 A 
ENDBRANCH   5   7
ENDBRANCH   1   2
BRANCH   1  13
ATOM     13  O   UNL A   1     -23.166   2.594  27.738  0.00  0.00    -0.479 OA
BRANCH  13  16
ATOM     14  C   UNL A   1     -23.517   1.222  29.938  0.00  0.00    +0.051 A 
ATOM     15  C   UNL A   1     -23.069   0.414  30.445  0.00  0.00    +0.051 A 
ATOM     16  C   UNL A   1     -22.888   1.585  28.611  0.00  0.00    +0.140 A 
ATOM     17  C   UNL A   1     -21.873   0.762  28.079  0.00  0.00    +0.037 A 
ATOM     18  C   UNL A   1     -22.051  -0.607  30.107  0.00  0.00    +0.015 A 
ATOM     19  C   UNL A   1     -21.455  -0.310  28.890  0.00  0.00    +0.004 A 
BRANCH  15  20
ATOM     20  N   UNL A   1     -23.688   0.031  31.767  0.00  0.00    -0.307 N 
ATOM     21  C   UNL A   1     -23.359  -0.817  32.580  0.00  0.00    +0.091 C 
ATOM     22  C   UNL A   1     -24.188  -1.126  33.671  0.00  0.00    +0.021 C 
ATOM     23  C   UNL A   1     -24.669   0.867  32.326  0.00  0.00    +0.091 C 
ATOM     24  C   UNL A   1     -25.480   0.605  33.253  0.00  0.00    +0.021 C 
ATOM     25  C   UNL A   1     -25.183  -0.413  34.042  0.00  0.00    +0.004 C 
ENDBRANCH  15  20
ENDBRANCH  13  16
ENDBRANCH   1  13
BRANCH   1  26
ATOM     26  C   UNL A   1     -25.047   3.430  26.544  0.00  0.00    +0.070 C 
BRANCH  26  27
ATOM     27  C   UNL A   1     -25.266   4.071  27.317  0.00  0.00    -0.019 A 
ATOM     28  C   UNL A   1     -24.924   5.462  27.240  0.00  0.00    -0.004 A 
ATOM     29  C   UNL A   1     -25.293   6.428  28.238  0.00  0.00    -0.000 A 
ATOM     30  C   UNL A   1     -25.993   5.970  29.388  0.00  0.00    -0.000 A 
ATOM     31  C   UNL A   1     -26.345   4.648  29.475  0.00  0.00    -0.000 A 
ATOM     32  C   UNL A   1     -26.053   3.682  28.438  0.00  0.00    -0.004 A 
ENDBRANCH  26  27
ENDBRANCH   1  26
TORSDOF 7
ENDMDL
ENDMDL
