REMARK  Name = No_3273-gen_results/8p0m/2024-11-27-11-27-31/
REMARK  13 active torsions:
REMARK  status: ('A' for Active; 'I' for Inactive)
REMARK    1  A    between atoms: C_1  and  C_18
REMARK    2  A    between atoms: C_3  and  C_10
REMARK    3  A    between atoms: C_6  and  C_7
REMARK    4  A    between atoms: C_7  and  O_9
REMARK    5  A    between atoms: O_9  and  C_27
REMARK    6  A    between atoms: C_10  and  C_11
REMARK    7  A    between atoms: C_11  and  C_15
REMARK    8  A    between atoms: C_12  and  C_13
REMARK    9  A    between atoms: C_15  and  O_17
REMARK   10  A    between atoms: O_17  and  C_33
REMARK   11  A    between atoms: N_20  and  C_21
REMARK   12  A    between atoms: C_22  and  C_24
REMARK   13  A    between atoms: C_33  and  C_34
REMARK                            x       y       z     vdW  Elec       q    Type
REMARK                         _______ _______ _______ _____ _____    ______ ____
ROOT
ATOM      1  C   UNL A   1     -28.016  -0.814  28.878  0.00  0.00    +0.079 C 
ATOM      2  C   UNL A   1     -27.064  -0.119  28.608  0.00  0.00    +0.009 C 
ATOM      3  C   UNL A   1     -27.001   0.691  27.491  0.00  0.00    +0.005 C 
ATOM      4  C   UNL A   1     -28.142   0.828  26.799  0.00  0.00    +0.005 C 
ATOM      5  C   UNL A   1     -29.300  -0.267  28.653  0.00  0.00    +0.014 C 
ATOM      6  C   UNL A   1     -29.358   0.596  27.458  0.00  0.00    +0.057 C 
ENDROOT
BRANCH   1   7
ATOM      7  C   UNL A   1     -27.952  -1.647  30.193  0.00  0.00    +0.245 C 
ATOM      8  O   UNL A   1     -28.560  -1.709  31.060  0.00  0.00    -0.273 OA
ATOM      9  N   UNL A   1     -26.738  -2.395  30.142  0.00  0.00    -0.178 NA
BRANCH   9  10
ATOM     10  C   UNL A   1     -25.626  -2.229  29.344  0.00  0.00    +0.088 C 
ATOM     11  C   UNL A   1     -24.725  -3.180  29.225  0.00  0.00    +0.042 C 
ATOM     12  C   UNL A   1     -23.485  -2.900  28.579  0.00  0.00    +0.036 C 
BRANCH  11  13
ATOM     13  C   UNL A   1     -25.139  -4.550  29.317  0.00  0.00    +0.239 C 
ATOM     14  N   UNL A   1     -24.244  -5.497  28.845  0.00  0.00    -0.116 NA
ATOM     15  F   UNL A   1     -26.233  -4.898  29.715  0.00  0.00    -0.182 F 
ENDBRANCH  11  13
ENDBRANCH   9  10
ENDBRANCH   1   7
BRANCH   6  16
ATOM     16  C   UNL A   1     -30.616   0.926  26.839  0.00  0.00    +0.244 C 
ATOM     17 CL   UNL A   1     -31.011   1.504  25.990  0.00  0.00    -0.068 Cl
BRANCH  16  18
ATOM     18  O   UNL A   1     -31.669   0.239  27.582  0.00  0.00    -0.463 OA
BRANCH  18  19
ATOM     19  C   UNL A   1     -32.550  -0.481  26.943  0.00  0.00    +0.140 A 
ATOM     20  C   UNL A   1     -33.478  -1.051  27.878  0.00  0.00    +0.037 A 
ATOM     21  C   UNL A   1     -34.236  -1.996  27.517  0.00  0.00    +0.003 A 
ATOM     22  C   UNL A   1     -34.254  -2.374  26.180  0.00  0.00    +0.000 A 
ATOM     23  C   UNL A   1     -33.325  -1.923  25.262  0.00  0.00    +0.003 A 
ATOM     24  C   UNL A   1     -32.425  -1.025  25.723  0.00  0.00    +0.037 A 
ENDBRANCH  18  19
ENDBRANCH  16  18
ENDBRANCH   6  16
BRANCH   3  25
ATOM     25  C   UNL A   1     -25.651   1.146  26.912  0.00  0.00    +0.033 C 
BRANCH  25  26
ATOM     26  C   UNL A   1     -24.780   1.889  27.820  0.00  0.00    +0.053 C 
ATOM     27  C   UNL A   1     -23.751   1.331  28.382  0.00  0.00    +0.002 C 
BRANCH  27  28
ATOM     28  C   UNL A   1     -22.858   0.831  28.320  0.00  0.00    -0.000 C 
ATOM     29  C   UNL A   1     -21.637   0.135  28.608  0.00  0.00    -0.000 C 
ENDBRANCH  27  28
BRANCH  26  30
ATOM     30  C   UNL A   1     -25.156   3.302  28.093  0.00  0.00    +0.338 C 
ATOM     31  O   UNL A   1     -24.826   4.187  27.385  0.00  0.00    -0.245 OA
BRANCH  30  32
ATOM     32  O   UNL A   1     -25.530   3.570  29.341  0.00  0.00    -0.437 OA
BRANCH  32  33
ATOM     33  C   UNL A   1     -26.132   4.780  29.616  0.00  0.00    +0.280 C 
BRANCH  33  34
ATOM     34  C   UNL A   1     -27.442   4.698  29.957  0.00  0.00    +0.255 C 
ATOM     35  O   UNL A   1     -27.783   3.777  30.561  0.00  0.00    -0.284 OA
ENDBRANCH  33  34
ENDBRANCH  32  33
ENDBRANCH  30  32
ENDBRANCH  26  30
ENDBRANCH  25  26
ENDBRANCH   3  25
TORSDOF 13
