MODEL 3273
MODEL 1
REMARK VINA RESULT:    -6.827      0.000      0.000
REMARK INTER + INTRA:         -14.838
REMARK INTER:                 -12.015
REMARK INTRA:                  -2.823
REMARK UNBOUND:                -2.823
REMARK  Name = No_3273-gen_results/8p0m/2024-11-27-11-27-31/
REMARK  13 active torsions:
REMARK  status: ('A' for Active; 'I' for Inactive)
REMARK    1  A    between atoms: C_1  and  C_18
REMARK    2  A    between atoms: C_3  and  C_10
REMARK    3  A    between atoms: C_6  and  C_7
REMARK    4  A    between atoms: C_7  and  O_9
REMARK    5  A    between atoms: O_9  and  C_27
REMARK    6  A    between atoms: C_10  and  C_11
REMARK    7  A    between atoms: C_11  and  C_15
REMARK    8  A    between atoms: C_12  and  C_13
REMARK    9  A    between atoms: C_15  and  O_17
REMARK   10  A    between atoms: O_17  and  C_33
REMARK   11  A    between atoms: N_20  and  C_21
REMARK   12  A    between atoms: C_22  and  C_24
REMARK   13  A    between atoms: C_33  and  C_34
REMARK                            x       y       z     vdW  Elec       q    Type
REMARK                         _______ _______ _______ _____ _____    ______ ____
ROOT
ATOM      1  C   UNL A   1     -10.987  -0.612  38.173  0.00  0.00    +0.079 C 
ATOM      2  C   UNL A   1     -11.729   0.260  37.785  0.00  0.00    +0.009 C 
ATOM      3  C   UNL A   1     -11.364   1.588  37.688  0.00  0.00    +0.005 C 
ATOM      4  C   UNL A   1     -10.062   1.855  37.865  0.00  0.00    +0.005 C 
ATOM      5  C   UNL A   1      -9.640  -0.551  37.748  0.00  0.00    +0.014 C 
ATOM      6  C   UNL A   1      -9.131   0.830  37.641  0.00  0.00    +0.057 C 
ENDROOT
BRANCH   1   7
ATOM      7  C   UNL A   1     -11.533  -2.071  38.193  0.00  0.00    +0.245 C 
ATOM      8  O   UNL A   1     -11.787  -2.776  37.442  0.00  0.00    -0.273 OA
ATOM      9  N   UNL A   1     -11.776  -2.396  39.561  0.00  0.00    -0.178 NA
BRANCH   9  10
ATOM     10  C   UNL A   1     -11.887  -1.574  40.662  0.00  0.00    +0.088 C 
ATOM     11  C   UNL A   1     -11.077  -1.701  41.691  0.00  0.00    +0.042 C 
ATOM     12  C   UNL A   1     -11.354  -0.995  42.899  0.00  0.00    +0.036 C 
BRANCH  11  13
ATOM     13  C   UNL A   1      -9.733  -2.150  41.470  0.00  0.00    +0.239 C 
ATOM     14  N   UNL A   1      -9.362  -3.323  42.109  0.00  0.00    -0.116 NA
ATOM     15  F   UNL A   1      -8.912  -1.529  40.824  0.00  0.00    -0.182 F 
ENDBRANCH  11  13
ENDBRANCH   9  10
ENDBRANCH   1   7
BRANCH   6  16
ATOM     16  C   UNL A   1      -7.717   1.101  37.608  0.00  0.00    +0.244 C 
ATOM     17 CL   UNL A   1      -6.879   1.289  38.297  0.00  0.00    -0.068 Cl
BRANCH  16  18
ATOM     18  O   UNL A   1      -7.295   1.087  36.210  0.00  0.00    -0.463 OA
BRANCH  18  19
ATOM     19  C   UNL A   1      -6.774   0.005  35.700  0.00  0.00    +0.140 A 
ATOM     20  C   UNL A   1      -5.344   0.130  35.660  0.00  0.00    +0.037 A 
ATOM     21  C   UNL A   1      -4.661  -0.669  34.958  0.00  0.00    +0.003 A 
ATOM     22  C   UNL A   1      -5.297  -1.742  34.346  0.00  0.00    +0.000 A 
ATOM     23  C   UNL A   1      -6.672  -1.859  34.279  0.00  0.00    +0.003 A 
ATOM     24  C   UNL A   1      -7.379  -0.895  34.911  0.00  0.00    +0.037 A 
ENDBRANCH  18  19
ENDBRANCH  16  18
ENDBRANCH   6  16
BRANCH   3  25
ATOM     25  C   UNL A   1     -12.420   2.706  37.690  0.00  0.00    +0.033 C 
BRANCH  25  26
ATOM     26  C   UNL A   1     -12.950   3.092  36.384  0.00  0.00    +0.053 C 
ATOM     27  C   UNL A   1     -14.228   3.162  36.164  0.00  0.00    +0.002 C 
BRANCH  27  28
ATOM     28  C   UNL A   1     -15.155   3.540  36.383  0.00  0.00    -0.000 C 
ATOM     29  C   UNL A   1     -16.483   3.747  36.884  0.00  0.00    -0.000 C 
ENDBRANCH  27  28
BRANCH  26  30
ATOM     30  C   UNL A   1     -11.951   3.363  35.316  0.00  0.00    +0.338 C 
ATOM     31  O   UNL A   1     -11.246   4.310  35.342  0.00  0.00    -0.245 OA
BRANCH  30  32
ATOM     32  O   UNL A   1     -12.150   2.730  34.164  0.00  0.00    -0.437 OA
BRANCH  32  33
ATOM     33  C   UNL A   1     -11.715   1.428  34.029  0.00  0.00    +0.280 C 
BRANCH  33  34
ATOM     34  C   UNL A   1     -10.368   1.283  33.965  0.00  0.00    +0.255 C 
ATOM     35  O   UNL A   1      -9.809   1.837  33.122  0.00  0.00    -0.284 OA
ENDBRANCH  33  34
ENDBRANCH  32  33
ENDBRANCH  30  32
ENDBRANCH  26  30
ENDBRANCH  25  26
ENDBRANCH   3  25
TORSDOF 13
ENDMDL
ENDMDL
