MODEL 3276
MODEL 1
REMARK VINA RESULT:    -4.266      0.000      0.000
REMARK INTER + INTRA:          -4.266
REMARK INTER:                  -4.266
REMARK INTRA:                   0.000
REMARK UNBOUND:                 0.000
REMARK  Name = No_3276-gen_results/8p0m/2024-11-27-11-27-31/
REMARK  0 active torsions:
REMARK  status: ('A' for Active; 'I' for Inactive)
REMARK                            x       y       z     vdW  Elec       q    Type
REMARK                         _______ _______ _______ _____ _____    ______ ____
ROOT
ATOM      1  C   UNL A   1     -26.073  -4.845  29.654  0.00  0.00    +0.000 A 
ATOM      2  C   UNL A   1     -26.219  -3.646  29.721  0.00  0.00    +0.000 A 
ATOM      3  C   UNL A   1     -25.256  -2.736  29.331  0.00  0.00    +0.000 A 
ATOM      4  C   UNL A   1     -24.043  -3.242  28.784  0.00  0.00    +0.000 A 
ATOM      5  C   UNL A   1     -23.997  -4.578  28.572  0.00  0.00    +0.000 A 
ATOM      6  C   UNL A   1     -24.985  -5.370  28.941  0.00  0.00    +0.000 A 
ENDROOT
TORSDOF 0
ENDMDL
ENDMDL
