REMARK  Name = No_3277-gen_results/8p0m/2024-11-27-11-27-31/
REMARK  1 active torsions:
REMARK  status: ('A' for Active; 'I' for Inactive)
REMARK    1  A    between atoms: C_3  and  C_4
REMARK                            x       y       z     vdW  Elec       q    Type
REMARK                         _______ _______ _______ _____ _____    ______ ____
ROOT
ATOM      1  C   UNL A   1     -24.546   0.349  28.823  0.00  0.00    +0.021 A 
ATOM      2  C   UNL A   1     -24.659   1.420  27.888  0.00  0.00    +0.125 A 
ATOM      3  C   UNL A   1     -23.540   2.179  27.550  0.00  0.00    +0.165 A 
ATOM      4  C   UNL A   1     -22.293   1.743  28.047  0.00  0.00    +0.039 A 
ATOM      5  C   UNL A   1     -22.171   0.708  28.928  0.00  0.00    +0.003 A 
ATOM      6  C   UNL A   1     -23.334  -0.062  29.308  0.00  0.00    +0.002 A 
ATOM      7  O   UNL A   1     -23.646   3.175  26.698  0.00  0.00    -0.439 OA
ATOM      8  C   UNL A   1     -24.988   3.194  26.107  0.00  0.00    +0.241 C 
ATOM      9  N   UNL A   1     -25.740   1.733  27.324  0.00  0.00    -0.197 NA
ATOM     10  C   UNL A   1     -25.940   2.735  26.435  0.00  0.00    +0.039 C 
ENDROOT
BRANCH   1  13
ATOM     11  C   UNL A   1     -28.016  -0.814  28.878  0.00  0.00    +0.007 A 
ATOM     12  C   UNL A   1     -27.064  -0.119  28.608  0.00  0.00    +0.001 A 
ATOM     13  C   UNL A   1     -25.792  -0.430  29.076  0.00  0.00    +0.002 A 
ATOM     14  C   UNL A   1     -27.947  -1.882  29.871  0.00  0.00    +0.035 A 
ATOM     15  C   UNL A   1     -26.716  -2.329  30.306  0.00  0.00    +0.007 A 
ATOM     16  C   UNL A   1     -25.592  -1.564  29.967  0.00  0.00    +0.001 A 
ATOM     17 BR   UNL A   1     -29.556  -2.693  30.326  0.00  0.00    -0.049 Br
ENDBRANCH   1  13
TORSDOF 1
