MODEL 3278
MODEL 1
REMARK VINA RESULT:    -7.724      0.000      0.000
REMARK INTER + INTRA:         -11.103
REMARK INTER:                  -9.982
REMARK INTRA:                  -1.122
REMARK UNBOUND:                -1.122
REMARK  Name = No_3278-gen_results/8p0m/2024-11-27-11-27-31/
REMARK  5 active torsions:
REMARK  status: ('A' for Active; 'I' for Inactive)
REMARK    1  A    between atoms: C_4  and  C_9
REMARK    2  A    between atoms: C_9  and  C_10
REMARK    3  A    between atoms: C_9  and  C_12
REMARK    4  A    between atoms: C_17  and  C_18
REMARK    5  A    between atoms: N_19  and  C_20
REMARK                            x       y       z     vdW  Elec       q    Type
REMARK                         _______ _______ _______ _____ _____    ______ ____
ROOT
ATOM      1  C   UNL A   1     -23.492   1.467  27.586  0.00  0.00    -0.015 A 
ATOM      2  C   UNL A   1     -22.374   2.039  26.891  0.00  0.00    -0.004 A 
ATOM      3  C   UNL A   1     -21.103   1.398  27.127  0.00  0.00    -0.000 A 
ATOM      4  C   UNL A   1     -20.923   0.598  28.272  0.00  0.00    +0.000 A 
ATOM      5  C   UNL A   1     -21.977   0.059  28.933  0.00  0.00    +0.001 A 
ATOM      6  C   UNL A   1     -23.237   0.502  28.667  0.00  0.00    +0.015 A 
ENDROOT
BRANCH   6   7
ATOM      7  C   UNL A   1     -23.922  -0.812  28.611  0.00  0.00    +0.099 C 
ATOM      8  N   UNL A   1     -23.532  -1.883  29.078  0.00  0.00    -0.244 NA
BRANCH   8   9
ATOM      9  C   UNL A   1     -24.314  -3.030  29.064  0.00  0.00    +0.081 A 
ATOM     10  C   UNL A   1     -23.916  -3.999  28.786  0.00  0.00    +0.019 A 
ATOM     11  C   UNL A   1     -25.685  -2.867  29.659  0.00  0.00    +0.019 A 
ATOM     12  C   UNL A   1     -26.473  -3.988  29.849  0.00  0.00    +0.002 A 
ATOM     13  C   UNL A   1     -24.694  -5.300  28.905  0.00  0.00    +0.002 A 
ATOM     14  C   UNL A   1     -25.987  -5.208  29.421  0.00  0.00    +0.000 A 
ENDBRANCH   8   9
ENDBRANCH   6   7
BRANCH   1  15
ATOM     15  C   UNL A   1     -24.644   1.741  27.660  0.00  0.00    +0.064 C 
BRANCH  15  19
ATOM     16  C   UNL A   1     -27.161   2.656  24.872  0.00  0.00    +0.022 A 
ATOM     17  C   UNL A   1     -27.698   1.750  24.905  0.00  0.00    +0.059 A 
ATOM     18  C   UNL A   1     -26.059   2.719  25.831  0.00  0.00    +0.055 A 
ATOM     19  C   UNL A   1     -25.760   1.673  26.669  0.00  0.00    -0.006 A 
ATOM     20  C   UNL A   1     -27.611   0.502  25.662  0.00  0.00    +0.011 A 
ATOM     21  C   UNL A   1     -26.546   0.552  26.593  0.00  0.00    -0.002 A 
ATOM     22 CL   UNL A   1     -25.032   4.094  25.899  0.00  0.00    -0.083 Cl
ATOM     23 CL   UNL A   1     -28.982   1.724  23.617  0.00  0.00    -0.082 Cl
ENDBRANCH  15  19
BRANCH  15  24
ATOM     24  C   UNL A   1     -25.030   2.277  29.028  0.00  0.00    +0.118 C 
ATOM     25  N   UNL A   1     -25.259   3.506  29.191  0.00  0.00    -0.131 NA
ENDBRANCH  15  24
ENDBRANCH   1  15
TORSDOF 5
ENDMDL
ENDMDL
