MODEL 327
MODEL 1
REMARK VINA RESULT:    -6.539      0.000      0.000
REMARK INTER + INTRA:          -7.322
REMARK INTER:                  -6.921
REMARK INTRA:                  -0.401
REMARK UNBOUND:                -0.401
REMARK  Name = No_327-gen_results/8p0m/2024-11-27-11-27-31/
REMARK  1 active torsions:
REMARK  status: ('A' for Active; 'I' for Inactive)
REMARK    1  A    between atoms: C_2  and  C_7
REMARK                            x       y       z     vdW  Elec       q    Type
REMARK                         _______ _______ _______ _____ _____    ______ ____
ROOT
ATOM      1  C   UNL A   1     -23.848  -3.582  28.560  0.00  0.00    +0.000 A 
ATOM      2  C   UNL A   1     -24.542  -2.638  28.860  0.00  0.00    +0.000 A 
ATOM      3  C   UNL A   1     -25.784  -2.821  29.457  0.00  0.00    +0.000 A 
ATOM      4  C   UNL A   1     -26.304  -4.143  29.697  0.00  0.00    +0.000 A 
ATOM      5  C   UNL A   1     -25.446  -5.176  29.298  0.00  0.00    +0.000 A 
ATOM      6  C   UNL A   1     -24.288  -4.950  28.721  0.00  0.00    +0.000 A 
ENDROOT
BRANCH   2   7
ATOM      7  C   UNL A   1     -24.039  -1.309  28.514  0.00  0.00    +0.000 A 
ATOM      8  C   UNL A   1     -24.442  -0.478  28.026  0.00  0.00    +0.000 A 
ATOM      9  C   UNL A   1     -22.630  -1.164  29.214  0.00  0.00    +0.000 A 
ATOM     10  C   UNL A   1     -21.870  -0.091  28.914  0.00  0.00    +0.000 A 
ATOM     11  C   UNL A   1     -23.784   0.825  27.704  0.00  0.00    +0.000 A 
ATOM     12  C   UNL A   1     -22.481   1.003  28.207  0.00  0.00    +0.000 A 
ENDBRANCH   2   7
TORSDOF 1
ENDMDL
ENDMDL
