MODEL 3280
MODEL 1
REMARK VINA RESULT:    -5.561      0.000      0.000
REMARK INTER + INTRA:          -6.927
REMARK INTER:                  -6.537
REMARK INTRA:                  -0.390
REMARK UNBOUND:                -0.390
REMARK  Name = No_3280-gen_results/8p0m/2024-11-27-11-27-31/
REMARK  3 active torsions:
REMARK  status: ('A' for Active; 'I' for Inactive)
REMARK    1  A    between atoms: C_2  and  C_7
REMARK    2  A    between atoms: C_7  and  C_8
REMARK    3  A    between atoms: C_9  and  C_10
REMARK                            x       y       z     vdW  Elec       q    Type
REMARK                         _______ _______ _______ _____ _____    ______ ____
ROOT
ATOM      1  C   UNL A   1     -24.421   0.019  27.489  0.00  0.00    +0.031 A 
ATOM      2  C   UNL A   1     -23.795  -0.546  28.356  0.00  0.00    -0.012 A 
ATOM      3  C   UNL A   1     -22.534  -0.101  28.738  0.00  0.00    -0.003 A 
ATOM      4  C   UNL A   1     -21.913   1.019  28.079  0.00  0.00    -0.000 A 
ATOM      5  C   UNL A   1     -22.696   1.598  27.072  0.00  0.00    +0.001 A 
ATOM      6  C   UNL A   1     -23.877   1.129  26.738  0.00  0.00    +0.006 A 
ATOM      7 BR   UNL A   1     -24.479   1.081  27.477  0.00  0.00    -0.049 Br
ENDROOT
BRANCH   2   8
ATOM      8  C   UNL A   1     -24.267  -1.731  29.121  0.00  0.00    +0.053 C 
BRANCH   8   9
ATOM      9  C   UNL A   1     -25.194  -2.148  29.233  0.00  0.00    -0.022 C 
ATOM     10  C   UNL A   1     -25.298  -3.616  29.170  0.00  0.00    +0.019 C 
BRANCH  10  11
ATOM     11  C   UNL A   1     -24.356  -4.479  29.021  0.00  0.00    +0.252 C 
ATOM     12  O   UNL A   1     -23.783  -5.022  28.119  0.00  0.00    -0.200 OA
ATOM     13 CL   UNL A   1     -25.232  -5.210  29.134  0.00  0.00    -0.074 Cl
ENDBRANCH  10  11
ENDBRANCH   8   9
ENDBRANCH   2   8
TORSDOF 3
ENDMDL
ENDMDL
