MODEL 3282
MODEL 1
REMARK VINA RESULT:    -7.568      0.000      0.000
REMARK INTER + INTRA:          -8.099
REMARK INTER:                  -8.011
REMARK INTRA:                  -0.089
REMARK UNBOUND:                -0.089
REMARK  Name = No_3282-gen_results/8p0m/2024-11-27-11-27-31/
REMARK  1 active torsions:
REMARK  status: ('A' for Active; 'I' for Inactive)
REMARK    1  A    between atoms: C_5  and  C_6
REMARK                            x       y       z     vdW  Elec       q    Type
REMARK                         _______ _______ _______ _____ _____    ______ ____
ROOT
ATOM      1  C   UNL A   1     -29.892  -9.868  32.198  0.00  0.00    +0.000 A 
ATOM      2  C   UNL A   1     -29.208 -10.270  32.892  0.00  0.00    +0.007 A 
ATOM      3  C   UNL A   1     -29.685 -10.343  30.830  0.00  0.00    +0.000 A 
ATOM      4  C   UNL A   1     -30.578 -10.005  29.699  0.00  0.00    +0.000 A 
ATOM      5  C   UNL A   1     -28.090 -11.199  32.815  0.00  0.00    +0.080 A 
ATOM      6  C   UNL A   1     -30.371 -10.631  28.452  0.00  0.00    +0.000 A 
ATOM      7  C   UNL A   1     -29.396 -11.634  28.346  0.00  0.00    +0.000 A 
ATOM      8  C   UNL A   1     -28.618 -11.973  29.380  0.00  0.00    +0.000 A 
ATOM      9  C   UNL A   1     -28.807 -11.439  30.582  0.00  0.00    +0.000 A 
ATOM     10  C   UNL A   1     -28.008 -11.807  31.573  0.00  0.00    +0.007 A 
ATOM     11  C   UNL A   1     -31.228 -10.271  27.303  0.00  0.00    +0.000 A 
ATOM     12  C   UNL A   1     -31.157 -11.078  26.132  0.00  0.00    +0.000 A 
ATOM     13  C   UNL A   1     -30.184 -12.106  26.077  0.00  0.00    +0.000 A 
ATOM     14  C   UNL A   1     -29.400 -12.345  27.010  0.00  0.00    +0.000 A 
ENDROOT
BRANCH   5  15
ATOM     15  C   UNL A   1     -27.235 -11.628  33.868  0.00  0.00    +0.388 C 
ATOM     16  O   UNL A   1     -26.847 -12.730  33.911  0.00  0.00    -0.241 OA
ATOM     17  O   UNL A   1     -27.086 -10.801  34.836  0.00  0.00    -0.241 OA
ENDBRANCH   5  15
TORSDOF 1
ENDMDL
ENDMDL
