MODEL 3283
MODEL 1
REMARK VINA RESULT:    -5.765      0.000      0.000
REMARK INTER + INTRA:          -8.663
REMARK INTER:                  -7.787
REMARK INTRA:                  -0.876
REMARK UNBOUND:                -0.876
REMARK  Name = No_3283-gen_results/8p0m/2024-11-27-11-27-31/
REMARK  6 active torsions:
REMARK  status: ('A' for Active; 'I' for Inactive)
REMARK    1  A    between atoms: C_1  and  C_8
REMARK    2  A    between atoms: C_5  and  C_10
REMARK    3  A    between atoms: C_8  and  N_9
REMARK    4  A    between atoms: N_9  and  C_14
REMARK    5  A    between atoms: C_15  and  C_16
REMARK    6  A    between atoms: C_16  and  N_17
REMARK                            x       y       z     vdW  Elec       q    Type
REMARK                         _______ _______ _______ _____ _____    ______ ____
ROOT
ATOM      1  C   UNL A   1     -23.782   2.651  26.333  0.00  0.00    -0.011 C 
ATOM      2  C   UNL A   1     -24.673   1.995  25.845  0.00  0.00    -0.047 C 
ATOM      3  C   UNL A   1     -24.643   0.742  25.494  0.00  0.00    +0.022 C 
ATOM      4  C   UNL A   1     -25.763  -0.031  24.901  0.00  0.00    +0.013 C 
ATOM      5  C   UNL A   1     -26.998   0.662  24.748  0.00  0.00    +0.096 C 
ATOM      6  C   UNL A   1     -27.051   1.965  25.172  0.00  0.00    +0.013 C 
ATOM      7  C   UNL A   1     -26.009   2.630  25.723  0.00  0.00    +0.022 C 
ENDROOT
BRANCH   5   8
ATOM      8  C   UNL A   1     -28.153   0.019  24.159  0.00  0.00    +0.398 C 
ATOM      9  F   UNL A   1     -28.714   0.543  23.311  0.00  0.00    -0.170 F 
ATOM     10  F   UNL A   1     -27.861  -1.307  23.790  0.00  0.00    -0.170 F 
ATOM     11  F   UNL A   1     -29.101  -0.285  25.172  0.00  0.00    -0.170 F 
ENDBRANCH   5   8
BRANCH   1  12
ATOM     12  C   UNL A   1     -22.880   1.879  27.298  0.00  0.00    +0.138 C 
BRANCH  12  13
ATOM     13  N   UNL A   1     -22.955   1.860  28.404  0.00  0.00    -0.232 NA
BRANCH  13  14
ATOM     14  C   UNL A   1     -22.992   0.874  29.166  0.00  0.00    +0.078 C 
ATOM     15  C   UNL A   1     -22.919  -0.428  28.603  0.00  0.00    +0.017 C 
BRANCH  15  16
ATOM     16  C   UNL A   1     -23.215  -1.510  29.434  0.00  0.00    +0.153 C 
BRANCH  16  17
ATOM     17  N   UNL A   1     -23.426  -2.715  28.895  0.00  0.00    -0.269 NA
ATOM     18  C   UNL A   1     -24.690  -3.185  28.947  0.00  0.00    +0.068 C 
ATOM     19  C   UNL A   1     -25.710  -2.724  29.715  0.00  0.00    +0.053 C 
ENDBRANCH  16  17
ENDBRANCH  15  16
ENDBRANCH  13  14
ENDBRANCH  12  13
ENDBRANCH   1  12
TORSDOF 6
ENDMDL
ENDMDL
