MODEL 3284
MODEL 1
REMARK VINA RESULT:    -5.683      0.000      0.000
REMARK INTER + INTRA:          -6.607
REMARK INTER:                  -6.347
REMARK INTRA:                  -0.260
REMARK UNBOUND:                -0.260
REMARK  Name = No_3284-gen_results/8p0m/2024-11-27-11-27-31/
REMARK  2 active torsions:
REMARK  status: ('A' for Active; 'I' for Inactive)
REMARK    1  A    between atoms: C_1  and  C_8
REMARK    2  A    between atoms: C_5  and  C_11
REMARK                            x       y       z     vdW  Elec       q    Type
REMARK                         _______ _______ _______ _____ _____    ______ ____
ROOT
ATOM      1  C   UNL A   1     -24.652  -3.414  29.565  0.00  0.00    +0.036 C 
ATOM      2  C   UNL A   1     -24.269  -2.378  29.072  0.00  0.00    -0.043 C 
ATOM      3  C   UNL A   1     -25.049  -1.591  28.226  0.00  0.00    +0.022 C 
ATOM      4  C   UNL A   1     -24.661  -0.325  27.574  0.00  0.00    +0.010 C 
ATOM      5  C   UNL A   1     -23.432   0.251  28.019  0.00  0.00    +0.044 C 
ATOM      6  C   UNL A   1     -22.637  -0.484  28.905  0.00  0.00    +0.010 C 
ATOM      7  C   UNL A   1     -23.006  -1.683  29.410  0.00  0.00    +0.022 C 
ENDROOT
BRANCH   1   8
ATOM      8  C   UNL A   1     -24.468  -4.591  28.629  0.00  0.00    +0.340 C 
ATOM      9  F   UNL A   1     -23.539  -4.858  28.123  0.00  0.00    -0.193 F 
ATOM     10  F   UNL A   1     -25.240  -5.608  29.062  0.00  0.00    -0.193 F 
ENDBRANCH   1   8
BRANCH   5  11
ATOM     11  C   UNL A   1     -23.029   1.510  27.390  0.00  0.00    +0.095 C 
ATOM     12  N   UNL A   1     -23.505   2.672  27.833  0.00  0.00    -0.151 NA
ENDBRANCH   5  11
TORSDOF 2
ENDMDL
ENDMDL
