MODEL 3285
MODEL 1
REMARK VINA RESULT:    -6.855      0.000      0.000
REMARK INTER + INTRA:          -8.293
REMARK INTER:                  -7.656
REMARK INTRA:                  -0.637
REMARK UNBOUND:                -0.637
REMARK  Name = No_3285-gen_results/8p0m/2024-11-27-11-27-31/
REMARK  2 active torsions:
REMARK  status: ('A' for Active; 'I' for Inactive)
REMARK    1  A    between atoms: C_3  and  C_7
REMARK    2  A    between atoms: C_7  and  C_8
REMARK                            x       y       z     vdW  Elec       q    Type
REMARK                         _______ _______ _______ _____ _____    ______ ____
ROOT
ATOM      1  C   UNL A   1     -23.420  -1.503  29.614  0.00  0.00    +0.045 C 
ATOM      2  C   UNL A   1     -23.415  -1.031  30.998  0.00  0.00    +0.009 C 
ENDROOT
BRANCH   1   5
ATOM      3  C   UNL A   1     -24.491  -0.310  27.614  0.00  0.00    -0.004 A 
ATOM      4  C   UNL A   1     -24.424   0.473  26.912  0.00  0.00    -0.000 A 
ATOM      5  C   UNL A   1     -23.441  -0.449  28.548  0.00  0.00    -0.018 A 
ATOM      6  C   UNL A   1     -22.348   0.396  28.550  0.00  0.00    -0.004 A 
ATOM      7  C   UNL A   1     -22.344   1.402  27.598  0.00  0.00    -0.000 A 
ATOM      8  C   UNL A   1     -23.409   1.521  26.730  0.00  0.00    -0.000 A 
ENDBRANCH   1   5
BRANCH   1   9
ATOM      9  C   UNL A   1     -24.314  -2.567  29.420  0.00  0.00    -0.018 A 
ATOM     10  C   UNL A   1     -23.942  -3.803  28.894  0.00  0.00    -0.004 A 
ATOM     11  C   UNL A   1     -24.838  -4.945  28.923  0.00  0.00    -0.000 A 
ATOM     12  C   UNL A   1     -26.079  -4.795  29.504  0.00  0.00    -0.000 A 
ATOM     13  C   UNL A   1     -26.487  -3.516  30.001  0.00  0.00    -0.000 A 
ATOM     14  C   UNL A   1     -25.647  -2.477  30.008  0.00  0.00    -0.004 A 
ENDBRANCH   1   9
TORSDOF 2
ENDMDL
ENDMDL
