MODEL 3286
MODEL 1
REMARK VINA RESULT:    -4.280      0.000      0.000
REMARK INTER + INTRA:          -4.280
REMARK INTER:                  -4.280
REMARK INTRA:                   0.000
REMARK UNBOUND:                 0.000
REMARK  Name = No_3286-gen_results/8p0m/2024-11-27-11-27-31/
REMARK  0 active torsions:
REMARK  status: ('A' for Active; 'I' for Inactive)
REMARK                            x       y       z     vdW  Elec       q    Type
REMARK                         _______ _______ _______ _____ _____    ______ ____
ROOT
ATOM      1  C   UNL A   1     -26.074  -4.828  29.654  0.00  0.00    +0.000 A 
ATOM      2  C   UNL A   1     -26.195  -3.626  29.709  0.00  0.00    +0.000 A 
ATOM      3  C   UNL A   1     -25.214  -2.740  29.308  0.00  0.00    +0.000 A 
ATOM      4  C   UNL A   1     -24.013  -3.276  28.765  0.00  0.00    +0.000 A 
ATOM      5  C   UNL A   1     -23.995  -4.615  28.566  0.00  0.00    +0.000 A 
ATOM      6  C   UNL A   1     -24.998  -5.383  28.945  0.00  0.00    +0.000 A 
ENDROOT
TORSDOF 0
ENDMDL
ENDMDL
