MODEL 3287
MODEL 1
REMARK VINA RESULT:    -6.371      0.000      0.000
REMARK INTER + INTRA:          -8.375
REMARK INTER:                  -7.861
REMARK INTRA:                  -0.514
REMARK UNBOUND:                -0.514
REMARK  Name = No_3287-gen_results/8p0m/2024-11-27-11-27-31/
REMARK  4 active torsions:
REMARK  status: ('A' for Active; 'I' for Inactive)
REMARK    1  A    between atoms: C_3  and  C_8
REMARK    2  A    between atoms: C_5  and  O_7
REMARK    3  A    between atoms: O_7  and  C_15
REMARK    4  A    between atoms: C_15  and  C_16
REMARK                            x       y       z     vdW  Elec       q    Type
REMARK                         _______ _______ _______ _____ _____    ______ ____
ROOT
ATOM      1  C   UNL A   1     -29.478 -10.024  32.227  0.00  0.00    +0.037 A 
ATOM      2  C   UNL A   1     -29.644 -10.368  31.080  0.00  0.00    +0.003 A 
ATOM      3  C   UNL A   1     -29.073 -11.355  30.451  0.00  0.00    +0.000 A 
ATOM      4  C   UNL A   1     -28.119 -12.144  31.163  0.00  0.00    +0.003 A 
ATOM      5  C   UNL A   1     -28.610 -10.848  33.048  0.00  0.00    +0.142 A 
ATOM      6  C   UNL A   1     -27.971 -11.868  32.476  0.00  0.00    +0.037 A 
ENDROOT
BRANCH   3   7
ATOM      7  C   UNL A   1     -29.298 -11.649  28.973  0.00  0.00    +0.001 A 
ATOM      8  C   UNL A   1     -29.297 -12.422  28.311  0.00  0.00    +0.011 A 
ATOM      9  C   UNL A   1     -29.518 -12.515  26.834  0.00  0.00    +0.058 A 
ATOM     10  C   UNL A   1     -30.194 -10.564  28.347  0.00  0.00    +0.000 A 
ATOM     11  C   UNL A   1     -30.631 -10.550  27.040  0.00  0.00    +0.001 A 
ATOM     12  C   UNL A   1     -30.317 -11.634  26.283  0.00  0.00    +0.011 A 
ATOM     13 CL   UNL A   1     -29.179 -14.002  25.955  0.00  0.00    -0.082 Cl
ENDBRANCH   3   7
BRANCH   5  14
ATOM     14  O   UNL A   1     -28.517 -10.502  34.364  0.00  0.00    -0.443 OA
BRANCH  14  15
ATOM     15  C   UNL A   1     -27.801  -9.622  34.821  0.00  0.00    +0.422 C 
ATOM     16  O   UNL A   1     -26.447 -10.234  34.997  0.00  0.00    -0.162 OA
BRANCH  15  17
ATOM     17  C   UNL A   1     -28.002  -8.840  35.688  0.00  0.00    +0.437 C 
ATOM     18  O   UNL A   1     -27.378  -7.704  35.686  0.00  0.00    -0.238 OA
ATOM     19  O   UNL A   1     -28.740  -9.030  36.753  0.00  0.00    -0.238 OA
ENDBRANCH  15  17
ENDBRANCH  14  15
ENDBRANCH   5  14
TORSDOF 4
ENDMDL
ENDMDL
