MODEL 3288
MODEL 1
REMARK VINA RESULT:    -5.711      0.000      0.000
REMARK INTER + INTRA:          -6.185
REMARK INTER:                  -6.045
REMARK INTRA:                  -0.140
REMARK UNBOUND:                -0.140
REMARK  Name = No_3288-gen_results/8p0m/2024-11-27-11-27-31/
REMARK  1 active torsions:
REMARK  status: ('A' for Active; 'I' for Inactive)
REMARK    1  A    between atoms: C_5  and  C_7
REMARK                            x       y       z     vdW  Elec       q    Type
REMARK                         _______ _______ _______ _____ _____    ______ ____
ROOT
ATOM      1  C   UNL A   1     -22.929  -0.195  28.392  0.00  0.00    +0.082 A 
ATOM      2  C   UNL A   1     -23.753   0.476  27.816  0.00  0.00    +0.018 A 
ATOM      3  C   UNL A   1     -25.037   0.066  27.501  0.00  0.00    +0.002 A 
ATOM      4  C   UNL A   1     -25.421  -1.242  27.920  0.00  0.00    +0.005 A 
ATOM      5  C   UNL A   1     -24.532  -1.904  28.689  0.00  0.00    +0.057 A 
ATOM      6  C   UNL A   1     -23.348  -1.377  29.007  0.00  0.00    +0.024 A 
ATOM      7  N   UNL A   1     -21.704   0.565  28.557  0.00  0.00    -0.244 NA
ATOM      8  C   UNL A   1     -21.550   1.476  27.680  0.00  0.00    +0.099 A 
ATOM      9  C   UNL A   1     -22.140   1.886  26.726  0.00  0.00    +0.021 A 
ATOM     10  C   UNL A   1     -23.399   1.591  26.824  0.00  0.00    +0.003 A 
ENDROOT
BRANCH   5  11
ATOM     11  C   UNL A   1     -24.980  -3.234  29.144  0.00  0.00    +0.265 C 
ATOM     12  N   UNL A   1     -24.419  -4.182  28.972  0.00  0.00    -0.200 NA
ATOM     13  O   UNL A   1     -25.951  -3.158  30.036  0.00  0.00    -0.268 OA
ATOM     14  C   UNL A   1     -24.545  -5.309  28.822  0.00  0.00    +0.139 C 
ENDBRANCH   5  11
TORSDOF 1
ENDMDL
ENDMDL
