REMARK  Name = No_3288-gen_results/8p0m/2024-11-27-11-27-31/
REMARK  1 active torsions:
REMARK  status: ('A' for Active; 'I' for Inactive)
REMARK    1  A    between atoms: C_5  and  C_7
REMARK                            x       y       z     vdW  Elec       q    Type
REMARK                         _______ _______ _______ _____ _____    ______ ____
ROOT
ATOM      1  C   UNL A   1     -28.016  -0.814  28.878  0.00  0.00    +0.082 A 
ATOM      2  C   UNL A   1     -27.064  -0.119  28.608  0.00  0.00    +0.018 A 
ATOM      3  C   UNL A   1     -26.972   0.714  27.506  0.00  0.00    +0.002 A 
ATOM      4  C   UNL A   1     -28.105   0.774  26.642  0.00  0.00    +0.005 A 
ATOM      5  C   UNL A   1     -29.201   0.104  27.053  0.00  0.00    +0.057 A 
ATOM      6  C   UNL A   1     -29.210  -0.603  28.185  0.00  0.00    +0.024 A 
ATOM      7  N   UNL A   1     -27.761  -1.540  30.108  0.00  0.00    -0.244 NA
ATOM      8  C   UNL A   1     -26.522  -1.720  30.344  0.00  0.00    +0.099 A 
ATOM      9  C   UNL A   1     -25.481  -1.463  29.817  0.00  0.00    +0.021 A 
ATOM     10  C   UNL A   1     -25.625  -0.447  29.024  0.00  0.00    +0.003 A 
ENDROOT
BRANCH   5  11
ATOM     11  C   UNL A   1     -30.370   0.226  26.160  0.00  0.00    +0.265 C 
ATOM     12  N   UNL A   1     -30.993   1.145  26.058  0.00  0.00    -0.200 NA
ATOM     13  O   UNL A   1     -30.425  -0.748  25.270  0.00  0.00    -0.268 OA
ATOM     14  C   UNL A   1     -32.050   1.516  25.826  0.00  0.00    +0.139 C 
ENDBRANCH   5  11
TORSDOF 1
