MODEL 3289
MODEL 1
REMARK VINA RESULT:    -7.608      0.000      0.000
REMARK INTER + INTRA:          -9.842
REMARK INTER:                  -8.942
REMARK INTRA:                  -0.900
REMARK UNBOUND:                -0.900
REMARK  Name = No_3289-gen_results/8p0m/2024-11-27-11-27-31/
REMARK  3 active torsions:
REMARK  status: ('A' for Active; 'I' for Inactive)
REMARK    1  A    between atoms: C_7  and  C_15
REMARK    2  A    between atoms: C_15  and  C_17
REMARK    3  A    between atoms: C_17  and  C_18
REMARK                            x       y       z     vdW  Elec       q    Type
REMARK                         _______ _______ _______ _____ _____    ______ ____
ROOT
ATOM      1 CL   UNL A   1     -11.031   1.389  33.937  0.00  0.00    -0.080 Cl
ATOM      2  C   UNL A   1     -11.903   1.684  34.941  0.00  0.00    +0.082 A 
ATOM      3  C   UNL A   1     -13.083   2.155  34.697  0.00  0.00    +0.150 A 
ATOM      4  C   UNL A   1     -14.038   2.603  35.712  0.00  0.00    +0.030 A 
ATOM      5  C   UNL A   1     -13.620   2.521  37.063  0.00  0.00    +0.030 A 
ATOM      6  C   UNL A   1     -12.326   2.081  37.310  0.00  0.00    +0.000 A 
ATOM      7  C   UNL A   1     -11.467   1.722  36.318  0.00  0.00    +0.008 A 
ATOM      8  C   UNL A   1     -14.515   2.956  38.131  0.00  0.00    +0.151 A 
ATOM      9  C   UNL A   1     -15.538   3.711  37.864  0.00  0.00    +0.085 A 
ATOM     10  C   UNL A   1     -15.971   3.856  36.433  0.00  0.00    +0.014 A 
ATOM     11  C   UNL A   1     -15.182   3.410  35.469  0.00  0.00    +0.003 A 
ATOM     12 CL   UNL A   1     -16.694   4.298  39.045  0.00  0.00    -0.080 Cl
ATOM     13  F   UNL A   1     -13.538   2.310  33.468  0.00  0.00    -0.203 F 
ATOM     14  F   UNL A   1     -14.128   2.907  39.394  0.00  0.00    -0.203 F 
ENDROOT
BRANCH   7  15
ATOM     15  C   UNL A   1     -10.113   1.127  36.713  0.00  0.00    +0.119 C 
ATOM     16  N   UNL A   1      -9.146   1.919  36.681  0.00  0.00    -0.128 NA
BRANCH  15  17
ATOM     17  C   UNL A   1     -10.062  -0.191  37.079  0.00  0.00    +0.050 C 
BRANCH  17  18
ATOM     18  C   UNL A   1     -10.628  -0.829  37.888  0.00  0.00    -0.020 A 
ATOM     19  C   UNL A   1     -11.393  -1.929  37.569  0.00  0.00    -0.004 A 
ATOM     20  C   UNL A   1     -12.180  -2.712  38.599  0.00  0.00    -0.000 A 
ATOM     21  C   UNL A   1     -11.938  -2.394  39.839  0.00  0.00    -0.000 A 
ATOM     22  C   UNL A   1     -11.183  -1.303  40.225  0.00  0.00    -0.000 A 
ATOM     23  C   UNL A   1     -10.582  -0.573  39.294  0.00  0.00    -0.004 A 
ENDBRANCH  17  18
ENDBRANCH  15  17
ENDBRANCH   7  15
TORSDOF 3
ENDMDL
ENDMDL
