MODEL 328
MODEL 1
REMARK VINA RESULT:    -4.984      0.000      0.000
REMARK INTER + INTRA:          -5.311
REMARK INTER:                  -5.275
REMARK INTRA:                  -0.035
REMARK UNBOUND:                -0.035
REMARK  Name = No_328-gen_results/8p0m/2024-11-27-11-27-31/
REMARK  1 active torsions:
REMARK  status: ('A' for Active; 'I' for Inactive)
REMARK    1  A    between atoms: C_2  and  C_7
REMARK                            x       y       z     vdW  Elec       q    Type
REMARK                         _______ _______ _______ _____ _____    ______ ____
ROOT
ATOM      1  C   UNL A   1     -28.822 -10.500  32.823  0.00  0.00    +0.007 A 
ATOM      2  C   UNL A   1     -28.134 -11.250  32.550  0.00  0.00    +0.080 A 
ATOM      3  C   UNL A   1     -29.733 -10.020  31.715  0.00  0.00    +0.000 A 
ATOM      4  C   UNL A   1     -29.712 -10.680  30.468  0.00  0.00    +0.000 A 
ATOM      5  C   UNL A   1     -27.930 -12.110  31.362  0.00  0.00    +0.007 A 
ATOM      6  C   UNL A   1     -28.756 -11.702  30.324  0.00  0.00    +0.000 A 
ENDROOT
BRANCH   2   7
ATOM      7  C   UNL A   1     -27.162 -11.789  33.710  0.00  0.00    +0.388 C 
ATOM      8  O   UNL A   1     -26.755 -12.792  33.800  0.00  0.00    -0.241 OA
ATOM      9  O   UNL A   1     -26.983 -10.864  34.662  0.00  0.00    -0.241 OA
ENDBRANCH   2   7
TORSDOF 1
ENDMDL
ENDMDL
