REMARK  Name = No_3290-gen_results/8p0m/2024-11-27-11-27-31/
REMARK  2 active torsions:
REMARK  status: ('A' for Active; 'I' for Inactive)
REMARK    1  A    between atoms: C_5  and  C_8
REMARK    2  A    between atoms: C_7  and  C_11
REMARK                            x       y       z     vdW  Elec       q    Type
REMARK                         _______ _______ _______ _____ _____    ______ ____
ROOT
ATOM      1 CL   UNL A   1     -28.149  -0.820  28.908  0.00  0.00    -0.082 Cl
ATOM      2  C   UNL A   1     -26.912  -0.080  28.945  0.00  0.00    +0.058 A 
ATOM      3  C   UNL A   1     -26.049  -0.072  27.859  0.00  0.00    +0.011 A 
ATOM      4  C   UNL A   1     -24.719   0.403  27.917  0.00  0.00    +0.005 A 
ATOM      5  C   UNL A   1     -24.210   0.930  29.084  0.00  0.00    +0.057 A 
ATOM      6  C   UNL A   1     -25.023   0.908  30.188  0.00  0.00    +0.005 A 
ATOM      7  C   UNL A   1     -26.253   0.390  30.140  0.00  0.00    +0.011 A 
ENDROOT
BRANCH   7   8
ATOM      8  C   UNL A   1     -27.079   0.350  31.430  0.00  0.00    +0.001 A 
ATOM      9  C   UNL A   1     -28.344   0.804  31.482  0.00  0.00    +0.000 A 
ATOM     10  C   UNL A   1     -29.061   0.632  32.619  0.00  0.00    +0.000 A 
ATOM     11  C   UNL A   1     -28.389   0.285  33.853  0.00  0.00    +0.000 A 
ATOM     12  C   UNL A   1     -27.061  -0.117  33.832  0.00  0.00    +0.000 A 
ATOM     13  C   UNL A   1     -26.374  -0.105  32.623  0.00  0.00    +0.000 A 
ENDBRANCH   7   8
BRANCH   5  14
ATOM     14  C   UNL A   1     -22.850   1.448  29.059  0.00  0.00    +0.284 C 
ATOM     15  N   UNL A   1     -22.094   1.523  27.976  0.00  0.00    -0.084 NA
ATOM     16  O   UNL A   1     -22.343   1.824  30.160  0.00  0.00    -0.267 OA
ENDBRANCH   5  14
TORSDOF 2
