MODEL 3290
MODEL 1
REMARK VINA RESULT:    -6.611      0.000      0.000
REMARK INTER + INTRA:          -7.776
REMARK INTER:                  -7.384
REMARK INTRA:                  -0.393
REMARK UNBOUND:                -0.393
REMARK  Name = No_3290-gen_results/8p0m/2024-11-27-11-27-31/
REMARK  2 active torsions:
REMARK  status: ('A' for Active; 'I' for Inactive)
REMARK    1  A    between atoms: C_5  and  C_8
REMARK    2  A    between atoms: C_7  and  C_11
REMARK                            x       y       z     vdW  Elec       q    Type
REMARK                         _______ _______ _______ _____ _____    ______ ____
ROOT
ATOM      1 CL   UNL A   1     -31.030  -9.715  29.837  0.00  0.00    -0.082 Cl
ATOM      2  C   UNL A   1     -30.209 -10.307  30.864  0.00  0.00    +0.058 A 
ATOM      3  C   UNL A   1     -29.962  -9.642  32.056  0.00  0.00    +0.011 A 
ATOM      4  C   UNL A   1     -28.970 -10.035  32.983  0.00  0.00    +0.005 A 
ATOM      5  C   UNL A   1     -28.198 -11.153  32.756  0.00  0.00    +0.057 A 
ATOM      6  C   UNL A   1     -28.391 -11.818  31.572  0.00  0.00    +0.005 A 
ATOM      7  C   UNL A   1     -29.281 -11.395  30.671  0.00  0.00    +0.011 A 
ENDROOT
BRANCH   7   8
ATOM      8  C   UNL A   1     -29.398 -12.158  29.347  0.00  0.00    +0.001 A 
ATOM      9  C   UNL A   1     -28.996 -11.626  28.179  0.00  0.00    +0.000 A 
ATOM     10  C   UNL A   1     -29.015 -12.394  27.062  0.00  0.00    +0.000 A 
ATOM     11  C   UNL A   1     -29.762 -13.634  27.049  0.00  0.00    +0.000 A 
ATOM     12  C   UNL A   1     -30.249 -14.165  28.235  0.00  0.00    +0.000 A 
ATOM     13  C   UNL A   1     -30.073 -13.449  29.414  0.00  0.00    +0.000 A 
ENDBRANCH   7   8
BRANCH   5  14
ATOM     14  C   UNL A   1     -27.230 -11.529  33.776  0.00  0.00    +0.284 C 
ATOM     15  N   UNL A   1     -26.772 -10.716  34.714  0.00  0.00    -0.084 NA
ATOM     16  O   UNL A   1     -26.769 -12.711  33.743  0.00  0.00    -0.267 OA
ENDBRANCH   5  14
TORSDOF 2
ENDMDL
ENDMDL
