REMARK  Name = outputs/IAG933/test6/raw/output_3291_IAG933_linker_design_.xyz
REMARK  16 active torsions:
REMARK  status: ('A' for Active; 'I' for Inactive)
REMARK    1  A    between atoms: C_1  and  C_2
REMARK    2  A    between atoms: C_1  and  C_8
REMARK    3  A    between atoms: C_1  and  C_37
REMARK    4  A    between atoms: C_13  and  S_41
REMARK    5  A    between atoms: C_14  and  C_15
REMARK    6  A    between atoms: C_21  and  O_22
REMARK    7  A    between atoms: O_22  and  C_23
REMARK    8  A    between atoms: C_23  and  C_24
REMARK    9  A    between atoms: C_29  and  C_30
REMARK   10  A    between atoms: C_29  and  C_35
REMARK   11  A    between atoms: C_30  and  C_37
REMARK   12  A    between atoms: C_30  and  S_41
REMARK   13  A    between atoms: C_32  and  C_39
REMARK   14  A    between atoms: C_32  and  N_42
REMARK   15  A    between atoms: C_33  and  C_37
REMARK   16  A    between atoms: C_33  and  N_42
REMARK                            x       y       z     vdW  Elec       q    Type
REMARK                         _______ _______ _______ _____ _____    ______ ____
ROOT
ATOM      1  C   UNL A   1     -23.532   0.731  28.115  0.00  0.00    +0.051 C 
ENDROOT
BRANCH   1   2
ATOM      2  C   UNL A   1     -21.994   0.991  28.199  0.00  0.00    +0.029 C 
ATOM      3  C   UNL A   1     -21.421   1.867  27.128  0.00  0.00    +0.002 C 
BRANCH   2   5
ATOM      4  N   UNL A   1     -21.747  -0.781  29.756  0.00  0.00    -0.131 NA
ATOM      5  C   UNL A   1     -21.032  -0.074  28.663  0.00  0.00    +0.110 C 
ENDBRANCH   2   5
ENDBRANCH   1   2
BRANCH   1   6
ATOM      6  C   UNL A   1     -24.685   0.022  28.970  0.00  0.00    +0.033 C 
BRANCH   6   7
ATOM      7  C   UNL A   1     -24.855  -1.012  30.143  0.00  0.00    +0.041 C 
BRANCH   7   8
ATOM      8  C   UNL A   1     -24.973  -2.505  29.788  0.00  0.00    -0.021 C 
ATOM      9  C   UNL A   1     -23.906  -3.173  29.146  0.00  0.00    -0.004 C 
ATOM     10  C   UNL A   1     -23.989  -4.549  28.853  0.00  0.00    -0.000 C 
ATOM     11  C   UNL A   1     -25.137  -5.280  29.205  0.00  0.00    -0.000 C 
ATOM     12  C   UNL A   1     -26.232  -4.611  29.784  0.00  0.00    -0.000 C 
ATOM     13  C   UNL A   1     -26.155  -3.232  30.065  0.00  0.00    -0.004 C 
ENDBRANCH   7   8
BRANCH   7  14
ATOM     14  C   UNL A   1     -25.387  -0.679  31.571  0.00  0.00    +0.077 C 
ATOM     15  C   UNL A   1     -25.189   0.773  32.028  0.00  0.00    +0.019 C 
ATOM     16  C   UNL A   1     -25.336   0.684  33.544  0.00  0.00    +0.020 C 
ATOM     17  C   UNL A   1     -24.829  -0.715  33.905  0.00  0.00    +0.089 C 
ATOM     18  N   UNL A   1     -24.758  -1.481  32.646  0.00  0.00    -0.219 NA
ENDBRANCH   7  14
ENDBRANCH   6   7
BRANCH   6  19
ATOM     19  C   UNL A   1     -26.083   0.754  28.996  0.00  0.00    +0.092 C 
BRANCH  19  20
ATOM     20  N   UNL A   1     -27.227  -0.101  29.518  0.00  0.00    -0.190 NA
BRANCH  20  22
ATOM     21  C   UNL A   1     -28.837   1.617  29.945  0.00  0.00    +0.054 C 
ATOM     22  C   UNL A   1     -28.707   0.211  29.397  0.00  0.00    +0.214 C 
ATOM     23  O   UNL A   1     -29.173  -0.075  28.135  0.00  0.00    -0.205 OA
BRANCH  22  26
ATOM     24  C   UNL A   1     -30.765   0.005  30.550  0.00  0.00    +0.040 C 
ATOM     25  O   UNL A   1     -29.572  -1.987  29.705  0.00  0.00    -0.219 OA
ATOM     26  C   UNL A   1     -29.358  -0.681  30.317  0.00  0.00    +0.195 C 
ENDBRANCH  22  26
ENDBRANCH  20  22
ENDBRANCH  19  20
ENDBRANCH   6  19
ENDBRANCH   1   6
BRANCH   1  27
ATOM     27  S   UNL A   1     -24.070   1.426  26.584  0.00  0.00    -0.134 S 
BRANCH  27  28
ATOM     28  C   UNL A   1     -25.688   1.614  26.461  0.00  0.00    +0.117 C 
ATOM     29  C   UNL A   1     -26.250   2.920  26.395  0.00  0.00    +0.065 C 
ATOM     30  C   UNL A   1     -27.438   3.091  25.645  0.00  0.00    +0.103 C 
ATOM     31  N   UNL A   1     -28.075   2.089  25.003  0.00  0.00    -0.212 NA
ATOM     32  C   UNL A   1     -27.543   0.849  25.079  0.00  0.00    +0.235 C 
ATOM     33  C   UNL A   1     -26.354   0.576  25.777  0.00  0.00    +0.250 C 
ATOM     34  F   UNL A   1     -25.860  -0.681  25.795  0.00  0.00    -0.226 F 
BRANCH  29  35
ATOM     35  C   UNL A   1     -25.642   4.093  27.123  0.00  0.00    +0.263 C 
ATOM     36  N   UNL A   1     -25.614   5.252  26.449  0.00  0.00    -0.200 NA
ATOM     37  C   UNL A   1     -25.026   6.479  26.963  0.00  0.00    +0.139 C 
ATOM     38  O   UNL A   1     -25.143   3.966  28.243  0.00  0.00    -0.269 OA
ENDBRANCH  29  35
BRANCH  32  39
ATOM     39  O   UNL A   1     -28.193  -0.208  24.477  0.00  0.00    -0.459 OA
BRANCH  39  40
ATOM     40  C   UNL A   1     -29.460   0.005  23.866  0.00  0.00    +0.242 C 
BRANCH  40  41
ATOM     41  C   UNL A   1     -30.065  -1.377  23.573  0.00  0.00    +0.229 C 
ATOM     42  O   UNL A   1     -30.729  -1.878  24.721  0.00  0.00    -0.216 OA
ENDBRANCH  40  41
ENDBRANCH  39  40
ENDBRANCH  32  39
ENDBRANCH  27  28
ENDBRANCH   1  27
TORSDOF 16
