MODEL 3292
MODEL 1
REMARK VINA RESULT:    -6.326      0.000      0.000
REMARK INTER + INTRA:          -7.439
REMARK INTER:                  -7.066
REMARK INTRA:                  -0.373
REMARK UNBOUND:                -0.373
REMARK  Name = No_3292-gen_results/8p0m/2024-11-27-11-27-31/
REMARK  2 active torsions:
REMARK  status: ('A' for Active; 'I' for Inactive)
REMARK    1  A    between atoms: C_2  and  O_7
REMARK    2  A    between atoms: O_7  and  C_8
REMARK                            x       y       z     vdW  Elec       q    Type
REMARK                         _______ _______ _______ _____ _____    ______ ____
ROOT
ATOM      1  O   UNL A   1     -24.307  -1.068  28.828  0.00  0.00    -0.454 OA
ENDROOT
BRANCH   1   3
ATOM      2  C   UNL A   1     -23.856  -3.301  28.636  0.00  0.00    +0.037 A 
ATOM      3  C   UNL A   1     -24.588  -2.402  28.978  0.00  0.00    +0.145 A 
ATOM      4  C   UNL A   1     -25.825  -2.664  29.558  0.00  0.00    +0.037 A 
ATOM      5  C   UNL A   1     -26.291  -4.016  29.728  0.00  0.00    +0.003 A 
ATOM      6  C   UNL A   1     -25.391  -4.993  29.283  0.00  0.00    +0.000 A 
ATOM      7  C   UNL A   1     -24.241  -4.692  28.726  0.00  0.00    +0.003 A 
ENDBRANCH   1   3
BRANCH   1   8
ATOM      8  C   UNL A   1     -23.901  -0.373  28.175  0.00  0.00    +0.145 A 
ATOM      9  C   UNL A   1     -24.527   0.178  27.128  0.00  0.00    +0.037 A 
ATOM     10  C   UNL A   1     -24.042   1.297  26.326  0.00  0.00    +0.003 A 
ATOM     11  C   UNL A   1     -22.827   1.861  26.779  0.00  0.00    +0.000 A 
ATOM     12  C   UNL A   1     -22.614   0.394  28.481  0.00  0.00    +0.037 A 
ATOM     13  C   UNL A   1     -22.123   1.405  27.778  0.00  0.00    +0.003 A 
ENDBRANCH   1   8
TORSDOF 2
ENDMDL
ENDMDL
