REMARK  Name = outputs/IAG933/test6/raw/output_3292_IAG933_linker_design_.xyz
REMARK  14 active torsions:
REMARK  status: ('A' for Active; 'I' for Inactive)
REMARK    1  A    between atoms: C_1  and  C_2
REMARK    2  A    between atoms: C_1  and  C_8
REMARK    3  A    between atoms: C_1  and  O_33
REMARK    4  A    between atoms: C_13  and  N_35
REMARK    5  A    between atoms: C_14  and  C_15
REMARK    6  A    between atoms: C_21  and  O_22
REMARK    7  A    between atoms: O_22  and  C_23
REMARK    8  A    between atoms: C_23  and  C_24
REMARK    9  A    between atoms: O_33  and  C_34
REMARK   10  A    between atoms: C_34  and  N_35
REMARK   11  A    between atoms: C_34  and  N_40
REMARK   12  A    between atoms: N_35  and  C_36
REMARK   13  A    between atoms: C_37  and  C_39
REMARK   14  A    between atoms: C_37  and  N_40
REMARK                            x       y       z     vdW  Elec       q    Type
REMARK                         _______ _______ _______ _____ _____    ______ ____
ROOT
ATOM      1  N   UNL A   1     -24.807   1.158  27.568  0.00  0.00    -0.147 N 
ENDROOT
BRANCH   1   2
ATOM      2  C   UNL A   1     -25.688   1.614  26.461  0.00  0.00    +0.234 C 
ATOM      3  C   UNL A   1     -26.250   2.920  26.395  0.00  0.00    +0.097 C 
ATOM      4  C   UNL A   1     -27.438   3.091  25.645  0.00  0.00    +0.106 C 
ATOM      5  N   UNL A   1     -28.075   2.089  25.003  0.00  0.00    -0.212 NA
ATOM      6  C   UNL A   1     -27.543   0.849  25.079  0.00  0.00    +0.238 C 
ATOM      7  C   UNL A   1     -26.354   0.576  25.777  0.00  0.00    +0.282 C 
ATOM      8  F   UNL A   1     -25.860  -0.681  25.795  0.00  0.00    -0.223 F 
BRANCH   3   9
ATOM      9  C   UNL A   1     -25.642   4.093  27.123  0.00  0.00    +0.266 C 
ATOM     10  N   UNL A   1     -25.614   5.252  26.449  0.00  0.00    -0.200 NA
ATOM     11  C   UNL A   1     -25.026   6.479  26.963  0.00  0.00    +0.139 C 
ATOM     12  O   UNL A   1     -25.143   3.966  28.243  0.00  0.00    -0.269 OA
ENDBRANCH   3   9
BRANCH   6  13
ATOM     13  O   UNL A   1     -28.193  -0.208  24.477  0.00  0.00    -0.458 OA
BRANCH  13  14
ATOM     14  C   UNL A   1     -29.460   0.005  23.866  0.00  0.00    +0.242 C 
BRANCH  14  15
ATOM     15  C   UNL A   1     -30.065  -1.377  23.573  0.00  0.00    +0.229 C 
ATOM     16  O   UNL A   1     -30.729  -1.878  24.721  0.00  0.00    -0.216 OA
ENDBRANCH  14  15
ENDBRANCH  13  14
ENDBRANCH   6  13
ENDBRANCH   1   2
BRANCH   1  20
ATOM     17  O   UNL A   1     -21.352   1.560  27.439  0.00  0.00    -0.394 OA
ATOM     18 CL   UNL A   1     -22.768   2.410  25.253  0.00  0.00    -0.035 Cl
ATOM     19  C   UNL A   1     -22.575   1.689  26.865  0.00  0.00    +0.290 C 
ATOM     20  C   UNL A   1     -23.517   1.164  27.705  0.00  0.00    +0.377 C 
ATOM     21  C   UNL A   1     -21.610   0.848  28.536  0.00  0.00    +0.427 C 
ATOM     22  N   UNL A   1     -22.799   0.512  28.802  0.00  0.00    +0.010 NA
ENDBRANCH   1  20
BRANCH   1  23
ATOM     23  C   UNL A   1     -25.474   0.744  28.732  0.00  0.00    +0.371 C 
BRANCH  23  24
ATOM     24  O   UNL A   1     -25.897  -0.448  28.914  0.00  0.00    -0.301 OA
BRANCH  24  25
ATOM     25  C   UNL A   1     -24.855  -1.012  30.143  0.00  0.00    +0.159 C 
BRANCH  25  26
ATOM     26  C   UNL A   1     -24.973  -2.505  29.788  0.00  0.00    +0.006 C 
ATOM     27  C   UNL A   1     -23.906  -3.173  29.146  0.00  0.00    -0.002 C 
ATOM     28  C   UNL A   1     -23.989  -4.549  28.853  0.00  0.00    -0.000 C 
ATOM     29  C   UNL A   1     -25.137  -5.280  29.205  0.00  0.00    -0.000 C 
ATOM     30  C   UNL A   1     -26.232  -4.611  29.784  0.00  0.00    -0.000 C 
ATOM     31  C   UNL A   1     -26.155  -3.232  30.065  0.00  0.00    -0.002 C 
ENDBRANCH  25  26
BRANCH  25  32
ATOM     32  C   UNL A   1     -25.387  -0.679  31.571  0.00  0.00    +0.104 C 
ATOM     33  C   UNL A   1     -25.189   0.773  32.028  0.00  0.00    +0.022 C 
ATOM     34  C   UNL A   1     -25.336   0.684  33.544  0.00  0.00    +0.020 C 
ATOM     35  C   UNL A   1     -24.829  -0.715  33.905  0.00  0.00    +0.089 C 
ATOM     36  N   UNL A   1     -24.758  -1.481  32.646  0.00  0.00    -0.217 NA
ENDBRANCH  25  32
ENDBRANCH  24  25
ENDBRANCH  23  24
BRANCH  23  37
ATOM     37  N   UNL A   1     -25.811   1.599  29.776  0.00  0.00    -0.139 NA
BRANCH  37  38
ATOM     38  C   UNL A   1     -25.586   2.850  30.447  0.00  0.00    +0.183 C 
BRANCH  38  41
ATOM     39  O   UNL A   1     -24.483   3.774  32.384  0.00  0.00    -0.270 OA
ATOM     40  N   UNL A   1     -25.641   5.100  31.047  0.00  0.00    -0.086 NA
ATOM     41  C   UNL A   1     -25.181   3.908  31.387  0.00  0.00    +0.279 C 
ENDBRANCH  38  41
ENDBRANCH  37  38
ENDBRANCH  23  37
ENDBRANCH   1  23
TORSDOF 14
