MODEL 3294
MODEL 1
REMARK VINA RESULT:    -6.361      0.000      0.000
REMARK INTER + INTRA:          -8.349
REMARK INTER:                  -7.849
REMARK INTRA:                  -0.500
REMARK UNBOUND:                -0.500
REMARK  Name = No_3294-gen_results/8p0m/2024-11-27-11-27-31/
REMARK  4 active torsions:
REMARK  status: ('A' for Active; 'I' for Inactive)
REMARK    1  A    between atoms: C_5  and  C_11
REMARK    2  A    between atoms: C_7  and  C_17
REMARK    3  A    between atoms: C_8  and  C_14
REMARK    4  A    between atoms: C_17  and  N_18
REMARK                            x       y       z     vdW  Elec       q    Type
REMARK                         _______ _______ _______ _____ _____    ______ ____
ROOT
ATOM      1  C   UNL A   1     -28.370 -11.635  30.935  0.00  0.00    +0.006 A 
ATOM      2  C   UNL A   1     -29.249 -11.025  30.372  0.00  0.00    -0.002 A 
ATOM      3  C   UNL A   1     -29.842  -9.913  30.960  0.00  0.00    -0.000 A 
ATOM      4  C   UNL A   1     -30.937  -9.087  30.376  0.00  0.00    +0.004 A 
ATOM      5  C   UNL A   1     -31.291  -9.385  29.027  0.00  0.00    +0.050 A 
ATOM      6  C   UNL A   1     -30.636 -10.479  28.429  0.00  0.00    +0.002 A 
ATOM      7  C   UNL A   1     -29.692 -11.220  29.027  0.00  0.00    +0.002 A 
ATOM      8  C   UNL A   1     -28.270 -11.624  32.432  0.00  0.00    +0.080 A 
ATOM      9  C   UNL A   1     -28.773 -10.435  33.073  0.00  0.00    +0.007 A 
ATOM     10  C   UNL A   1     -29.662  -9.615  32.382  0.00  0.00    +0.000 A 
ENDROOT
BRANCH   5  11
ATOM     11  C   UNL A   1     -32.297  -8.547  28.362  0.00  0.00    +0.254 C 
ATOM     12 CL   UNL A   1     -31.997  -7.872  26.901  0.00  0.00    -0.038 Cl
ATOM     13  O   UNL A   1     -33.502  -8.463  28.898  0.00  0.00    -0.274 OA
ENDBRANCH   5  11
BRANCH   8  14
ATOM     14  C   UNL A   1     -27.263 -12.383  33.164  0.00  0.00    +0.388 C 
ATOM     15  O   UNL A   1     -26.493 -13.003  32.659  0.00  0.00    -0.241 OA
ATOM     16  O   UNL A   1     -27.350 -12.407  34.499  0.00  0.00    -0.241 OA
ENDBRANCH   8  14
BRANCH   7  17
ATOM     17  C   UNL A   1     -29.056 -12.320  28.232  0.00  0.00    +0.151 C 
BRANCH  17  18
ATOM     18  N   UNL A   1     -29.730 -13.370  28.143  0.00  0.00    -0.269 NA
ATOM     19  C   UNL A   1     -30.235 -14.164  28.529  0.00  0.00    +0.068 C 
ATOM     20  C   UNL A   1     -31.024 -15.302  27.935  0.00  0.00    +0.053 C 
ENDBRANCH  17  18
ENDBRANCH   7  17
TORSDOF 4
ENDMDL
ENDMDL
