MODEL 3295
MODEL 1
REMARK VINA RESULT:    -7.257      0.000      0.000
REMARK INTER + INTRA:         -12.064
REMARK INTER:                 -10.227
REMARK INTRA:                  -1.837
REMARK UNBOUND:                -1.837
REMARK  Name = No_3295-gen_results/8p0m/2024-11-27-11-27-31/
REMARK  7 active torsions:
REMARK  status: ('A' for Active; 'I' for Inactive)
REMARK    1  A    between atoms: C_3  and  C_7
REMARK    2  A    between atoms: C_5  and  O_17
REMARK    3  A    between atoms: O_17  and  C_18
REMARK    4  A    between atoms: C_20  and  C_32
REMARK    5  A    between atoms: C_22  and  C_24
REMARK    6  A    between atoms: C_24  and  C_25
REMARK    7  A    between atoms: C_32  and  O_34
REMARK                            x       y       z     vdW  Elec       q    Type
REMARK                         _______ _______ _______ _____ _____    ______ ____
ROOT
ATOM      1  C   UNL A   1     -29.481  -7.154   8.732  0.00  0.00    +0.145 A 
ATOM      2  C   UNL A   1     -29.473  -6.009   7.804  0.00  0.00    +0.044 A 
ATOM      3  C   UNL A   1     -30.100  -4.842   8.235  0.00  0.00    +0.078 A 
ATOM      4  C   UNL A   1     -30.696  -4.744   9.118  0.00  0.00    +0.003 A 
ATOM      5  C   UNL A   1     -30.896  -5.783  10.151  0.00  0.00    -0.015 A 
ATOM      6  C   UNL A   1     -30.310  -7.013   9.836  0.00  0.00    +0.034 A 
ENDROOT
BRANCH   3   7
ATOM      7  C   UNL A   1     -29.927  -3.683   7.207  0.00  0.00    +0.341 C 
ATOM      8  O   UNL A   1     -30.853  -2.881   7.099  0.00  0.00    -0.245 OA
BRANCH   7   9
ATOM      9  O   UNL A   1     -28.732  -3.360   6.873  0.00  0.00    -0.441 OA
ATOM     10  C   UNL A   1     -28.306  -2.395   6.466  0.00  0.00    +0.256 C 
ENDBRANCH   7   9
ENDBRANCH   3   7
BRANCH   1  11
ATOM     11  O   UNL A   1     -29.185  -8.189   8.177  0.00  0.00    -0.452 OA
BRANCH  11  16
ATOM     12  C   UNL A   1     -28.498 -11.026  10.143  0.00  0.00    +0.015 A 
ATOM     13  C   UNL A   1     -28.428 -10.137   9.582  0.00  0.00    +0.093 A 
ATOM     14  C   UNL A   1     -29.717 -11.770  10.002  0.00  0.00    +0.003 A 
ATOM     15  C   UNL A   1     -30.781 -11.307   9.339  0.00  0.00    +0.015 A 
ATOM     16  C   UNL A   1     -29.453  -9.440   8.818  0.00  0.00    +0.166 A 
ATOM     17  C   UNL A   1     -30.594 -10.104   8.697  0.00  0.00    +0.093 A 
ATOM     18 CL   UNL A   1     -31.924  -9.428   7.813  0.00  0.00    -0.079 Cl
ATOM     19 CL   UNL A   1     -26.890  -9.166   9.616  0.00  0.00    -0.079 Cl
BRANCH  14  20
ATOM     20  C   UNL A   1     -29.807 -13.122  10.722  0.00  0.00    +0.017 A 
ATOM     21  C   UNL A   1     -30.098 -13.291  11.821  0.00  0.00    +0.058 A 
ATOM     22  C   UNL A   1     -30.091 -14.650  12.434  0.00  0.00    +0.011 A 
ATOM     23  C   UNL A   1     -29.498 -14.276   9.905  0.00  0.00    +0.035 A 
ATOM     24  C   UNL A   1     -29.607 -15.579  10.307  0.00  0.00    +0.007 A 
ATOM     25  C   UNL A   1     -29.851 -15.738  11.623  0.00  0.00    +0.001 A 
ATOM     26 CL   UNL A   1     -30.387 -12.084  13.005  0.00  0.00    -0.082 Cl
ATOM     27 BR   UNL A   1     -29.095 -14.112   7.975  0.00  0.00    -0.049 Br
ENDBRANCH  14  20
ENDBRANCH  11  16
ENDBRANCH   1  11
BRANCH   5  28
ATOM     28  C   UNL A   1     -31.663  -5.650  11.409  0.00  0.00    +0.055 C 
BRANCH  28  29
ATOM     29  C   UNL A   1     -33.043  -5.307  11.100  0.00  0.00    +0.012 A 
ATOM     30  C   UNL A   1     -33.524  -3.987  11.253  0.00  0.00    +0.057 A 
ATOM     31  C   UNL A   1     -34.764  -3.612  10.794  0.00  0.00    +0.032 A 
ATOM     32  C   UNL A   1     -35.615  -4.556  10.328  0.00  0.00    +0.100 A 
ATOM     33  C   UNL A   1     -33.963  -6.216  10.537  0.00  0.00    +0.096 A 
ATOM     34  N   UNL A   1     -35.140  -5.827  10.125  0.00  0.00    -0.243 NA
ATOM     35 CL   UNL A   1     -32.466  -2.754  11.804  0.00  0.00    -0.083 Cl
ENDBRANCH  28  29
ENDBRANCH   5  28
TORSDOF 7
ENDMDL
ENDMDL
