MODEL 3296
MODEL 1
REMARK VINA RESULT:    -6.371      0.000      0.000
REMARK INTER + INTRA:          -7.013
REMARK INTER:                  -6.744
REMARK INTRA:                  -0.269
REMARK UNBOUND:                -0.269
REMARK  Name = No_3296-gen_results/8p0m/2024-11-27-11-27-31/
REMARK  1 active torsions:
REMARK  status: ('A' for Active; 'I' for Inactive)
REMARK    1  A    between atoms: C_2  and  C_5
REMARK                            x       y       z     vdW  Elec       q    Type
REMARK                         _______ _______ _______ _____ _____    ______ ____
ROOT
ATOM      1  C   UNL A   1     -24.037  -3.892  28.778  0.00  0.00    +0.002 A 
ATOM      2  C   UNL A   1     -24.391  -2.938  29.053  0.00  0.00    +0.018 A 
ATOM      3  C   UNL A   1     -24.873  -5.002  29.027  0.00  0.00    +0.000 A 
ATOM      4  C   UNL A   1     -26.111  -4.866  29.622  0.00  0.00    +0.000 A 
ATOM      5  C   UNL A   1     -26.483  -3.551  29.933  0.00  0.00    +0.000 A 
ATOM      6  C   UNL A   1     -25.663  -2.486  29.608  0.00  0.00    +0.002 A 
ENDROOT
BRANCH   2   7
ATOM      7  C   UNL A   1     -23.554  -1.682  28.762  0.00  0.00    +0.081 A 
ATOM      8  N   UNL A   1     -22.353  -1.411  29.093  0.00  0.00    -0.244 NA
ATOM      9  C   UNL A   1     -24.149  -0.497  28.069  0.00  0.00    +0.019 A 
ATOM     10  C   UNL A   1     -23.450   0.646  27.956  0.00  0.00    +0.003 A 
ATOM     11  C   UNL A   1     -21.584  -0.370  29.031  0.00  0.00    +0.099 A 
ATOM     12  C   UNL A   1     -22.139   0.747  28.410  0.00  0.00    +0.021 A 
ENDBRANCH   2   7
TORSDOF 1
ENDMDL
ENDMDL
