REMARK  Name = outputs/IAG933/test6/raw/output_3296_IAG933_linker_design_.xyz
REMARK  16 active torsions:
REMARK  status: ('A' for Active; 'I' for Inactive)
REMARK    1  A    between atoms: C_1  and  C_2
REMARK    2  A    between atoms: C_1  and  C_8
REMARK    3  A    between atoms: C_1  and  N_42
REMARK    4  A    between atoms: C_13  and  N_36
REMARK    5  A    between atoms: C_14  and  C_15
REMARK    6  A    between atoms: C_21  and  O_22
REMARK    7  A    between atoms: O_22  and  C_23
REMARK    8  A    between atoms: C_23  and  C_24
REMARK    9  A    between atoms: C_28  and  C_33
REMARK   10  A    between atoms: C_28  and  N_36
REMARK   11  A    between atoms: C_31  and  C_33
REMARK   12  A    between atoms: C_31  and  O_41
REMARK   13  A    between atoms: C_35  and  C_37
REMARK   14  A    between atoms: C_35  and  C_40
REMARK   15  A    between atoms: C_40  and  N_42
REMARK   16  A    between atoms: O_41  and  N_42
REMARK                            x       y       z     vdW  Elec       q    Type
REMARK                         _______ _______ _______ _____ _____    ______ ____
ROOT
ATOM      1  C   UNL A   1     -22.247   1.110  27.773  0.00  0.00    +0.280 C 
ATOM      2  F   UNL A   1     -20.724   1.019  28.062  0.00  0.00    -0.223 F 
ENDROOT
BRANCH   1   3
ATOM      3  C   UNL A   1     -22.922   0.216  28.873  0.00  0.00    +0.370 C 
ATOM      4  O   UNL A   1     -22.460  -0.114  29.928  0.00  0.00    -0.245 OA
BRANCH   3   5
ATOM      5  O   UNL A   1     -23.990  -0.290  28.200  0.00  0.00    -0.362 OA
BRANCH   5   6
ATOM      6  N   UNL A   1     -25.130  -0.076  29.101  0.00  0.00    -0.113 NA
BRANCH   6   7
ATOM      7  C   UNL A   1     -24.855  -1.012  30.143  0.00  0.00    +0.134 C 
BRANCH   7   8
ATOM      8  C   UNL A   1     -24.973  -2.505  29.788  0.00  0.00    -0.003 C 
ATOM      9  C   UNL A   1     -23.906  -3.173  29.146  0.00  0.00    -0.003 C 
ATOM     10  C   UNL A   1     -23.989  -4.549  28.853  0.00  0.00    -0.000 C 
ATOM     11  C   UNL A   1     -25.137  -5.280  29.205  0.00  0.00    -0.000 C 
ATOM     12  C   UNL A   1     -26.232  -4.611  29.784  0.00  0.00    -0.000 C 
ATOM     13  C   UNL A   1     -26.155  -3.232  30.065  0.00  0.00    -0.003 C 
ENDBRANCH   7   8
BRANCH   7  14
ATOM     14  C   UNL A   1     -25.387  -0.679  31.571  0.00  0.00    +0.095 C 
ATOM     15  C   UNL A   1     -25.189   0.773  32.028  0.00  0.00    +0.021 C 
ATOM     16  C   UNL A   1     -25.336   0.684  33.544  0.00  0.00    +0.020 C 
ATOM     17  C   UNL A   1     -24.829  -0.715  33.905  0.00  0.00    +0.089 C 
ATOM     18  N   UNL A   1     -24.758  -1.481  32.646  0.00  0.00    -0.218 NA
ENDBRANCH   7  14
ENDBRANCH   6   7
BRANCH   6  19
ATOM     19  C   UNL A   1     -26.301   0.731  28.991  0.00  0.00    +0.117 C 
BRANCH  19  20
ATOM     20  C   UNL A   1     -27.558   0.039  28.616  0.00  0.00    +0.056 C 
BRANCH  20  22
ATOM     21  O   UNL A   1     -28.287   2.435  29.296  0.00  0.00    -0.220 OA
ATOM     22  C   UNL A   1     -28.412   1.385  28.326  0.00  0.00    +0.184 C 
ENDBRANCH  20  22
ENDBRANCH  19  20
ENDBRANCH   6  19
ENDBRANCH   5   6
ENDBRANCH   3   5
ENDBRANCH   1   3
BRANCH   1  23
ATOM     23  C   UNL A   1     -23.341   2.103  27.289  0.00  0.00    +0.144 C 
BRANCH  23  26
ATOM     24  C   UNL A   1     -23.403   1.692  25.436  0.00  0.00    +0.448 C 
ATOM     25  O   UNL A   1     -22.387   2.474  25.266  0.00  0.00    -0.222 OA
ATOM     26  N   UNL A   1     -24.287   1.433  26.392  0.00  0.00    -0.234 N 
ATOM     27  O   UNL A   1     -23.560   1.025  24.334  0.00  0.00    -0.222 OA
BRANCH  26  28
ATOM     28  C   UNL A   1     -25.688   1.614  26.461  0.00  0.00    +0.149 C 
ATOM     29  C   UNL A   1     -26.250   2.920  26.395  0.00  0.00    +0.073 C 
ATOM     30  C   UNL A   1     -27.438   3.091  25.645  0.00  0.00    +0.104 C 
ATOM     31  N   UNL A   1     -28.075   2.089  25.003  0.00  0.00    -0.212 NA
ATOM     32  C   UNL A   1     -27.543   0.849  25.079  0.00  0.00    +0.236 C 
ATOM     33  C   UNL A   1     -26.354   0.576  25.777  0.00  0.00    +0.258 C 
ATOM     34  F   UNL A   1     -25.860  -0.681  25.795  0.00  0.00    -0.225 F 
BRANCH  29  35
ATOM     35  C   UNL A   1     -25.642   4.093  27.123  0.00  0.00    +0.264 C 
ATOM     36  N   UNL A   1     -25.614   5.252  26.449  0.00  0.00    -0.200 NA
ATOM     37  C   UNL A   1     -25.026   6.479  26.963  0.00  0.00    +0.139 C 
ATOM     38  O   UNL A   1     -25.143   3.966  28.243  0.00  0.00    -0.269 OA
ENDBRANCH  29  35
BRANCH  32  39
ATOM     39  O   UNL A   1     -28.193  -0.208  24.477  0.00  0.00    -0.459 OA
BRANCH  39  40
ATOM     40  C   UNL A   1     -29.460   0.005  23.866  0.00  0.00    +0.242 C 
BRANCH  40  41
ATOM     41  C   UNL A   1     -30.065  -1.377  23.573  0.00  0.00    +0.229 C 
ATOM     42  O   UNL A   1     -30.729  -1.878  24.721  0.00  0.00    -0.216 OA
ENDBRANCH  40  41
ENDBRANCH  39  40
ENDBRANCH  32  39
ENDBRANCH  26  28
ENDBRANCH  23  26
ENDBRANCH   1  23
TORSDOF 16
