MODEL 3297
MODEL 1
REMARK VINA RESULT:    -6.813      0.000      0.000
REMARK INTER + INTRA:          -7.484
REMARK INTER:                  -7.212
REMARK INTRA:                  -0.272
REMARK UNBOUND:                -0.272
REMARK  Name = No_3297-gen_results/8p0m/2024-11-27-11-27-31/
REMARK  1 active torsions:
REMARK  status: ('A' for Active; 'I' for Inactive)
REMARK    1  A    between atoms: C_2  and  C_8
REMARK                            x       y       z     vdW  Elec       q    Type
REMARK                         _______ _______ _______ _____ _____    ______ ____
ROOT
ATOM      1  C   UNL A   1     -25.748  -1.299  29.780  0.00  0.00    +0.001 A 
ATOM      2  C   UNL A   1     -24.776  -1.650  29.152  0.00  0.00    +0.001 A 
ATOM      3  C   UNL A   1     -24.453  -2.962  28.850  0.00  0.00    +0.012 A 
ATOM      4  C   UNL A   1     -25.357  -3.971  29.293  0.00  0.00    +0.068 A 
ATOM      5  C   UNL A   1     -26.502  -3.536  29.858  0.00  0.00    +0.068 A 
ATOM      6  C   UNL A   1     -26.755  -2.236  30.024  0.00  0.00    +0.012 A 
ATOM      7 CL   UNL A   1     -27.600  -4.749  30.317  0.00  0.00    -0.081 Cl
ATOM      8 CL   UNL A   1     -24.948  -5.587  28.889  0.00  0.00    -0.081 Cl
ENDROOT
BRANCH   2   9
ATOM      9  C   UNL A   1     -23.636  -0.623  28.755  0.00  0.00    +0.001 A 
ATOM     10  C   UNL A   1     -23.797   0.271  27.800  0.00  0.00    +0.011 A 
ATOM     11  C   UNL A   1     -22.750   1.164  27.421  0.00  0.00    +0.058 A 
ATOM     12  C   UNL A   1     -21.512   0.944  27.873  0.00  0.00    +0.011 A 
ATOM     13  C   UNL A   1     -21.252  -0.011  28.872  0.00  0.00    +0.001 A 
ATOM     14  C   UNL A   1     -22.321  -0.837  29.269  0.00  0.00    +0.000 A 
ATOM     15 CL   UNL A   1     -23.038   2.389  26.290  0.00  0.00    -0.082 Cl
ENDBRANCH   2   9
TORSDOF 1
ENDMDL
ENDMDL
