REMARK  Name = outputs/IAG933/test6/raw/output_3297_IAG933_linker_design_.xyz
REMARK  7 active torsions:
REMARK  status: ('A' for Active; 'I' for Inactive)
REMARK    1  A    between atoms: C_1  and  C_2
REMARK    2  A    between atoms: C_13  and  C_41
REMARK    3  A    between atoms: C_14  and  C_15
REMARK    4  A    between atoms: C_21  and  O_22
REMARK    5  A    between atoms: O_22  and  C_23
REMARK    6  A    between atoms: C_23  and  C_24
REMARK    7  A    between atoms: C_39  and  C_40
REMARK                            x       y       z     vdW  Elec       q    Type
REMARK                         _______ _______ _______ _____ _____    ______ ____
ROOT
ATOM      1  C   UNK A   1     -23.066   2.112  26.259  0.00  0.00    -0.026 C 
ATOM      2  C   UNK A   1     -21.806   1.946  26.890  0.00  0.00    -0.005 C 
ATOM      3  C   UNK A   1     -21.730   1.285  28.193  0.00  0.00    -0.001 C 
ATOM      4  C   UNK A   1     -22.909   0.717  28.783  0.00  0.00    -0.004 C 
ATOM      5  C   UNK A   1     -23.016   2.999  25.070  0.00  0.00    +0.031 C 
ATOM      6  C   UNK A   1     -24.130   0.812  28.135  0.00  0.00    -0.016 C 
ATOM      7  C   UNK A   1     -24.261   1.513  26.870  0.00  0.00    -0.022 C 
ENDROOT
BRANCH   6  20
ATOM      8  C   UNK A   1     -24.855  -1.012  30.143  0.00  0.00    +0.054 C 
ATOM      9  C   UNK     1     -25.387  -0.679  31.571  0.00  0.00    +0.096 C 
ATOM     10  C   UNK     1     -25.189   0.773  32.028  0.00  0.00    +0.094 C 
ATOM     11  C   UNK     1     -25.336   0.684  33.544  0.00  0.00    +0.040 C 
ATOM     12  C   UNK     1     -24.829  -0.715  33.905  0.00  0.00    +0.090 C 
ATOM     13  N   UNK     1     -24.758  -1.481  32.646  0.00  0.00    -0.217 NA
ATOM     14  C   UNK A   1     -27.126   2.428  30.744  0.00  0.00    +0.183 C 
ATOM     15  C   UNK A   1     -28.882   1.196  29.247  0.00  0.00    +0.093 C 
ATOM     16  S   UNK A   1     -27.197   0.083  29.114  0.00  0.00    -0.134 S 
ATOM     17  C   UNK A   1     -25.952   2.796  31.361  0.00  0.00    +0.247 C 
ATOM     18  C   UNK A   1     -28.555   2.623  30.326  0.00  0.00    +0.190 C 
ATOM     19  O   UNK A   1     -25.198   3.695  31.613  0.00  0.00    -0.273 OA
ATOM     20  C   UNK A   1     -25.447  -0.087  29.019  0.00  0.00    +0.075 C 
ATOM     21  N   UNK A   1     -26.033   1.674  31.288  0.00  0.00    -0.270 N 
ATOM     22  O   UNK A   1     -29.191   3.720  30.598  0.00  0.00    -0.220 OA
BRANCH   8  23
ATOM     23  C   UNK A   1     -24.973  -2.505  29.788  0.00  0.00    -0.020 C 
ATOM     24  C   UNK A   1     -23.906  -3.173  29.146  0.00  0.00    -0.004 C 
ATOM     25  C   UNK A   1     -23.989  -4.549  28.853  0.00  0.00    -0.000 C 
ATOM     26  C   UNK A   1     -25.137  -5.280  29.205  0.00  0.00    -0.000 C 
ATOM     27  C   UNK A   1     -26.232  -4.611  29.784  0.00  0.00    -0.000 C 
ATOM     28  C   UNK A   1     -26.155  -3.232  30.065  0.00  0.00    -0.004 C 
ENDBRANCH   8  23
ENDBRANCH   6  20
BRANCH   7  29
ATOM     29  C   UNK A   1     -25.688   1.614  26.461  0.00  0.00    +0.092 C 
ATOM     30  C   UNK A   1     -26.250   2.920  26.395  0.00  0.00    +0.059 C 
ATOM     31  C   UNK A   1     -27.438   3.091  25.645  0.00  0.00    +0.102 C 
ATOM     32  N   UNK A   1     -28.075   2.089  25.003  0.00  0.00    -0.212 NA
ATOM     33  C   UNK A   1     -27.543   0.849  25.079  0.00  0.00    +0.234 C 
ATOM     34  C   UNK A   1     -26.354   0.576  25.777  0.00  0.00    +0.244 C 
ATOM     35  F   UNK A   1     -25.860  -0.681  25.795  0.00  0.00    -0.227 F 
BRANCH  30  36
ATOM     36  C   UNK A   1     -25.642   4.093  27.123  0.00  0.00    +0.263 C 
ATOM     37  N   UNK A   1     -25.614   5.252  26.449  0.00  0.00    -0.200 NA
ATOM     38  C   UNK A   1     -25.026   6.479  26.963  0.00  0.00    +0.139 C 
ATOM     39  O   UNK A   1     -25.143   3.966  28.243  0.00  0.00    -0.269 OA
ENDBRANCH  30  36
BRANCH  33  40
ATOM     40  O   UNK A   1     -28.193  -0.208  24.477  0.00  0.00    -0.459 OA
BRANCH  40  41
ATOM     41  C   UNK A   1     -29.460   0.005  23.866  0.00  0.00    +0.242 C 
BRANCH  41  42
ATOM     42  C   UNK A   1     -30.065  -1.377  23.573  0.00  0.00    +0.229 C 
ATOM     43  O   UNK A   1     -30.729  -1.878  24.721  0.00  0.00    -0.216 OA
ENDBRANCH  41  42
ENDBRANCH  40  41
ENDBRANCH  33  40
ENDBRANCH   7  29
TORSDOF 7
