MODEL 3298
MODEL 1
REMARK VINA RESULT:    -5.395      0.000      0.000
REMARK INTER + INTRA:          -6.288
REMARK INTER:                  -6.026
REMARK INTRA:                  -0.262
REMARK UNBOUND:                -0.262
REMARK  Name = No_3298-gen_results/8p0m/2024-11-27-11-27-31/
REMARK  2 active torsions:
REMARK  status: ('A' for Active; 'I' for Inactive)
REMARK    1  A    between atoms: C_2  and  C_7
REMARK    2  A    between atoms: C_7  and  C_8
REMARK                            x       y       z     vdW  Elec       q    Type
REMARK                         _______ _______ _______ _____ _____    ______ ____
ROOT
ATOM      1  C   UNL A   1     -25.873  -3.106  29.857  0.00  0.00    -0.004 A 
ATOM      2  C   UNL A   1     -24.829  -2.677  29.423  0.00  0.00    -0.018 A 
ATOM      3  C   UNL A   1     -23.891  -3.442  28.809  0.00  0.00    -0.004 A 
ATOM      4  C   UNL A   1     -24.142  -4.819  28.664  0.00  0.00    -0.000 A 
ATOM      5  C   UNL A   1     -26.238  -4.486  29.658  0.00  0.00    -0.000 A 
ATOM      6  C   UNL A   1     -25.317  -5.303  29.073  0.00  0.00    -0.000 A 
ENDROOT
BRANCH   2   7
ATOM      7  C   UNL A   1     -24.452  -1.204  29.501  0.00  0.00    +0.052 C 
BRANCH   7   8
ATOM      8  C   UNL A   1     -23.205  -0.842  28.731  0.00  0.00    -0.026 C 
ATOM      9  C   UNL A   1     -22.214  -0.272  29.331  0.00  0.00    -0.030 C 
ATOM     10  C   UNL A   1     -21.055   0.011  28.603  0.00  0.00    +0.030 C 
ENDBRANCH   7   8
ENDBRANCH   2   7
TORSDOF 2
ENDMDL
ENDMDL
