MODEL 3299
MODEL 1
REMARK VINA RESULT:    -7.230      0.000      0.000
REMARK INTER + INTRA:         -10.254
REMARK INTER:                  -9.343
REMARK INTRA:                  -0.910
REMARK UNBOUND:                -0.910
REMARK  Name = No_3299-gen_results/8p0m/2024-11-27-11-27-31/
REMARK  5 active torsions:
REMARK  status: ('A' for Active; 'I' for Inactive)
REMARK    1  A    between atoms: C_2  and  C_3
REMARK    2  A    between atoms: C_3  and  C_5
REMARK    3  A    between atoms: C_3  and  C_17
REMARK    4  A    between atoms: N_4  and  C_11
REMARK    5  A    between atoms: N_18  and  C_19
REMARK                            x       y       z     vdW  Elec       q    Type
REMARK                         _______ _______ _______ _____ _____    ______ ____
ROOT
ATOM      1  C   UNL A   1     -23.700   0.206  28.429  0.00  0.00    +0.179 C 
ENDROOT
BRANCH   1   2
ATOM      2  C   UNL A   1     -24.761   0.154  27.622  0.00  0.00    -0.005 A 
ATOM      3  C   UNL A   1     -26.140   0.018  28.077  0.00  0.00    -0.003 A 
ATOM      4  C   UNL A   1     -27.179   0.287  27.089  0.00  0.00    -0.000 A 
ATOM      5  C   UNL A   1     -26.803   0.221  25.698  0.00  0.00    -0.000 A 
ATOM      6  C   UNL A   1     -25.503   0.179  25.299  0.00  0.00    -0.000 A 
ATOM      7  C   UNL A   1     -24.488   0.153  26.214  0.00  0.00    -0.003 A 
ENDBRANCH   1   2
BRANCH   1   9
ATOM      8  O   UNL A   1     -22.551   2.076  28.152  0.00  0.00    -0.272 OA
ATOM      9  C   UNL A   1     -23.248   1.449  28.823  0.00  0.00    +0.258 C 
ATOM     10  N   UNL A   1     -23.842   1.952  30.075  0.00  0.00    -0.178 NA
BRANCH  10  11
ATOM     11  C   UNL A   1     -24.499   1.190  31.013  0.00  0.00    +0.073 A 
ATOM     12  C   UNL A   1     -25.762   1.364  31.075  0.00  0.00    +0.017 A 
ATOM     13  C   UNL A   1     -23.726   0.385  31.830  0.00  0.00    +0.017 A 
ATOM     14  C   UNL A   1     -26.536   0.574  32.073  0.00  0.00    +0.001 A 
ATOM     15  C   UNL A   1     -24.488  -0.346  32.878  0.00  0.00    +0.001 A 
ATOM     16  C   UNL A   1     -25.862  -0.222  32.994  0.00  0.00    +0.000 A 
ENDBRANCH  10  11
ENDBRANCH   1   9
BRANCH   1  17
ATOM     17  C   UNL A   1     -22.964  -0.973  28.809  0.00  0.00    +0.258 C 
ATOM     18  N   UNL A   1     -23.195  -2.097  29.041  0.00  0.00    -0.175 NA
ATOM     19  O   UNL A   1     -21.564  -0.655  28.903  0.00  0.00    -0.272 OA
BRANCH  18  20
ATOM     20  C   UNL A   1     -24.348  -2.596  29.072  0.00  0.00    +0.112 A 
ATOM     21  C   UNL A   1     -25.172  -2.379  30.310  0.00  0.00    +0.020 A 
ATOM     22  C   UNL A   1     -26.428  -2.976  30.329  0.00  0.00    +0.002 A 
ATOM     23  C   UNL A   1     -26.694  -4.159  29.744  0.00  0.00    +0.003 A 
ATOM     24  C   UNL A   1     -25.648  -4.772  28.981  0.00  0.00    +0.043 A 
ATOM     25  C   UNL A   1     -24.552  -3.816  28.511  0.00  0.00    +0.211 A 
ATOM     26  O   UNL A   1     -23.551  -4.622  29.013  0.00  0.00    -0.285 OA
ENDBRANCH  18  20
ENDBRANCH   1  17
TORSDOF 5
ENDMDL
ENDMDL
