MODEL 329
MODEL 1
REMARK VINA RESULT:    -4.867      0.000      0.000
REMARK INTER + INTRA:          -5.601
REMARK INTER:                  -5.436
REMARK INTRA:                  -0.165
REMARK UNBOUND:                -0.165
REMARK  Name = No_329-gen_results/8p0m/2024-11-27-11-27-31/
REMARK  2 active torsions:
REMARK  status: ('A' for Active; 'I' for Inactive)
REMARK    1  A    between atoms: C_3  and  C_4
REMARK    2  A    between atoms: C_4  and  C_8
REMARK                            x       y       z     vdW  Elec       q    Type
REMARK                         _______ _______ _______ _____ _____    ______ ____
ROOT
ATOM      1  C   UNL A   1     -25.861  -2.614  29.653  0.00  0.00    -0.004 A 
ATOM      2  C   UNL A   1     -26.365  -3.520  29.839  0.00  0.00    -0.000 A 
ATOM      3  C   UNL A   1     -24.581  -2.681  29.059  0.00  0.00    -0.018 A 
ATOM      4  C   UNL A   1     -25.969  -4.919  29.600  0.00  0.00    -0.000 A 
ATOM      5  C   UNL A   1     -24.711  -5.064  29.016  0.00  0.00    -0.000 A 
ATOM      6  C   UNL A   1     -24.002  -3.953  28.687  0.00  0.00    -0.004 A 
ENDROOT
BRANCH   3   7
ATOM      7  C   UNL A   1     -23.786  -1.500  28.633  0.00  0.00    +0.052 C 
BRANCH   7   8
ATOM      8  C   UNL A   1     -22.706  -1.095  29.475  0.00  0.00    -0.021 C 
ATOM      9  C   UNL A   1     -21.742  -0.226  29.067  0.00  0.00    -0.005 C 
ENDBRANCH   7   8
ENDBRANCH   3   7
TORSDOF 2
ENDMDL
ENDMDL
