REMARK  Name = outputs/IAG933/test6/raw/output_33_IAG933_linker_design_.xyz
REMARK  15 active torsions:
REMARK  status: ('A' for Active; 'I' for Inactive)
REMARK    1  A    between atoms: C_1  and  C_2
REMARK    2  A    between atoms: C_1  and  C_8
REMARK    3  A    between atoms: C_9  and  N_33
REMARK    4  A    between atoms: C_13  and  C_29
REMARK    5  A    between atoms: C_14  and  C_15
REMARK    6  A    between atoms: C_21  and  O_22
REMARK    7  A    between atoms: O_22  and  C_23
REMARK    8  A    between atoms: C_23  and  C_24
REMARK    9  A    between atoms: C_31  and  C_35
REMARK   10  A    between atoms: C_31  and  C_39
REMARK   11  A    between atoms: N_33  and  C_34
REMARK   12  A    between atoms: N_33  and  N_38
REMARK   13  A    between atoms: C_34  and  C_39
REMARK   14  A    between atoms: N_38  and  C_41
REMARK   15  A    between atoms: C_40  and  C_41
REMARK                            x       y       z     vdW  Elec       q    Type
REMARK                         _______ _______ _______ _____ _____    ______ ____
ROOT
ATOM      1  C   UNL A   1     -22.729   0.982  28.833  0.00  0.00    -0.003 C 
ATOM      2  C   UNL A   1     -24.240   1.746  27.104  0.00  0.00    +0.039 C 
ATOM      3  C   UNL A   1     -21.812   1.723  26.751  0.00  0.00    +0.042 C 
ATOM      4  O   UNL A   1     -23.185   3.324  25.590  0.00  0.00    -0.287 OA
ATOM      5  C   UNL A   1     -21.646   1.037  27.974  0.00  0.00    +0.003 C 
ATOM      6  C   UNL A   1     -23.910   1.605  28.473  0.00  0.00    -0.000 C 
ATOM      7  C   UNL A   1     -23.096   2.195  26.424  0.00  0.00    +0.196 C 
ENDROOT
BRANCH   2   8
ATOM      8  C   UNL A   1     -25.688   1.614  26.461  0.00  0.00    +0.041 C 
ATOM      9  C   UNL A   1     -26.250   2.920  26.395  0.00  0.00    +0.077 C 
ATOM     10  C   UNL A   1     -27.438   3.091  25.645  0.00  0.00    +0.107 C 
ATOM     11  N   UNL A   1     -28.075   2.089  25.003  0.00  0.00    -0.208 NA
ATOM     12  C   UNL A   1     -27.543   0.849  25.079  0.00  0.00    +0.253 C 
ATOM     13  C   UNL A   1     -26.354   0.576  25.777  0.00  0.00    +0.193 C 
ATOM     14  F   UNL A   1     -25.860  -0.681  25.795  0.00  0.00    -0.199 F 
BRANCH   9  15
ATOM     15  C   UNL A   1     -25.642   4.093  27.123  0.00  0.00    +0.266 C 
ATOM     16  N   UNL A   1     -25.614   5.252  26.449  0.00  0.00    -0.200 NA
ATOM     17  C   UNL A   1     -25.026   6.479  26.963  0.00  0.00    +0.139 C 
ATOM     18  O   UNL A   1     -25.143   3.966  28.243  0.00  0.00    -0.268 OA
ENDBRANCH   9  15
BRANCH  12  19
ATOM     19  O   UNL A   1     -28.193  -0.208  24.477  0.00  0.00    -0.456 OA
BRANCH  19  20
ATOM     20  C   UNL A   1     -29.460   0.005  23.866  0.00  0.00    +0.243 C 
BRANCH  20  21
ATOM     21  C   UNL A   1     -30.065  -1.377  23.573  0.00  0.00    +0.229 C 
ATOM     22  O   UNL A   1     -30.729  -1.878  24.721  0.00  0.00    -0.216 OA
ENDBRANCH  20  21
ENDBRANCH  19  20
ENDBRANCH  12  19
ENDBRANCH   2   8
BRANCH   6  23
ATOM     23  C   UNL A   1     -24.562   2.192  29.578  0.00  0.00    +0.134 C 
BRANCH  23  24
ATOM     24  N   UNL A   1     -25.922   1.738  29.811  0.00  0.00    -0.142 NA
BRANCH  24  25
ATOM     25  N   UNL A   1     -25.784   1.929  31.290  0.00  0.00    -0.203 NA
BRANCH  25  27
ATOM     26  C   UNL A   1     -25.387  -0.679  31.571  0.00  0.00    +0.093 C 
ATOM     27  C   UNL A   1     -25.189   0.773  32.028  0.00  0.00    +0.092 C 
ATOM     28  C   UNL A   1     -25.336   0.684  33.544  0.00  0.00    +0.038 C 
ATOM     29  C   UNL A   1     -24.829  -0.715  33.905  0.00  0.00    +0.090 C 
ATOM     30  N   UNL A   1     -24.758  -1.481  32.646  0.00  0.00    -0.218 NA
BRANCH  26  31
ATOM     31  C   UNL A   1     -24.855  -1.012  30.143  0.00  0.00    +0.045 C 
BRANCH  31  32
ATOM     32  C   UNL A   1     -24.973  -2.505  29.788  0.00  0.00    -0.021 C 
ATOM     33  C   UNL A   1     -23.906  -3.173  29.146  0.00  0.00    -0.004 C 
ATOM     34  C   UNL A   1     -23.989  -4.549  28.853  0.00  0.00    -0.000 C 
ATOM     35  C   UNL A   1     -25.137  -5.280  29.205  0.00  0.00    -0.000 C 
ATOM     36  C   UNL A   1     -26.232  -4.611  29.784  0.00  0.00    -0.000 C 
ATOM     37  C   UNL A   1     -26.155  -3.232  30.065  0.00  0.00    -0.004 C 
ENDBRANCH  31  32
ENDBRANCH  26  31
ENDBRANCH  25  27
BRANCH  25  38
ATOM     38  C   UNL A   1     -26.260   3.113  32.045  0.00  0.00    +0.090 C 
BRANCH  38  39
ATOM     39  C   UNL A   1     -27.779   2.906  32.331  0.00  0.00    +0.027 C 
BRANCH  39  40
ATOM     40  C   UNL A   1     -28.566   2.799  30.987  0.00  0.00    +0.074 C 
BRANCH  40  42
ATOM     41  O   UNL A   1     -28.706   0.383  31.156  0.00  0.00    -0.288 OA
ATOM     42  C   UNL A   1     -28.647   1.378  30.387  0.00  0.00    +0.207 C 
ENDBRANCH  40  42
ENDBRANCH  39  40
ENDBRANCH  38  39
ENDBRANCH  25  38
ENDBRANCH  24  25
ENDBRANCH  23  24
ENDBRANCH   6  23
TORSDOF 15
