REMARK  Name = outputs/IAG933/test6/raw/output_330_IAG933_linker_design_.xyz
REMARK  11 active torsions:
REMARK  status: ('A' for Active; 'I' for Inactive)
REMARK    1  A    between atoms: C_1  and  C_2
REMARK    2  A    between atoms: C_1  and  C_8
REMARK    3  A    between atoms: C_1  and  C_37
REMARK    4  A    between atoms: C_13  and  C_31
REMARK    5  A    between atoms: C_14  and  C_15
REMARK    6  A    between atoms: C_21  and  O_22
REMARK    7  A    between atoms: O_22  and  C_23
REMARK    8  A    between atoms: C_23  and  C_24
REMARK    9  A    between atoms: N_29  and  C_31
REMARK   10  A    between atoms: C_31  and  C_32
REMARK   11  A    between atoms: C_38  and  C_39
REMARK                            x       y       z     vdW  Elec       q    Type
REMARK                         _______ _______ _______ _____ _____    ______ ____
ROOT
ATOM      1  C   UNL A   1     -24.656   1.296  27.445  0.00  0.00    +0.160 C 
ENDROOT
BRANCH   1   2
ATOM      2  C   UNL A   1     -25.688   1.614  26.461  0.00  0.00    +0.041 C 
ATOM      3  C   UNL A   1     -26.250   2.920  26.395  0.00  0.00    +0.074 C 
ATOM      4  C   UNL A   1     -27.438   3.091  25.645  0.00  0.00    +0.106 C 
ATOM      5  N   UNL A   1     -28.075   2.089  25.003  0.00  0.00    -0.208 NA
ATOM      6  C   UNL A   1     -27.543   0.849  25.079  0.00  0.00    +0.253 C 
ATOM      7  C   UNL A   1     -26.354   0.576  25.777  0.00  0.00    +0.191 C 
ATOM      8  F   UNL A   1     -25.860  -0.681  25.795  0.00  0.00    -0.200 F 
BRANCH   3   9
ATOM      9  C   UNL A   1     -25.642   4.093  27.123  0.00  0.00    +0.266 C 
ATOM     10  N   UNL A   1     -25.614   5.252  26.449  0.00  0.00    -0.200 NA
ATOM     11  C   UNL A   1     -25.026   6.479  26.963  0.00  0.00    +0.139 C 
ATOM     12  O   UNL A   1     -25.143   3.966  28.243  0.00  0.00    -0.268 OA
ENDBRANCH   3   9
BRANCH   6  13
ATOM     13  O   UNL A   1     -28.193  -0.208  24.477  0.00  0.00    -0.456 OA
BRANCH  13  14
ATOM     14  C   UNL A   1     -29.460   0.005  23.866  0.00  0.00    +0.243 C 
BRANCH  14  15
ATOM     15  C   UNL A   1     -30.065  -1.377  23.573  0.00  0.00    +0.229 C 
ATOM     16  O   UNL A   1     -30.729  -1.878  24.721  0.00  0.00    -0.216 OA
ENDBRANCH  14  15
ENDBRANCH  13  14
ENDBRANCH   6  13
ENDBRANCH   1   2
BRANCH   1  18
ATOM     17  C   UNL A   1     -21.075   1.333  27.465  0.00  0.00    +0.008 C 
ATOM     18  C   UNL A   1     -23.444   1.135  27.716  0.00  0.00    +0.088 C 
ATOM     19  C   UNL A   1     -22.018   0.220  29.377  0.00  0.00    +0.099 C 
ATOM     20  N   UNL A   1     -23.236   0.598  28.948  0.00  0.00    -0.246 NA
ATOM     21  C   UNL A   1     -22.342   1.536  26.934  0.00  0.00    +0.083 C 
ATOM     22  C   UNL A   1     -20.891   0.621  28.652  0.00  0.00    +0.021 C 
BRANCH  21  25
ATOM     23  F   UNL A   1     -21.499   1.813  24.745  0.00  0.00    -0.159 F 
ATOM     24  O   UNL A   1     -23.523   2.692  25.262  0.00  0.00    -0.254 OA
ATOM     25  C   UNL A   1     -22.477   2.093  25.594  0.00  0.00    +0.335 C 
ENDBRANCH  21  25
ENDBRANCH   1  18
BRANCH   1  26
ATOM     26  N   UNL A   1     -25.514   0.982  28.599  0.00  0.00    -0.196 NA
ATOM     27  O   UNL A   1     -27.050  -0.377  29.298  0.00  0.00    -0.273 OA
ATOM     28  C   UNL A   1     -25.870  -0.127  29.252  0.00  0.00    +0.247 C 
BRANCH  28  29
ATOM     29  C   UNL A   1     -24.855  -1.012  30.143  0.00  0.00    +0.116 C 
BRANCH  29  30
ATOM     30  C   UNL A   1     -24.973  -2.505  29.788  0.00  0.00    -0.013 C 
ATOM     31  C   UNL A   1     -23.906  -3.173  29.146  0.00  0.00    -0.004 C 
ATOM     32  C   UNL A   1     -23.989  -4.549  28.853  0.00  0.00    -0.000 C 
ATOM     33  C   UNL A   1     -25.137  -5.280  29.205  0.00  0.00    -0.000 C 
ATOM     34  C   UNL A   1     -26.232  -4.611  29.784  0.00  0.00    -0.000 C 
ATOM     35  C   UNL A   1     -26.155  -3.232  30.065  0.00  0.00    -0.004 C 
ENDBRANCH  29  30
BRANCH  29  36
ATOM     36  C   UNL A   1     -25.387  -0.679  31.571  0.00  0.00    +0.086 C 
ATOM     37  C   UNL A   1     -25.189   0.773  32.028  0.00  0.00    +0.020 C 
ATOM     38  C   UNL A   1     -25.336   0.684  33.544  0.00  0.00    +0.020 C 
ATOM     39  C   UNL A   1     -24.829  -0.715  33.905  0.00  0.00    +0.089 C 
ATOM     40  N   UNL A   1     -24.758  -1.481  32.646  0.00  0.00    -0.219 NA
ENDBRANCH  29  36
ENDBRANCH  28  29
ENDBRANCH   1  26
TORSDOF 11
