MODEL 3300
MODEL 1
REMARK VINA RESULT:    -5.409      0.000      0.000
REMARK INTER + INTRA:          -5.826
REMARK INTER:                  -5.725
REMARK INTRA:                  -0.101
REMARK UNBOUND:                -0.101
REMARK  Name = No_3300-gen_results/8p0m/2024-11-27-11-27-31/
REMARK  1 active torsions:
REMARK  status: ('A' for Active; 'I' for Inactive)
REMARK    1  A    between atoms: C_2  and  C_3
REMARK                            x       y       z     vdW  Elec       q    Type
REMARK                         _______ _______ _______ _____ _____    ______ ____
ROOT
ATOM      1  C   UNL A   1     -24.404  -2.790  28.917  0.00  0.00    +0.055 A 
ATOM      2  C   UNL A   1     -24.105  -3.634  28.435  0.00  0.00    +0.005 A 
ATOM      3  C   UNL A   1     -23.964  -4.849  28.429  0.00  0.00    +0.000 A 
ATOM      4  C   UNL A   1     -25.087  -5.637  29.084  0.00  0.00    +0.000 A 
ATOM      5  C   UNL A   1     -26.062  -4.752  29.621  0.00  0.00    +0.000 A 
ATOM      6  C   UNL A   1     -25.772  -3.386  29.641  0.00  0.00    +0.005 A 
ENDROOT
BRANCH   1   8
ATOM      7  O   UNL A   1     -24.169  -1.281  30.518  0.00  0.00    -0.268 OA
ATOM      8  C   UNL A   1     -23.848  -1.658  29.477  0.00  0.00    +0.265 C 
ATOM      9  N   UNL A   1     -22.525  -1.341  28.930  0.00  0.00    -0.200 NA
ATOM     10  C   UNL A   1     -21.809  -0.229  29.638  0.00  0.00    +0.139 C 
ENDBRANCH   1   8
TORSDOF 1
ENDMDL
ENDMDL
