REMARK  Name = outputs/IAG933/test6/raw/output_3300_IAG933_linker_design_.xyz
REMARK  14 active torsions:
REMARK  status: ('A' for Active; 'I' for Inactive)
REMARK    1  A    between atoms: C_1  and  C_2
REMARK    2  A    between atoms: C_1  and  C_8
REMARK    3  A    between atoms: C_1  and  N_40
REMARK    4  A    between atoms: C_13  and  N_35
REMARK    5  A    between atoms: C_14  and  C_15
REMARK    6  A    between atoms: C_21  and  O_22
REMARK    7  A    between atoms: O_22  and  C_23
REMARK    8  A    between atoms: C_23  and  C_24
REMARK    9  A    between atoms: C_29  and  C_32
REMARK   10  A    between atoms: C_29  and  C_42
REMARK   11  A    between atoms: C_31  and  N_40
REMARK   12  A    between atoms: C_32  and  O_34
REMARK   13  A    between atoms: O_34  and  C_41
REMARK   14  A    between atoms: C_36  and  N_40
REMARK                            x       y       z     vdW  Elec       q    Type
REMARK                         _______ _______ _______ _____ _____    ______ ____
ROOT
ATOM      1  C   UNL A   1     -23.393   1.405  26.486  0.00  0.00    +0.095 C 
ATOM      2  O   UNL A   1     -22.546   0.353  29.712  0.00  0.00    -0.219 OA
ATOM      3  C   UNL A   1     -24.708   0.914  28.682  0.00  0.00    +0.181 C 
ATOM      4  N   UNL A   1     -24.849   1.429  27.311  0.00  0.00    -0.292 N 
ATOM      5  C   UNL A   1     -21.072   1.549  27.583  0.00  0.00    +0.004 C 
ATOM      6  C   UNL A   1     -23.235   0.523  28.587  0.00  0.00    +0.191 C 
ATOM      7  C   UNL A   1     -22.584   1.381  27.596  0.00  0.00    +0.054 C 
ENDROOT
BRANCH   4   8
ATOM      8  C   UNL A   1     -25.688   1.614  26.461  0.00  0.00    +0.070 C 
ATOM      9  C   UNL A   1     -26.250   2.920  26.395  0.00  0.00    +0.070 C 
ATOM     10  C   UNL A   1     -27.438   3.091  25.645  0.00  0.00    +0.160 C 
ATOM     11  N   UNL A   1     -28.075   2.089  25.003  0.00  0.00    -0.234 NA
ATOM     12  C   UNL A   1     -27.543   0.849  25.079  0.00  0.00    +0.235 C 
ATOM     13  C   UNL A   1     -26.354   0.576  25.777  0.00  0.00    +0.271 C 
ATOM     14  F   UNL A   1     -25.860  -0.681  25.795  0.00  0.00    -0.221 F 
BRANCH   9  15
ATOM     15  C   UNL A   1     -25.642   4.093  27.123  0.00  0.00    +0.264 C 
ATOM     16  N   UNL A   1     -25.614   5.252  26.449  0.00  0.00    -0.200 NA
ATOM     17  C   UNL A   1     -25.026   6.479  26.963  0.00  0.00    +0.139 C 
ATOM     18  O   UNL A   1     -25.143   3.966  28.243  0.00  0.00    -0.269 OA
ENDBRANCH   9  15
BRANCH  12  19
ATOM     19  O   UNL A   1     -28.193  -0.208  24.477  0.00  0.00    -0.459 OA
BRANCH  19  20
ATOM     20  C   UNL A   1     -29.460   0.005  23.866  0.00  0.00    +0.242 C 
BRANCH  20  21
ATOM     21  C   UNL A   1     -30.065  -1.377  23.573  0.00  0.00    +0.229 C 
ATOM     22  O   UNL A   1     -30.729  -1.878  24.721  0.00  0.00    -0.216 OA
ENDBRANCH  20  21
ENDBRANCH  19  20
ENDBRANCH  12  19
ENDBRANCH   4   8
BRANCH   3  23
ATOM     23  N   UNL A   1     -25.603  -0.029  29.255  0.00  0.00    -0.287 N 
BRANCH  23  24
ATOM     24  C   UNL A   1     -27.024  -0.002  28.855  0.00  0.00    +0.058 C 
ATOM     25  C   UNL A   1     -28.559  -0.278  29.143  0.00  0.00    -0.008 C 
BRANCH  25  26
ATOM     26  C   UNL A   1     -29.460  -0.353  27.890  0.00  0.00    +0.059 C 
BRANCH  26  27
ATOM     27  C   UNL A   1     -30.209   0.905  27.755  0.00  0.00    +0.149 C 
BRANCH  27  28
ATOM     28  O   UNL A   1     -31.381   1.101  28.507  0.00  0.00    -0.332 OA
BRANCH  28  31
ATOM     29  C   UNL A   1     -32.108   3.454  28.364  0.00  0.00    +0.064 C 
ATOM     30  C   UNL A   1     -33.684   1.577  28.399  0.00  0.00    +0.064 C 
ATOM     31  C   UNL A   1     -32.250   2.018  27.903  0.00  0.00    +0.219 C 
ATOM     32  O   UNL A   1     -32.172   2.002  26.520  0.00  0.00    -0.195 OA
ENDBRANCH  28  31
ENDBRANCH  27  28
ENDBRANCH  26  27
ENDBRANCH  25  26
ENDBRANCH  23  24
BRANCH  23  33
ATOM     33  C   UNL A   1     -24.855  -1.012  30.143  0.00  0.00    +0.113 C 
BRANCH  33  34
ATOM     34  C   UNL A   1     -24.973  -2.505  29.788  0.00  0.00    -0.003 C 
ATOM     35  C   UNL A   1     -23.906  -3.173  29.146  0.00  0.00    -0.003 C 
ATOM     36  C   UNL A   1     -23.989  -4.549  28.853  0.00  0.00    -0.000 C 
ATOM     37  C   UNL A   1     -25.137  -5.280  29.205  0.00  0.00    -0.000 C 
ATOM     38  C   UNL A   1     -26.232  -4.611  29.784  0.00  0.00    -0.000 C 
ATOM     39  C   UNL A   1     -26.155  -3.232  30.065  0.00  0.00    -0.003 C 
ENDBRANCH  33  34
BRANCH  33  40
ATOM     40  C   UNL A   1     -25.387  -0.679  31.571  0.00  0.00    +0.095 C 
ATOM     41  C   UNL A   1     -25.189   0.773  32.028  0.00  0.00    +0.021 C 
ATOM     42  C   UNL A   1     -25.336   0.684  33.544  0.00  0.00    +0.020 C 
ATOM     43  C   UNL A   1     -24.829  -0.715  33.905  0.00  0.00    +0.089 C 
ATOM     44  N   UNL A   1     -24.758  -1.481  32.646  0.00  0.00    -0.217 NA
ENDBRANCH  33  40
ENDBRANCH  23  33
ENDBRANCH   3  23
TORSDOF 14
