REMARK  Name = outputs/IAG933/test6/raw/output_3301_IAG933_linker_design_.xyz
REMARK  11 active torsions:
REMARK  status: ('A' for Active; 'I' for Inactive)
REMARK    1  A    between atoms: C_1  and  C_2
REMARK    2  A    between atoms: C_1  and  C_8
REMARK    3  A    between atoms: C_1  and  N_40
REMARK    4  A    between atoms: C_13  and  C_29
REMARK    5  A    between atoms: C_14  and  C_15
REMARK    6  A    between atoms: C_21  and  O_22
REMARK    7  A    between atoms: O_22  and  C_23
REMARK    8  A    between atoms: C_23  and  C_24
REMARK    9  A    between atoms: C_28  and  O_36
REMARK   10  A    between atoms: C_30  and  O_36
REMARK   11  A    between atoms: C_32  and  O_34
REMARK                            x       y       z     vdW  Elec       q    Type
REMARK                         _______ _______ _______ _____ _____    ______ ____
ROOT
ATOM      1  C   UNL A   1     -21.935   1.166  27.253  0.00  0.00    +0.300 C 
ATOM      2  C   UNL A   1     -24.550   1.138  27.319  0.00  0.00    +0.065 A 
ATOM      3  O   UNL A   1     -21.174   0.455  28.285  0.00  0.00    -0.419 OA
ATOM      4  C   UNL A   1     -25.182   0.210  28.169  0.00  0.00    +0.251 A 
ATOM      5  C   UNL A   1     -22.033  -0.071  29.225  0.00  0.00    +0.200 C 
ATOM      6  C   UNL A   1     -23.324   0.285  28.872  0.00  0.00    +0.107 A 
ATOM      7  C   UNL A   1     -23.326   0.994  27.659  0.00  0.00    +0.096 A 
ATOM      8  N   UNL A   1     -24.549  -0.104  29.049  0.00  0.00    -0.290 N 
ENDROOT
BRANCH   2   9
ATOM      9  C   UNL A   1     -25.688   1.614  26.461  0.00  0.00    +0.043 C 
ATOM     10  C   UNL A   1     -26.250   2.920  26.395  0.00  0.00    +0.077 C 
ATOM     11  C   UNL A   1     -27.438   3.091  25.645  0.00  0.00    +0.107 C 
ATOM     12  N   UNL A   1     -28.075   2.089  25.003  0.00  0.00    -0.208 NA
ATOM     13  C   UNL A   1     -27.543   0.849  25.079  0.00  0.00    +0.253 C 
ATOM     14  C   UNL A   1     -26.354   0.576  25.777  0.00  0.00    +0.193 C 
ATOM     15  F   UNL A   1     -25.860  -0.681  25.795  0.00  0.00    -0.199 F 
BRANCH  10  16
ATOM     16  C   UNL A   1     -25.642   4.093  27.123  0.00  0.00    +0.266 C 
ATOM     17  N   UNL A   1     -25.614   5.252  26.449  0.00  0.00    -0.200 NA
ATOM     18  C   UNL A   1     -25.026   6.479  26.963  0.00  0.00    +0.139 C 
ATOM     19  O   UNL A   1     -25.143   3.966  28.243  0.00  0.00    -0.268 OA
ENDBRANCH  10  16
BRANCH  13  20
ATOM     20  O   UNL A   1     -28.193  -0.208  24.477  0.00  0.00    -0.456 OA
BRANCH  20  21
ATOM     21  C   UNL A   1     -29.460   0.005  23.866  0.00  0.00    +0.243 C 
BRANCH  21  22
ATOM     22  C   UNL A   1     -30.065  -1.377  23.573  0.00  0.00    +0.229 C 
ATOM     23  O   UNL A   1     -30.729  -1.878  24.721  0.00  0.00    -0.216 OA
ENDBRANCH  21  22
ENDBRANCH  20  21
ENDBRANCH  13  20
ENDBRANCH   2   9
BRANCH   4  25
ATOM     24  O   UNL A   1     -27.351  -0.312  29.125  0.00  0.00    +0.030 OA
ATOM     25  O   UNL A   1     -26.476  -0.541  28.022  0.00  0.00    -0.285 OA
ENDBRANCH   4  25
BRANCH   8  26
ATOM     26  C   UNL A   1     -24.855  -1.012  30.143  0.00  0.00    +0.127 C 
BRANCH  26  27
ATOM     27  C   UNL A   1     -24.973  -2.505  29.788  0.00  0.00    -0.000 C 
ATOM     28  C   UNL A   1     -23.906  -3.173  29.146  0.00  0.00    -0.002 C 
ATOM     29  C   UNL A   1     -23.989  -4.549  28.853  0.00  0.00    -0.000 C 
ATOM     30  C   UNL A   1     -25.137  -5.280  29.205  0.00  0.00    -0.000 C 
ATOM     31  C   UNL A   1     -26.232  -4.611  29.784  0.00  0.00    -0.000 C 
ATOM     32  C   UNL A   1     -26.155  -3.232  30.065  0.00  0.00    -0.002 C 
ENDBRANCH  26  27
BRANCH  26  33
ATOM     33  C   UNL A   1     -25.387  -0.679  31.571  0.00  0.00    +0.098 C 
ATOM     34  C   UNL A   1     -25.189   0.773  32.028  0.00  0.00    +0.021 C 
ATOM     35  C   UNL A   1     -25.336   0.684  33.544  0.00  0.00    +0.020 C 
ATOM     36  C   UNL A   1     -24.829  -0.715  33.905  0.00  0.00    +0.089 C 
ATOM     37  N   UNL A   1     -24.758  -1.481  32.646  0.00  0.00    -0.217 NA
ENDBRANCH  26  33
ENDBRANCH   8  26
BRANCH   1  38
ATOM     38  O   UNL A   1     -21.255   1.687  26.280  0.00  0.00    -0.416 OA
BRANCH  38  39
ATOM     39  C   UNL A   1     -22.278   2.129  25.755  0.00  0.00    +0.393 C 
ATOM     40  O   UNL A   1     -23.167   2.432  25.203  0.00  0.00    -0.167 OA
ENDBRANCH  38  39
ENDBRANCH   1  38
TORSDOF 11
