MODEL 3302
MODEL 1
REMARK VINA RESULT:    -6.089      0.000      0.000
REMARK INTER + INTRA:          -6.583
REMARK INTER:                  -6.445
REMARK INTRA:                  -0.138
REMARK UNBOUND:                -0.138
REMARK  Name = No_3302-gen_results/8p0m/2024-11-27-11-27-31/
REMARK  1 active torsions:
REMARK  status: ('A' for Active; 'I' for Inactive)
REMARK    1  A    between atoms: C_4  and  C_11
REMARK                            x       y       z     vdW  Elec       q    Type
REMARK                         _______ _______ _______ _____ _____    ______ ____
ROOT
ATOM      1  C   UNL A   1     -25.503  -1.229  28.190  0.00  0.00    -0.000 A 
ATOM      2  C   UNL A   1     -24.998  -0.315  27.580  0.00  0.00    -0.000 A 
ATOM      3  C   UNL A   1     -23.677   0.055  27.806  0.00  0.00    +0.004 A 
ATOM      4  C   UNL A   1     -22.945   1.165  27.130  0.00  0.00    +0.071 A 
ATOM      5  C   UNL A   1     -21.583   1.546  27.390  0.00  0.00    +0.004 A 
ATOM      6  C   UNL A   1     -24.790  -1.847  29.318  0.00  0.00    -0.000 A 
ATOM      7  C   UNL A   1     -23.471  -1.607  29.572  0.00  0.00    -0.000 A 
ATOM      8  C   UNL A   1     -22.844  -0.614  28.799  0.00  0.00    -0.000 A 
ATOM      9  C   UNL A   1     -20.879   0.615  28.209  0.00  0.00    -0.000 A 
ATOM     10  C   UNL A   1     -21.471  -0.324  28.975  0.00  0.00    -0.000 A 
ENDROOT
BRANCH   4  11
ATOM     11  C   UNL A   1     -23.630   1.992  26.099  0.00  0.00    +0.419 C 
ATOM     12  F   UNL A   1     -24.465   2.681  26.573  0.00  0.00    -0.166 F 
ATOM     13  F   UNL A   1     -24.149   1.136  25.205  0.00  0.00    -0.166 F 
ATOM     14  F   UNL A   1     -22.747   2.793  25.444  0.00  0.00    -0.166 F 
ENDBRANCH   4  11
TORSDOF 1
ENDMDL
ENDMDL
