REMARK  Name = outputs/IAG933/test6/raw/output_3303_IAG933_linker_design_.xyz
REMARK  12 active torsions:
REMARK  status: ('A' for Active; 'I' for Inactive)
REMARK    1  A    between atoms: C_1  and  C_2
REMARK    2  A    between atoms: C_1  and  C_8
REMARK    3  A    between atoms: C_1  and  C_42
REMARK    4  A    between atoms: C_13  and  C_43
REMARK    5  A    between atoms: C_14  and  C_15
REMARK    6  A    between atoms: C_21  and  O_22
REMARK    7  A    between atoms: O_22  and  C_23
REMARK    8  A    between atoms: C_23  and  C_24
REMARK    9  A    between atoms: C_31  and  C_42
REMARK   10  A    between atoms: C_34  and  C_42
REMARK   11  A    between atoms: O_39  and  C_46
REMARK   12  A    between atoms: C_43  and  N_47
REMARK                            x       y       z     vdW  Elec       q    Type
REMARK                         _______ _______ _______ _____ _____    ______ ____
ROOT
ATOM      1  C   UNL A   1     -24.961  -0.097  28.948  0.00  0.00    +0.107 C 
ENDROOT
BRANCH   1   5
ATOM      2  C   UNL A   1     -29.677   0.057  28.500  0.00  0.00    +0.059 C 
ATOM      3  C   UNL A   1     -29.559   1.829  30.310  0.00  0.00    +0.234 C 
ATOM      4  C   UNL A   1     -32.127  -0.994  29.434  0.00  0.00    +0.095 C 
ATOM      5  C   UNL A   1     -25.925   1.168  29.166  0.00  0.00    +0.015 C 
ATOM      6  C   UNL A   1     -33.569  -0.588  29.210  0.00  0.00    +0.030 C 
ATOM      7  C   UNL A   1     -27.406   0.972  29.679  0.00  0.00    +0.112 C 
ATOM      8  C   UNL A   1     -30.471   0.979  29.401  0.00  0.00    +0.161 C 
ATOM      9  O   UNL A   1     -28.236   2.120  29.782  0.00  0.00    -0.477 OA
ATOM     10  C   UNL A   1     -32.319  -2.269  30.296  0.00  0.00    +0.030 C 
ATOM     11  C   UNL A   1     -31.560  -1.491  28.072  0.00  0.00    +0.057 C 
ATOM     12  O   UNL A   1     -31.451   0.148  30.080  0.00  0.00    -0.357 OA
ATOM     13  C   UNL A   1     -27.838  -0.217  30.064  0.00  0.00    +0.064 C 
ATOM     14  C   UNL A   1     -30.681  -0.420  27.435  0.00  0.00    +0.120 C 
ATOM     15  C   UNL A   1     -28.808  -0.999  29.195  0.00  0.00    +0.013 C 
BRANCH  14  16
ATOM     16  O   UNL A   1     -31.721   0.486  26.892  0.00  0.00    -0.353 OA
ATOM     17  C   UNL A   1     -31.305   1.745  26.459  0.00  0.00    +0.174 C 
ENDBRANCH  14  16
ENDBRANCH   1   5
BRANCH   1  19
ATOM     18  C   UNL A   1     -21.790   1.603  27.426  0.00  0.00    +0.115 C 
ATOM     19  C   UNL A   1     -23.483   0.325  28.702  0.00  0.00    +0.230 C 
ATOM     20  N   UNL A   1     -23.242   1.200  27.554  0.00  0.00    -0.277 N 
ATOM     21  O   UNL A   1     -22.576  -0.292  29.355  0.00  0.00    -0.275 OA
BRANCH  20  22
ATOM     22  C   UNL A   1     -24.159   1.540  26.421  0.00  0.00    +0.101 C 
BRANCH  22  23
ATOM     23  C   UNL A   1     -25.688   1.614  26.461  0.00  0.00    +0.090 C 
ATOM     24  C   UNL A   1     -26.250   2.920  26.395  0.00  0.00    +0.057 C 
ATOM     25  C   UNL A   1     -27.438   3.091  25.645  0.00  0.00    +0.102 C 
ATOM     26  N   UNL A   1     -28.075   2.089  25.003  0.00  0.00    -0.212 NA
ATOM     27  C   UNL A   1     -27.543   0.849  25.079  0.00  0.00    +0.234 C 
ATOM     28  C   UNL A   1     -26.354   0.576  25.777  0.00  0.00    +0.242 C 
ATOM     29  F   UNL A   1     -25.860  -0.681  25.795  0.00  0.00    -0.227 F 
BRANCH  24  30
ATOM     30  C   UNL A   1     -25.642   4.093  27.123  0.00  0.00    +0.263 C 
ATOM     31  N   UNL A   1     -25.614   5.252  26.449  0.00  0.00    -0.200 NA
ATOM     32  C   UNL A   1     -25.026   6.479  26.963  0.00  0.00    +0.139 C 
ATOM     33  O   UNL A   1     -25.143   3.966  28.243  0.00  0.00    -0.269 OA
ENDBRANCH  24  30
BRANCH  27  34
ATOM     34  O   UNL A   1     -28.193  -0.208  24.477  0.00  0.00    -0.459 OA
BRANCH  34  35
ATOM     35  C   UNL A   1     -29.460   0.005  23.866  0.00  0.00    +0.242 C 
BRANCH  35  36
ATOM     36  C   UNL A   1     -30.065  -1.377  23.573  0.00  0.00    +0.229 C 
ATOM     37  O   UNL A   1     -30.729  -1.878  24.721  0.00  0.00    -0.216 OA
ENDBRANCH  35  36
ENDBRANCH  34  35
ENDBRANCH  27  34
ENDBRANCH  22  23
ENDBRANCH  20  22
ENDBRANCH   1  19
BRANCH   1  38
ATOM     38  C   UNL A   1     -24.855  -1.012  30.143  0.00  0.00    +0.051 C 
BRANCH  38  39
ATOM     39  C   UNL A   1     -24.973  -2.505  29.788  0.00  0.00    -0.020 C 
ATOM     40  C   UNL A   1     -23.906  -3.173  29.146  0.00  0.00    -0.004 C 
ATOM     41  C   UNL A   1     -23.989  -4.549  28.853  0.00  0.00    -0.000 C 
ATOM     42  C   UNL A   1     -25.137  -5.280  29.205  0.00  0.00    -0.000 C 
ATOM     43  C   UNL A   1     -26.232  -4.611  29.784  0.00  0.00    -0.000 C 
ATOM     44  C   UNL A   1     -26.155  -3.232  30.065  0.00  0.00    -0.004 C 
ENDBRANCH  38  39
BRANCH  38  45
ATOM     45  C   UNL A   1     -25.387  -0.679  31.571  0.00  0.00    +0.078 C 
ATOM     46  C   UNL A   1     -25.189   0.773  32.028  0.00  0.00    +0.019 C 
ATOM     47  C   UNL A   1     -25.336   0.684  33.544  0.00  0.00    +0.020 C 
ATOM     48  C   UNL A   1     -24.829  -0.715  33.905  0.00  0.00    +0.089 C 
ATOM     49  N   UNL A   1     -24.758  -1.481  32.646  0.00  0.00    -0.219 NA
ENDBRANCH  38  45
ENDBRANCH   1  38
TORSDOF 12
