MODEL 3304
MODEL 1
REMARK VINA RESULT:    -7.198      0.000      0.000
REMARK INTER + INTRA:          -3.318
REMARK INTER:                  -9.302
REMARK INTRA:                   5.984
REMARK UNBOUND:                 5.984
REMARK  Name = No_3304-gen_results/8p0m/2024-11-27-11-27-31/
REMARK  5 active torsions:
REMARK  status: ('A' for Active; 'I' for Inactive)
REMARK    1  A    between atoms: C_1  and  C_2
REMARK    2  A    between atoms: C_1  and  C_8
REMARK    3  A    between atoms: C_5  and  C_10
REMARK    4  A    between atoms: C_7  and  C_17
REMARK    5  A    between atoms: C_24  and  C_25
REMARK                            x       y       z     vdW  Elec       q    Type
REMARK                         _______ _______ _______ _____ _____    ______ ____
ROOT
ATOM      1  C   UNL A   1      -7.281  -0.116  10.087  0.00  0.00    -0.012 A 
ATOM      2  C   UNL A   1      -8.295   0.633  10.680  0.00  0.00    -0.007 A 
ATOM      3  C   UNL A   1      -9.105   1.695  10.051  0.00  0.00    -0.008 A 
ATOM      4  C   UNL A   1      -8.664   2.133   8.765  0.00  0.00    +0.053 A 
ATOM      5  C   UNL A   1      -7.617   1.437   8.151  0.00  0.00    +0.011 A 
ATOM      6  C   UNL A   1      -6.961   0.414   8.742  0.00  0.00    +0.076 A 
ATOM      7  C   UNL A   1      -8.845   0.318  12.032  0.00  0.00    -0.005 C 
ATOM      8  C   UNL A   1      -9.394   1.234  12.790  0.00  0.00    -0.026 C 
ATOM      9  C   UNL A   1      -9.347   2.367  12.801  0.00  0.00    +0.027 C 
ATOM     10  C   UNL A   1      -9.928   3.270  11.741  0.00  0.00    +0.020 C 
ATOM     11  C   UNL A   1      -9.493   3.020  10.407  0.00  0.00    +0.126 C 
ENDROOT
BRANCH   4  12
ATOM     12  C   UNL A   1      -9.422   3.223   8.174  0.00  0.00    +0.284 C 
ATOM     13  N   UNL A   1     -10.680   3.084   8.004  0.00  0.00    -0.084 NA
ATOM     14  O   UNL A   1      -8.894   4.282   7.684  0.00  0.00    -0.267 OA
ENDBRANCH   4  12
BRANCH   6  15
ATOM     15  C   UNL A   1      -5.857  -0.295   8.026  0.00  0.00    +0.388 C 
ATOM     16  O   UNL A   1      -4.893   0.125   7.863  0.00  0.00    -0.241 OA
ATOM     17  O   UNL A   1      -6.193  -1.425   7.471  0.00  0.00    -0.241 OA
ENDBRANCH   6  15
BRANCH  11  18
ATOM     18  C   UNL A   1      -9.501   3.981   9.898  0.00  0.00    +0.368 C 
ATOM     19  O   UNL A   1     -10.811   4.709  10.138  0.00  0.00    -0.245 OA
ATOM     20  O   UNL A   1      -8.534   4.771  10.057  0.00  0.00    -0.245 OA
ENDBRANCH  11  18
BRANCH   1  21
ATOM     21  C   UNL A   1      -6.664  -0.982  10.663  0.00  0.00    +0.053 C 
BRANCH  21  22
ATOM     22  C   UNL A   1      -5.479  -0.433  11.426  0.00  0.00    -0.018 A 
ATOM     23  C   UNL A   1      -4.132  -0.807  10.995  0.00  0.00    -0.004 A 
ATOM     24  C   UNL A   1      -5.573   0.540  12.425  0.00  0.00    -0.004 A 
ATOM     25  C   UNL A   1      -4.510   1.095  12.991  0.00  0.00    -0.000 A 
ATOM     26  C   UNL A   1      -3.009  -0.223  11.665  0.00  0.00    -0.000 A 
ATOM     27  C   UNL A   1      -3.199   0.737  12.662  0.00  0.00    -0.000 A 
ENDBRANCH  21  22
ENDBRANCH   1  21
TORSDOF 5
ENDMDL
ENDMDL
