REMARK  Name = No_3305-gen_results/8p0m/2024-11-27-11-27-31/
REMARK  1 active torsions:
REMARK  status: ('A' for Active; 'I' for Inactive)
REMARK    1  A    between atoms: C_5  and  N_7
REMARK                            x       y       z     vdW  Elec       q    Type
REMARK                         _______ _______ _______ _____ _____    ______ ____
ROOT
ATOM      1  C   UNL A   1     -28.016  -0.814  28.878  0.00  0.00    +0.001 A 
ATOM      2  C   UNL A   1     -27.064  -0.119  28.608  0.00  0.00    +0.000 A 
ATOM      3  C   UNL A   1     -27.001   0.691  27.491  0.00  0.00    +0.001 A 
ATOM      4  C   UNL A   1     -28.137   0.736  26.635  0.00  0.00    +0.015 A 
ATOM      5  C   UNL A   1     -29.236   0.076  27.069  0.00  0.00    +0.048 A 
ATOM      6  C   UNL A   1     -29.218  -0.643  28.175  0.00  0.00    +0.015 A 
ENDROOT
BRANCH   5   7
ATOM      7  N   UNL A   1     -30.352   0.156  26.243  0.00  0.00    -0.307 N 
ATOM      8  C   UNL A   1     -31.094   1.056  26.091  0.00  0.00    +0.091 C 
ATOM      9  C   UNL A   1     -32.209   0.992  25.174  0.00  0.00    +0.021 C 
ATOM     10  C   UNL A   1     -30.688  -0.990  25.433  0.00  0.00    +0.091 C 
ATOM     11  C   UNL A   1     -31.613  -0.982  24.653  0.00  0.00    +0.021 C 
ATOM     12  C   UNL A   1     -32.465  -0.005  24.466  0.00  0.00    +0.004 C 
ENDBRANCH   5   7
TORSDOF 1
