MODEL 3306
MODEL 1
REMARK VINA RESULT:    -7.123      0.000      0.000
REMARK INTER + INTRA:         -12.739
REMARK INTER:                 -10.038
REMARK INTRA:                  -2.701
REMARK UNBOUND:                -2.701
REMARK  Name = No_3306-gen_results/8p0m/2024-11-27-11-27-31/
REMARK  7 active torsions:
REMARK  status: ('A' for Active; 'I' for Inactive)
REMARK    1  A    between atoms: C_1  and  O_18
REMARK    2  A    between atoms: C_2  and  C_8
REMARK    3  A    between atoms: C_12  and  C_14
REMARK    4  A    between atoms: O_18  and  C_19
REMARK    5  A    between atoms: C_22  and  C_25
REMARK    6  A    between atoms: C_23  and  C_34
REMARK    7  A    between atoms: C_26  and  C_27
REMARK                            x       y       z     vdW  Elec       q    Type
REMARK                         _______ _______ _______ _____ _____    ______ ____
ROOT
ATOM      1  O   UNL A   1     -24.740   0.510  25.793  0.00  0.00    -0.479 OA
ENDROOT
BRANCH   1   2
ATOM      2  C   UNL A   1     -25.962   0.753  25.295  0.00  0.00    +0.139 A 
ATOM      3  C   UNL A   1     -26.576   1.779  25.475  0.00  0.00    +0.035 A 
ATOM      4  C   UNL A   1     -27.842   2.047  24.983  0.00  0.00    +0.015 A 
ATOM      5  C   UNL A   1     -28.477   1.015  24.230  0.00  0.00    +0.068 A 
ATOM      6  C   UNL A   1     -27.828  -0.166  24.176  0.00  0.00    +0.071 A 
ATOM      7  C   UNL A   1     -26.643  -0.345  24.764  0.00  0.00    +0.049 A 
ATOM      8 CL   UNL A   1     -28.630  -1.406  23.336  0.00  0.00    -0.081 Cl
ATOM      9 CL   UNL A   1     -30.074   1.318  23.654  0.00  0.00    -0.081 Cl
BRANCH   3  10
ATOM     10  C   UNL A   1     -25.898   3.038  26.159  0.00  0.00    +0.003 A 
ATOM     11  C   UNL A   1     -25.268   3.734  25.668  0.00  0.00    +0.000 A 
ATOM     12  C   UNL A   1     -24.609   4.876  26.297  0.00  0.00    +0.000 A 
ATOM     13  C   UNL A   1     -24.941   5.150  27.496  0.00  0.00    +0.007 A 
ATOM     14  C   UNL A   1     -25.800   4.365  28.232  0.00  0.00    +0.080 A 
ATOM     15  C   UNL A   1     -26.427   3.240  27.554  0.00  0.00    +0.007 A 
BRANCH  14  16
ATOM     16  C   UNL A   1     -26.238   4.684  29.611  0.00  0.00    +0.388 C 
ATOM     17  O   UNL A   1     -27.311   4.647  30.034  0.00  0.00    -0.241 OA
ATOM     18  O   UNL A   1     -25.325   5.413  30.365  0.00  0.00    -0.241 OA
ENDBRANCH  14  16
ENDBRANCH   3  10
ENDBRANCH   1   2
BRANCH   1  19
ATOM     19  C   UNL A   1     -24.571   0.028  27.074  0.00  0.00    +0.175 C 
ATOM     20  C   UNL A   1     -25.387  -0.792  27.533  0.00  0.00    +0.045 C 
ATOM     21  C   UNL A   1     -25.200  -1.471  28.724  0.00  0.00    +0.015 C 
ATOM     22  C   UNL A   1     -24.058  -1.084  29.482  0.00  0.00    +0.080 C 
ATOM     23  C   UNL A   1     -23.437   0.432  27.792  0.00  0.00    +0.131 C 
ATOM     24  C   UNL A   1     -23.185  -0.143  28.992  0.00  0.00    +0.160 C 
ATOM     25  O   UNL A   1     -22.032   0.060  29.546  0.00  0.00    -0.295 OA
BRANCH  22  26
ATOM     26  C   UNL A   1     -23.823  -1.699  30.830  0.00  0.00    -0.019 C 
ATOM     27  C   UNL A   1     -24.201  -1.429  31.803  0.00  0.00    -0.004 C 
BRANCH  27  28
ATOM     28  C   UNL A   1     -25.109  -0.239  31.978  0.00  0.00    -0.000 A 
ATOM     29  C   UNL A   1     -26.537  -0.370  32.044  0.00  0.00    -0.000 A 
ATOM     30  C   UNL A   1     -27.326   0.745  32.246  0.00  0.00    -0.000 A 
ATOM     31  C   UNL A   1     -26.704   2.021  32.308  0.00  0.00    -0.000 A 
ATOM     32  C   UNL A   1     -25.316   2.149  32.225  0.00  0.00    -0.000 A 
ATOM     33  C   UNL A   1     -24.580   1.054  32.128  0.00  0.00    -0.000 A 
ENDBRANCH  27  28
ENDBRANCH  22  26
BRANCH  23  34
ATOM     34  C   UNL A   1     -22.514   1.473  27.309  0.00  0.00    +0.193 C 
ATOM     35  O   UNL A   1     -22.564   2.593  27.794  0.00  0.00    -0.220 OA
ENDBRANCH  23  34
ENDBRANCH   1  19
TORSDOF 7
ENDMDL
ENDMDL
