MODEL 3307
MODEL 1
REMARK VINA RESULT:    -7.031      0.000      0.000
REMARK INTER + INTRA:         -10.168
REMARK INTER:                  -9.086
REMARK INTRA:                  -1.082
REMARK UNBOUND:                -1.082
REMARK  Name = No_3307-gen_results/8p0m/2024-11-27-11-27-31/
REMARK  5 active torsions:
REMARK  status: ('A' for Active; 'I' for Inactive)
REMARK    1  A    between atoms: C_2  and  C_11
REMARK    2  A    between atoms: C_3  and  C_4
REMARK    3  A    between atoms: C_6  and  C_14
REMARK    4  A    between atoms: C_16  and  C_20
REMARK    5  A    between atoms: C_18  and  C_23
REMARK                            x       y       z     vdW  Elec       q    Type
REMARK                         _______ _______ _______ _____ _____    ______ ____
ROOT
ATOM      1  C   UNL A   1     -30.774 -10.890  26.786  0.00  0.00    +0.010 A 
ATOM      2  C   UNL A   1     -31.052 -10.134  27.467  0.00  0.00    +0.080 A 
ATOM      3  C   UNL A   1     -29.851 -11.875  27.349  0.00  0.00    +0.072 A 
ATOM      4  C   UNL A   1     -30.731  -9.831  28.855  0.00  0.00    +0.007 A 
ATOM      5  C   UNL A   1     -29.851 -10.731  29.418  0.00  0.00    +0.000 A 
ATOM      6  C   UNL A   1     -29.435 -11.793  28.704  0.00  0.00    +0.004 A 
ENDROOT
BRANCH   5   7
ATOM      7  C   UNL A   1     -29.392 -10.600  30.815  0.00  0.00    +0.000 A 
ATOM      8  C   UNL A   1     -28.652 -11.360  31.315  0.00  0.00    +0.007 A 
ATOM      9  C   UNL A   1     -28.126 -11.300  32.734  0.00  0.00    +0.080 A 
ATOM     10  C   UNL A   1     -28.643 -10.316  33.528  0.00  0.00    +0.008 A 
ATOM     11  C   UNL A   1     -29.568  -9.452  32.963  0.00  0.00    +0.019 A 
ATOM     12  C   UNL A   1     -29.966  -9.558  31.650  0.00  0.00    +0.002 A 
BRANCH   9  13
ATOM     13  C   UNL A   1     -27.163 -12.327  33.230  0.00  0.00    +0.388 C 
ATOM     14  O   UNL A   1     -26.484 -12.867  32.471  0.00  0.00    -0.241 OA
ATOM     15  O   UNL A   1     -27.151 -12.503  34.463  0.00  0.00    -0.241 OA
ENDBRANCH   9  13
BRANCH  11  16
ATOM     16  C   UNL A   1     -30.168  -8.394  33.861  0.00  0.00    +0.093 C 
ATOM     17  N   UNL A   1     -31.155  -8.396  34.244  0.00  0.00    -0.267 NA
ATOM     18  C   UNL A   1     -31.705  -7.400  35.053  0.00  0.00    +0.152 C 
ENDBRANCH  11  16
ENDBRANCH   5   7
BRANCH   3  19
ATOM     19  C   UNL A   1     -29.400 -13.084  26.626  0.00  0.00    +0.419 C 
ATOM     20  F   UNL A   1     -28.301 -13.256  26.514  0.00  0.00    -0.166 F 
ATOM     21  F   UNL A   1     -29.989 -13.143  25.462  0.00  0.00    -0.166 F 
ATOM     22  F   UNL A   1     -29.917 -14.262  27.264  0.00  0.00    -0.166 F 
ENDBRANCH   3  19
BRANCH   2  23
ATOM     23  C   UNL A   1     -32.145  -9.036  26.946  0.00  0.00    +0.388 C 
ATOM     24  O   UNL A   1     -33.200  -9.399  26.375  0.00  0.00    -0.241 OA
ATOM     25  O   UNL A   1     -31.961  -7.838  27.135  0.00  0.00    -0.241 OA
ENDBRANCH   2  23
TORSDOF 5
ENDMDL
ENDMDL
