MODEL 3308
MODEL 1
REMARK VINA RESULT:    -5.990      0.000      0.000
REMARK INTER + INTRA:          -5.990
REMARK INTER:                  -5.990
REMARK INTRA:                   0.000
REMARK UNBOUND:                 0.000
REMARK  Name = No_3308-gen_results/8p0m/2024-11-27-11-27-31/
REMARK  0 active torsions:
REMARK  status: ('A' for Active; 'I' for Inactive)
REMARK                            x       y       z     vdW  Elec       q    Type
REMARK                         _______ _______ _______ _____ _____    ______ ____
ROOT
ATOM      1 CL   UNL A   1     -24.851  -5.431  28.792  0.00  0.00    -0.081 Cl
ATOM      2  C   UNL A   1     -24.960  -4.039  29.151  0.00  0.00    +0.068 A 
ATOM      3  C   UNL A   1     -23.845  -3.213  29.167  0.00  0.00    +0.015 A 
ATOM      4  C   UNL A   1     -23.829  -1.928  29.755  0.00  0.00    +0.042 A 
ATOM      5  C   UNL A   1     -24.966  -1.402  30.329  0.00  0.00    +0.059 A 
ATOM      6  C   UNL A   1     -26.079  -2.202  30.361  0.00  0.00    +0.017 A 
ATOM      7  C   UNL A   1     -26.062  -3.443  29.867  0.00  0.00    +0.068 A 
ATOM      8  C   UNL A   1     -24.893  -0.052  30.869  0.00  0.00    +0.265 C 
ATOM      9  N   UNL A   1     -23.835   0.737  30.779  0.00  0.00    -0.193 NA
ATOM     10  O   UNL A   1     -25.903   0.385  31.500  0.00  0.00    -0.268 OA
ATOM     11 CL   UNL A   1     -27.504  -4.428  30.011  0.00  0.00    -0.081 Cl
ATOM     12  C   UNL A   1     -22.691   0.513  29.961  0.00  0.00    +0.184 C 
ATOM     13  C   UNL A   1     -22.692  -0.853  29.429  0.00  0.00    +0.195 C 
ATOM     14  O   UNL A   1     -21.684  -1.241  28.749  0.00  0.00    -0.289 OA
ENDROOT
TORSDOF 0
ENDMDL
ENDMDL
