MODEL 3309
MODEL 1
REMARK VINA RESULT:    -4.617      0.000      0.000
REMARK INTER + INTRA:          -4.900
REMARK INTER:                  -4.887
REMARK INTRA:                  -0.013
REMARK UNBOUND:                -0.013
REMARK  Name = No_3309-gen_results/8p0m/2024-11-27-11-27-31/
REMARK  1 active torsions:
REMARK  status: ('A' for Active; 'I' for Inactive)
REMARK    1  A    between atoms: C_1  and  C_2
REMARK                            x       y       z     vdW  Elec       q    Type
REMARK                         _______ _______ _______ _____ _____    ______ ____
ROOT
ATOM      1  C   UNL A   1     -24.124  -2.657  29.333  0.00  0.00    -0.003 A 
ATOM      2  C   UNL A   1     -25.525  -2.423  29.535  0.00  0.00    -0.003 A 
ATOM      3  C   UNL A   1     -26.425  -3.518  29.952  0.00  0.00    -0.000 A 
ATOM      4  C   UNL A   1     -26.116  -4.838  29.575  0.00  0.00    -0.000 A 
ATOM      5  C   UNL A   1     -24.866  -5.102  28.979  0.00  0.00    -0.000 A 
ATOM      6  C   UNL A   1     -23.988  -4.109  28.750  0.00  0.00    -0.003 A 
ENDROOT
BRANCH   1   7
ATOM      7  C   UNL A   1     -23.580  -1.870  28.891  0.00  0.00    +0.136 C 
ATOM      8  N   UNL A   1     -22.399  -1.494  29.135  0.00  0.00    -0.126 NA
ENDBRANCH   1   7
TORSDOF 1
ENDMDL
ENDMDL
