MODEL 330
MODEL 1
REMARK VINA RESULT:    -7.154      0.000      0.000
REMARK INTER + INTRA:          -9.709
REMARK INTER:                  -8.827
REMARK INTRA:                  -0.882
REMARK UNBOUND:                -0.882
REMARK  Name = No_330-gen_results/8p0m/2024-11-27-11-27-31/
REMARK  4 active torsions:
REMARK  status: ('A' for Active; 'I' for Inactive)
REMARK    1  A    between atoms: C_3  and  C_24
REMARK    2  A    between atoms: C_5  and  C_10
REMARK    3  A    between atoms: N_8  and  C_9
REMARK    4  A    between atoms: C_17  and  C_21
REMARK                            x       y       z     vdW  Elec       q    Type
REMARK                         _______ _______ _______ _____ _____    ______ ____
ROOT
ATOM      1  C   UNL A   1     -27.812 -12.427   7.621  0.00  0.00    +0.117 C 
ATOM      2  C   UNL A   1     -28.457 -12.550   8.637  0.00  0.00    -0.007 A 
ATOM      3  C   UNL A   1     -28.618 -11.486   9.518  0.00  0.00    -0.007 A 
ATOM      4  C   UNL A   1     -29.377 -11.514  10.801  0.00  0.00    +0.003 A 
ATOM      5  C   UNL A   1     -30.128 -12.699  11.057  0.00  0.00    +0.071 A 
ATOM      6  C   UNL A   1     -29.998 -13.744  10.120  0.00  0.00    -0.001 A 
ATOM      7  C   UNL A   1     -29.254 -13.678   9.006  0.00  0.00    -0.023 A 
ATOM      8  N   UNL A   1     -27.044 -13.524   7.293  0.00  0.00    -0.303 N 
ATOM      9  C   UNL A   1     -27.298 -14.799   7.741  0.00  0.00    +0.095 C 
ATOM     10  C   UNL A   1     -28.477 -14.870   8.714  0.00  0.00    +0.042 C 
ATOM     11  C   UNL A   1     -28.922 -16.221   9.053  0.00  0.00    +0.006 C 
ENDROOT
BRANCH   8  12
ATOM     12  C   UNL A   1     -26.056 -13.380   6.369  0.00  0.00    +0.048 A 
ATOM     13  C   UNL A   1     -24.976 -14.220   6.385  0.00  0.00    +0.021 A 
ATOM     14  C   UNL A   1     -26.094 -12.318   5.367  0.00  0.00    +0.015 A 
ATOM     15  C   UNL A   1     -25.101 -12.228   4.360  0.00  0.00    +0.002 A 
ATOM     16  C   UNL A   1     -23.964 -14.074   5.359  0.00  0.00    +0.081 A 
ATOM     17  C   UNL A   1     -24.039 -13.069   4.435  0.00  0.00    +0.007 A 
BRANCH  16  18
ATOM     18  C   UNL A   1     -22.808 -14.988   5.401  0.00  0.00    +0.388 C 
ATOM     19  O   UNL A   1     -21.789 -14.781   4.919  0.00  0.00    -0.241 OA
ATOM     20  O   UNL A   1     -22.946 -15.876   6.499  0.00  0.00    -0.241 OA
ENDBRANCH  16  18
ENDBRANCH   8  12
BRANCH   5  21
ATOM     21  C   UNL A   1     -30.897 -12.717  12.281  0.00  0.00    +0.419 C 
ATOM     22  F   UNL A   1     -32.089 -13.000  12.128  0.00  0.00    -0.166 F 
ATOM     23  F   UNL A   1     -30.431 -13.553  13.241  0.00  0.00    -0.166 F 
ATOM     24  F   UNL A   1     -30.887 -11.523  12.968  0.00  0.00    -0.166 F 
ENDBRANCH   5  21
BRANCH   3  25
ATOM     25  C   UNL A   1     -27.959 -10.154   9.322  0.00  0.00    -0.022 C 
ATOM     26  C   UNL A   1     -26.662 -10.049   9.559  0.00  0.00    -0.005 C 
ATOM     27  C   UNL A   1     -28.780  -9.044   9.066  0.00  0.00    +0.031 C 
ENDBRANCH   3  25
TORSDOF 4
ENDMDL
ENDMDL
