MODEL 3310
MODEL 1
REMARK VINA RESULT:    -5.995      0.000      0.000
REMARK INTER + INTRA:          -7.108
REMARK INTER:                  -6.696
REMARK INTRA:                  -0.412
REMARK UNBOUND:                -0.412
REMARK  Name = No_3310-gen_results/8p0m/2024-11-27-11-27-31/
REMARK  2 active torsions:
REMARK  status: ('A' for Active; 'I' for Inactive)
REMARK    1  A    between atoms: C_4  and  C_7
REMARK    2  A    between atoms: C_7  and  C_8
REMARK                            x       y       z     vdW  Elec       q    Type
REMARK                         _______ _______ _______ _____ _____    ______ ____
ROOT
ATOM      1  C   UNL A   1     -24.335  -1.140  29.577  0.00  0.00    +0.054 C 
ENDROOT
BRANCH   1   5
ATOM      2  C   UNL A   1     -26.299  -4.448  29.688  0.00  0.00    -0.000 A 
ATOM      3  C   UNL A   1     -25.529  -5.045  29.286  0.00  0.00    -0.000 A 
ATOM      4  C   UNL A   1     -25.953  -2.989  29.885  0.00  0.00    -0.004 A 
ATOM      5  C   UNL A   1     -24.721  -2.499  29.404  0.00  0.00    -0.018 A 
ATOM      6  C   UNL A   1     -24.201  -4.786  28.684  0.00  0.00    -0.000 A 
ATOM      7  C   UNL A   1     -23.852  -3.452  28.841  0.00  0.00    -0.004 A 
ENDBRANCH   1   5
BRANCH   1   8
ATOM      8  C   UNL A   1     -24.096  -0.421  28.370  0.00  0.00    +0.001 A 
ATOM      9  C   UNL A   1     -23.217   0.358  28.055  0.00  0.00    +0.095 A 
ATOM     10  N   UNL A   1     -23.391   1.124  26.970  0.00  0.00    -0.243 NA
ATOM     11  C   UNL A   1     -25.119  -0.550  27.279  0.00  0.00    -0.001 A 
ATOM     12  C   UNL A   1     -25.350   0.195  26.300  0.00  0.00    +0.020 A 
ATOM     13  C   UNL A   1     -24.294   1.128  26.059  0.00  0.00    +0.099 A 
ENDBRANCH   1   8
TORSDOF 2
ENDMDL
ENDMDL
