REMARK  Name = No_3311-gen_results/8p0m/2024-11-27-11-27-31/
REMARK  0 active torsions:
REMARK  status: ('A' for Active; 'I' for Inactive)
REMARK                            x       y       z     vdW  Elec       q    Type
REMARK                         _______ _______ _______ _____ _____    ______ ____
ROOT
ATOM      1  C   UNL A   1     -28.016  -0.814  28.878  0.00  0.00    +0.140 A 
ATOM      2  C   UNL A   1     -28.469  -0.785  29.829  0.00  0.00    +0.030 A 
ATOM      3  F   UNL A   1     -27.014  -1.618  28.684  0.00  0.00    -0.204 F 
ATOM      4  C   UNL A   1     -29.647   0.050  30.155  0.00  0.00    +0.014 A 
ATOM      5  C   UNL A   1     -29.994   0.932  29.120  0.00  0.00    +0.058 A 
ATOM      6  C   UNL A   1     -29.294   0.902  27.957  0.00  0.00    +0.014 A 
ATOM      7  C   UNL A   1     -28.230   0.042  27.821  0.00  0.00    +0.030 A 
ATOM      8 CL   UNL A   1     -31.295   2.007  29.352  0.00  0.00    -0.082 Cl
ENDROOT
TORSDOF 0
