MODEL 3311
MODEL 1
REMARK VINA RESULT:    -4.807      0.000      0.000
REMARK INTER + INTRA:          -4.807
REMARK INTER:                  -4.807
REMARK INTRA:                   0.000
REMARK UNBOUND:                 0.000
REMARK  Name = No_3311-gen_results/8p0m/2024-11-27-11-27-31/
REMARK  0 active torsions:
REMARK  status: ('A' for Active; 'I' for Inactive)
REMARK                            x       y       z     vdW  Elec       q    Type
REMARK                         _______ _______ _______ _____ _____    ______ ____
ROOT
ATOM      1  C   UNL A   1     -24.858  -5.023  28.934  0.00  0.00    +0.140 A 
ATOM      2  C   UNL A   1     -24.065  -4.410  28.612  0.00  0.00    +0.030 A 
ATOM      3  F   UNL A   1     -24.863  -6.276  28.590  0.00  0.00    -0.204 F 
ATOM      4  C   UNL A   1     -23.923  -2.984  28.983  0.00  0.00    +0.014 A 
ATOM      5  C   UNL A   1     -25.044  -2.483  29.663  0.00  0.00    +0.058 A 
ATOM      6  C   UNL A   1     -26.074  -3.319  29.955  0.00  0.00    +0.014 A 
ATOM      7  C   UNL A   1     -26.028  -4.630  29.544  0.00  0.00    +0.030 A 
ATOM      8 CL   UNL A   1     -25.071  -0.841  30.115  0.00  0.00    -0.082 Cl
ENDROOT
TORSDOF 0
ENDMDL
ENDMDL
