MODEL 3312
MODEL 1
REMARK VINA RESULT:    -4.827      0.000      0.000
REMARK INTER + INTRA:          -5.931
REMARK INTER:                  -5.673
REMARK INTRA:                  -0.258
REMARK UNBOUND:                -0.258
REMARK  Name = No_3312-gen_results/8p0m/2024-11-27-11-27-31/
REMARK  3 active torsions:
REMARK  status: ('A' for Active; 'I' for Inactive)
REMARK    1  A    between atoms: C_2  and  C_7
REMARK    2  A    between atoms: C_7  and  N_8
REMARK    3  A    between atoms: N_8  and  C_9
REMARK                            x       y       z     vdW  Elec       q    Type
REMARK                         _______ _______ _______ _____ _____    ______ ____
ROOT
ATOM      1  C   UNL A   1     -25.954  -3.217  29.955  0.00  0.00    -0.003 A 
ATOM      2  C   UNL A   1     -25.099  -2.745  29.560  0.00  0.00    -0.001 A 
ATOM      3  C   UNL A   1     -26.124  -4.644  29.642  0.00  0.00    -0.000 A 
ATOM      4  C   UNL A   1     -25.100  -5.363  28.958  0.00  0.00    -0.000 A 
ATOM      5  C   UNL A   1     -23.880  -3.263  28.882  0.00  0.00    -0.003 A 
ATOM      6  C   UNL A   1     -24.003  -4.583  28.565  0.00  0.00    -0.000 A 
ENDROOT
BRANCH   2   7
ATOM      7  C   UNL A   1     -24.870  -1.203  29.893  0.00  0.00    +0.139 C 
BRANCH   7   8
ATOM      8  N   UNL A   1     -23.661  -0.847  29.926  0.00  0.00    -0.232 NA
BRANCH   8   9
ATOM      9  C   UNL A   1     -23.005  -0.469  30.979  0.00  0.00    +0.081 C 
ATOM     10  C   UNL A   1     -23.133  -1.132  32.242  0.00  0.00    +0.019 C 
ENDBRANCH   8   9
ENDBRANCH   7   8
ENDBRANCH   2   7
TORSDOF 3
ENDMDL
ENDMDL
