MODEL 3313
MODEL 1
REMARK VINA RESULT:    -6.505      0.000      0.000
REMARK INTER + INTRA:          -7.211
REMARK INTER:                  -6.885
REMARK INTRA:                  -0.326
REMARK UNBOUND:                -0.326
REMARK  Name = No_3313-gen_results/8p0m/2024-11-27-11-27-31/
REMARK  1 active torsions:
REMARK  status: ('A' for Active; 'I' for Inactive)
REMARK    1  A    between atoms: C_3  and  C_7
REMARK                            x       y       z     vdW  Elec       q    Type
REMARK                         _______ _______ _______ _____ _____    ______ ____
ROOT
ATOM      1  C   UNL A   1     -24.766  -5.024  28.987  0.00  0.00    +0.000 A 
ATOM      2  C   UNL A   1     -24.089  -4.066  28.696  0.00  0.00    +0.000 A 
ATOM      3  C   UNL A   1     -24.465  -2.748  28.956  0.00  0.00    +0.000 A 
ATOM      4  C   UNL A   1     -25.760  -2.489  29.556  0.00  0.00    +0.000 A 
ATOM      5  C   UNL A   1     -26.515  -3.621  29.857  0.00  0.00    +0.000 A 
ATOM      6  C   UNL A   1     -26.087  -4.834  29.565  0.00  0.00    +0.000 A 
ENDROOT
BRANCH   3   7
ATOM      7  C   UNL A   1     -23.683  -1.520  28.635  0.00  0.00    +0.000 A 
ATOM      8  C   UNL A   1     -22.531  -1.271  29.184  0.00  0.00    +0.000 A 
ATOM      9  C   UNL A   1     -21.828  -0.046  28.925  0.00  0.00    +0.000 A 
ATOM     10  C   UNL A   1     -22.354   0.972  28.208  0.00  0.00    +0.000 A 
ATOM     11  C   UNL A   1     -24.304  -0.443  27.848  0.00  0.00    +0.000 A 
ATOM     12  C   UNL A   1     -23.603   0.783  27.653  0.00  0.00    +0.000 A 
ENDBRANCH   3   7
TORSDOF 1
ENDMDL
ENDMDL
