REMARK  Name = outputs/IAG933/test6/raw/output_3313_IAG933_linker_design_.xyz
REMARK  15 active torsions:
REMARK  status: ('A' for Active; 'I' for Inactive)
REMARK    1  A    between atoms: C_1  and  C_2
REMARK    2  A    between atoms: C_1  and  C_8
REMARK    3  A    between atoms: C_1  and  C_28
REMARK    4  A    between atoms: C_13  and  C_30
REMARK    5  A    between atoms: C_14  and  C_15
REMARK    6  A    between atoms: C_21  and  O_22
REMARK    7  A    between atoms: O_22  and  C_23
REMARK    8  A    between atoms: C_23  and  C_24
REMARK    9  A    between atoms: C_28  and  N_34
REMARK   10  A    between atoms: C_28  and  C_38
REMARK   11  A    between atoms: C_30  and  C_33
REMARK   12  A    between atoms: C_31  and  C_40
REMARK   13  A    between atoms: C_33  and  N_34
REMARK   14  A    between atoms: C_33  and  C_36
REMARK   15  A    between atoms: N_37  and  C_40
REMARK                            x       y       z     vdW  Elec       q    Type
REMARK                         _______ _______ _______ _____ _____    ______ ____
ROOT
ATOM      1  N   UNL A   1     -24.126   1.015  28.987  0.00  0.00    -0.204 NA
ENDROOT
BRANCH   1   2
ATOM      2  C   UNL A   1     -25.162   0.238  29.314  0.00  0.00    +0.156 C 
BRANCH   2   5
ATOM      3  O   UNL A   1     -27.345  -0.295  28.858  0.00  0.00    -0.272 OA
ATOM      4  N   UNL A   1     -26.910   1.816  29.511  0.00  0.00    -0.196 NA
ATOM      5  C   UNL A   1     -26.536   0.562  29.231  0.00  0.00    +0.258 C 
BRANCH   4   6
ATOM      6  C   UNL A   1     -28.334   2.059  29.702  0.00  0.00    +0.179 C 
BRANCH   6   7
ATOM      7  C   UNL A   1     -28.463   3.232  30.663  0.00  0.00    +0.173 C 
ATOM      8  C   UNL A   1     -28.114   4.490  29.963  0.00  0.00    +0.074 C 
ATOM      9  O   UNL A   1     -28.812   3.046  31.802  0.00  0.00    -0.294 OA
ENDBRANCH   6   7
ENDBRANCH   4   6
ENDBRANCH   2   5
BRANCH   2  10
ATOM     10  C   UNL A   1     -24.855  -1.012  30.143  0.00  0.00    +0.063 C 
BRANCH  10  11
ATOM     11  C   UNL A   1     -24.973  -2.505  29.788  0.00  0.00    -0.019 C 
ATOM     12  C   UNL A   1     -23.906  -3.173  29.146  0.00  0.00    -0.004 C 
ATOM     13  C   UNL A   1     -23.989  -4.549  28.853  0.00  0.00    -0.000 C 
ATOM     14  C   UNL A   1     -25.137  -5.280  29.205  0.00  0.00    -0.000 C 
ATOM     15  C   UNL A   1     -26.232  -4.611  29.784  0.00  0.00    -0.000 C 
ATOM     16  C   UNL A   1     -26.155  -3.232  30.065  0.00  0.00    -0.004 C 
ENDBRANCH  10  11
BRANCH  10  17
ATOM     17  C   UNL A   1     -25.387  -0.679  31.571  0.00  0.00    +0.079 C 
ATOM     18  C   UNL A   1     -25.189   0.773  32.028  0.00  0.00    +0.019 C 
ATOM     19  C   UNL A   1     -25.336   0.684  33.544  0.00  0.00    +0.020 C 
ATOM     20  C   UNL A   1     -24.829  -0.715  33.905  0.00  0.00    +0.089 C 
ATOM     21  N   UNL A   1     -24.758  -1.481  32.646  0.00  0.00    -0.219 NA
ENDBRANCH  10  17
ENDBRANCH   2  10
ENDBRANCH   1   2
BRANCH   1  22
ATOM     22  C   UNL A   1     -23.561   1.747  27.860  0.00  0.00    +0.131 C 
BRANCH  22  24
ATOM     23  O   UNL A   1     -21.584   0.780  28.664  0.00  0.00    -0.295 OA
ATOM     24  C   UNL A   1     -22.137   1.349  27.718  0.00  0.00    +0.167 C 
ATOM     25  C   UNL A   1     -21.543   1.756  26.391  0.00  0.00    +0.074 C 
ENDBRANCH  22  24
BRANCH  22  26
ATOM     26  C   UNL A   1     -24.228   1.442  26.523  0.00  0.00    +0.033 C 
BRANCH  26  27
ATOM     27  C   UNL A   1     -25.688   1.614  26.461  0.00  0.00    +0.072 C 
ATOM     28  C   UNL A   1     -26.250   2.920  26.395  0.00  0.00    +0.055 C 
ATOM     29  C   UNL A   1     -27.438   3.091  25.645  0.00  0.00    +0.102 C 
ATOM     30  N   UNL A   1     -28.075   2.089  25.003  0.00  0.00    -0.212 NA
ATOM     31  C   UNL A   1     -27.543   0.849  25.079  0.00  0.00    +0.234 C 
ATOM     32  C   UNL A   1     -26.354   0.576  25.777  0.00  0.00    +0.240 C 
ATOM     33  F   UNL A   1     -25.860  -0.681  25.795  0.00  0.00    -0.227 F 
BRANCH  28  34
ATOM     34  C   UNL A   1     -25.642   4.093  27.123  0.00  0.00    +0.262 C 
ATOM     35  N   UNL A   1     -25.614   5.252  26.449  0.00  0.00    -0.200 NA
ATOM     36  C   UNL A   1     -25.026   6.479  26.963  0.00  0.00    +0.139 C 
ATOM     37  O   UNL A   1     -25.143   3.966  28.243  0.00  0.00    -0.269 OA
ENDBRANCH  28  34
BRANCH  31  38
ATOM     38  O   UNL A   1     -28.193  -0.208  24.477  0.00  0.00    -0.459 OA
BRANCH  38  39
ATOM     39  C   UNL A   1     -29.460   0.005  23.866  0.00  0.00    +0.242 C 
BRANCH  39  40
ATOM     40  C   UNL A   1     -30.065  -1.377  23.573  0.00  0.00    +0.229 C 
ATOM     41  O   UNL A   1     -30.729  -1.878  24.721  0.00  0.00    -0.216 OA
ENDBRANCH  39  40
ENDBRANCH  38  39
ENDBRANCH  31  38
ENDBRANCH  26  27
ENDBRANCH  22  26
ENDBRANCH   1  22
TORSDOF 15
