MODEL 3314
MODEL 1
REMARK VINA RESULT:    -7.241      0.000      0.000
REMARK INTER + INTRA:         -10.758
REMARK INTER:                  -9.357
REMARK INTRA:                  -1.401
REMARK UNBOUND:                -1.401
REMARK  Name = No_3314-gen_results/8p0m/2024-11-27-11-27-31/
REMARK  5 active torsions:
REMARK  status: ('A' for Active; 'I' for Inactive)
REMARK    1  A    between atoms: C_1  and  C_2
REMARK    2  A    between atoms: C_1  and  C_8
REMARK    3  A    between atoms: C_3  and  C_16
REMARK    4  A    between atoms: C_5  and  C_12
REMARK    5  A    between atoms: C_25  and  O_33
REMARK                            x       y       z     vdW  Elec       q    Type
REMARK                         _______ _______ _______ _____ _____    ______ ____
ROOT
ATOM      1  C   UNL A   1      -8.085   3.048  10.445  0.00  0.00    +0.113 C 
ENDROOT
BRANCH   1   2
ATOM      2  C   UNL A   1      -8.700   1.740  10.892  0.00  0.00    +0.230 C 
ATOM      3  N   UNL A   1      -8.204   0.787  10.983  0.00  0.00    -0.275 N 
ATOM      4  C   UNL A   1      -8.884  -0.441  11.263  0.00  0.00    +0.094 C 
ATOM      5  O   UNL A   1      -9.988   1.873  11.400  0.00  0.00    -0.275 OA
ATOM      6  C   UNL A   1      -8.113  -1.692  11.096  0.00  0.00    +0.024 C 
ATOM      7  C   UNL A   1      -7.008  -1.616  10.821  0.00  0.00    +0.031 C 
ATOM      8  C   UNL A   1      -6.188  -0.449  10.511  0.00  0.00    +0.113 C 
ATOM      9  C   UNL A   1      -6.876   0.623  10.573  0.00  0.00    +0.118 C 
ATOM     10  C   UNL A   1      -6.199   1.008  11.609  0.00  0.00    -0.028 C 
ATOM     11  C   UNL A   1      -5.035   0.524  12.274  0.00  0.00    -0.033 C 
ATOM     12  C   UNL A   1      -6.965   1.449  12.826  0.00  0.00    +0.028 C 
ATOM     13  C   UNL A   1      -3.956  -0.078  11.586  0.00  0.00    +0.025 C 
ATOM     14  C   UNL A   1      -4.969  -0.731   9.767  0.00  0.00    +0.027 C 
ATOM     15  C   UNL A   1      -3.882  -0.818  10.515  0.00  0.00    +0.007 C 
ATOM     16  C   UNL A   1      -4.770  -0.154   8.367  0.00  0.00    +0.003 C 
BRANCH   8  17
ATOM     17  O   UNL A   1      -6.281  -1.066   9.453  0.00  0.00    -0.354 OA
ATOM     18  C   UNL A   1      -5.904  -0.522   8.235  0.00  0.00    +0.174 C 
ENDBRANCH   8  17
ENDBRANCH   1   2
BRANCH   1  19
ATOM     19  C   UNL A   1      -8.901   3.862  10.081  0.00  0.00    +0.002 A 
ATOM     20  C   UNL A   1      -9.223   4.960  10.871  0.00  0.00    +0.051 A 
ATOM     21  C   UNL A   1     -10.216   6.022  10.540  0.00  0.00    +0.012 A 
ATOM     22  C   UNL A   1     -10.763   5.977   9.224  0.00  0.00    +0.098 A 
ATOM     23  C   UNL A   1     -10.378   4.888   8.417  0.00  0.00    +0.019 A 
ATOM     24  C   UNL A   1      -9.517   3.930   8.792  0.00  0.00    +0.055 A 
ATOM     25 CL   UNL A   1      -9.134   2.695   7.689  0.00  0.00    -0.083 Cl
BRANCH  20  26
ATOM     26  C   UNL A   1      -8.752   5.167  12.265  0.00  0.00    +0.254 C 
ATOM     27  N   UNL A   1      -7.747   5.729  12.494  0.00  0.00    -0.224 N 
ATOM     28  C   UNL A   1      -7.619   7.085  12.531  0.00  0.00    +0.237 C 
ATOM     29  C   UNL A   1      -6.377   5.116  12.746  0.00  0.00    +0.132 C 
ATOM     30  N   UNL A   1      -6.354   7.593  12.759  0.00  0.00    -0.205 NA
ATOM     31  C   UNL A   1      -5.630   6.402  13.017  0.00  0.00    +0.011 C 
ATOM     32  O   UNL A   1      -9.397   4.544  13.266  0.00  0.00    -0.270 OA
ENDBRANCH  20  26
BRANCH  22  33
ATOM     33  C   UNL A   1     -11.710   6.991   8.866  0.00  0.00    +0.477 C 
ATOM     34  N   UNL A   1     -12.806   7.028   9.138  0.00  0.00    +0.205 NA
ATOM     35  N   UNL A   1     -11.282   7.967   8.031  0.00  0.00    +0.205 NA
ENDBRANCH  22  33
ENDBRANCH   1  19
TORSDOF 5
ENDMDL
ENDMDL
