REMARK  Name = No_3314-gen_results/8p0m/2024-11-27-11-27-31/
REMARK  5 active torsions:
REMARK  status: ('A' for Active; 'I' for Inactive)
REMARK    1  A    between atoms: C_1  and  C_2
REMARK    2  A    between atoms: C_1  and  C_8
REMARK    3  A    between atoms: C_3  and  C_16
REMARK    4  A    between atoms: C_5  and  C_12
REMARK    5  A    between atoms: C_25  and  O_33
REMARK                            x       y       z     vdW  Elec       q    Type
REMARK                         _______ _______ _______ _____ _____    ______ ____
ROOT
ATOM      1  C   UNL A   1     -28.016  -0.814  28.878  0.00  0.00    +0.113 C 
ENDROOT
BRANCH   1   2
ATOM      2  C   UNL A   1     -28.660  -0.460  30.201  0.00  0.00    +0.230 C 
ATOM      3  N   UNL A   1     -28.544   0.459  30.754  0.00  0.00    -0.275 N 
ATOM      4  C   UNL A   1     -29.060   0.664  32.073  0.00  0.00    +0.094 C 
ATOM      5  O   UNL A   1     -29.632  -1.367  30.610  0.00  0.00    -0.275 OA
ATOM      6  C   UNL A   1     -28.597   1.867  32.798  0.00  0.00    +0.024 C 
ATOM      7  C   UNL A   1     -27.912   2.600  32.253  0.00  0.00    +0.031 C 
ATOM      8  C   UNL A   1     -27.314   2.526  30.924  0.00  0.00    +0.113 C 
ATOM      9  C   UNL A   1     -27.647   1.446  30.332  0.00  0.00    +0.118 C 
ATOM     10  C   UNL A   1     -28.338   2.122  29.469  0.00  0.00    -0.028 C 
ATOM     11  C   UNL A   1     -28.492   3.510  29.184  0.00  0.00    -0.033 C 
ATOM     12  C   UNL A   1     -29.760   1.700  29.221  0.00  0.00    +0.028 C 
ATOM     13  C   UNL A   1     -27.433   4.439  29.311  0.00  0.00    +0.025 C 
ATOM     14  C   UNL A   1     -26.151   3.378  30.722  0.00  0.00    +0.027 C 
ATOM     15  C   UNL A   1     -26.414   4.525  30.120  0.00  0.00    +0.007 C 
ATOM     16  C   UNL A   1     -24.788   2.761  30.414  0.00  0.00    +0.003 C 
BRANCH   8  17
ATOM     17  O   UNL A   1     -26.373   2.421  31.706  0.00  0.00    -0.354 OA
ATOM     18  C   UNL A   1     -26.440   1.651  32.857  0.00  0.00    +0.174 C 
ENDBRANCH   8  17
ENDBRANCH   1   2
BRANCH   1  19
ATOM     19  C   UNL A   1     -27.064  -0.119  28.608  0.00  0.00    +0.002 A 
ATOM     20  C   UNL A   1     -25.792  -0.430  29.076  0.00  0.00    +0.051 A 
ATOM     21  C   UNL A   1     -24.546   0.349  28.823  0.00  0.00    +0.012 A 
ATOM     22  C   UNL A   1     -24.659   1.420  27.888  0.00  0.00    +0.098 A 
ATOM     23  C   UNL A   1     -25.947   1.681  27.379  0.00  0.00    +0.019 A 
ATOM     24  C   UNL A   1     -27.044   0.974  27.687  0.00  0.00    +0.055 A 
ATOM     25 CL   UNL A   1     -28.523   1.401  26.965  0.00  0.00    -0.083 Cl
BRANCH  20  26
ATOM     26  C   UNL A   1     -25.490  -1.504  30.057  0.00  0.00    +0.254 C 
ATOM     27  N   UNL A   1     -25.448  -2.632  29.735  0.00  0.00    -0.224 N 
ATOM     28  C   UNL A   1     -24.366  -3.224  29.154  0.00  0.00    +0.237 C 
ATOM     29  C   UNL A   1     -26.560  -3.667  29.830  0.00  0.00    +0.132 C 
ATOM     30  N   UNL A   1     -24.495  -4.548  28.782  0.00  0.00    -0.205 NA
ATOM     31  C   UNL A   1     -25.776  -4.850  29.308  0.00  0.00    +0.011 C 
ATOM     32  O   UNL A   1     -25.442  -1.194  31.364  0.00  0.00    -0.270 OA
ENDBRANCH  20  26
BRANCH  22  33
ATOM     33  C   UNL A   1     -23.478   2.182  27.609  0.00  0.00    +0.477 C 
ATOM     34  N   UNL A   1     -22.505   1.801  27.178  0.00  0.00    +0.205 NA
ATOM     35  N   UNL A   1     -23.480   3.483  27.986  0.00  0.00    +0.205 NA
ENDBRANCH  22  33
ENDBRANCH   1  19
TORSDOF 5
