MODEL 3315
MODEL 1
REMARK VINA RESULT:    -4.372      0.000      0.000
REMARK INTER + INTRA:          -4.372
REMARK INTER:                  -4.372
REMARK INTRA:                   0.000
REMARK UNBOUND:                 0.000
REMARK  Name = No_3315-gen_results/8p0m/2024-11-27-11-27-31/
REMARK  0 active torsions:
REMARK  status: ('A' for Active; 'I' for Inactive)
REMARK                            x       y       z     vdW  Elec       q    Type
REMARK                         _______ _______ _______ _____ _____    ______ ____
ROOT
ATOM      1  C   UNL A   1     -25.343  -2.599  29.793  0.00  0.00    +0.011 A 
ATOM      2  C   UNL A   1     -24.307  -2.906  29.250  0.00  0.00    +0.058 A 
ATOM      3  C   UNL A   1     -24.020  -4.160  28.819  0.00  0.00    +0.011 A 
ATOM      4  C   UNL A   1     -24.982  -5.170  29.012  0.00  0.00    +0.001 A 
ATOM      5  C   UNL A   1     -26.408  -3.558  29.937  0.00  0.00    +0.001 A 
ATOM      6  C   UNL A   1     -26.159  -4.839  29.546  0.00  0.00    +0.000 A 
ATOM      7 CL   UNL A   1     -23.057  -1.730  28.954  0.00  0.00    -0.082 Cl
ENDROOT
TORSDOF 0
ENDMDL
ENDMDL
