MODEL 3316
MODEL 1
REMARK VINA RESULT:    -7.736      0.000      0.000
REMARK INTER + INTRA:         -10.832
REMARK INTER:                  -9.998
REMARK INTRA:                  -0.834
REMARK UNBOUND:                -0.834
REMARK  Name = No_3316-gen_results/8p0m/2024-11-27-11-27-31/
REMARK  5 active torsions:
REMARK  status: ('A' for Active; 'I' for Inactive)
REMARK    1  A    between atoms: C_2  and  C_17
REMARK    2  A    between atoms: C_3  and  O_7
REMARK    3  A    between atoms: C_6  and  C_20
REMARK    4  A    between atoms: O_7  and  C_8
REMARK    5  A    between atoms: C_12  and  C_14
REMARK                            x       y       z     vdW  Elec       q    Type
REMARK                         _______ _______ _______ _____ _____    ______ ____
ROOT
ATOM      1  C   UNL A   1     -10.018   1.282  34.457  0.00  0.00    +0.044 A 
ATOM      2  C   UNL A   1     -10.948   1.283  34.953  0.00  0.00    +0.083 A 
ATOM      3  C   UNL A   1      -8.981   0.528  35.159  0.00  0.00    +0.145 A 
ATOM      4  C   UNL A   1      -9.227  -0.126  36.342  0.00  0.00    +0.037 A 
ATOM      5  C   UNL A   1     -11.488   0.694  36.178  0.00  0.00    +0.007 A 
ATOM      6  C   UNL A   1     -10.491  -0.039  36.866  0.00  0.00    +0.003 A 
ENDROOT
BRANCH   6   7
ATOM      7  C   UNL A   1     -10.865  -0.698  38.157  0.00  0.00    +0.000 A 
ATOM      8  C   UNL A   1     -10.690  -0.435  39.202  0.00  0.00    +0.000 A 
ATOM      9  C   UNL A   1     -11.068  -1.170  40.388  0.00  0.00    +0.000 A 
ATOM     10  C   UNL A   1     -11.783  -1.856  37.969  0.00  0.00    +0.000 A 
ATOM     11  C   UNL A   1     -12.195  -2.692  38.963  0.00  0.00    +0.000 A 
ATOM     12  C   UNL A   1     -11.843  -2.310  40.238  0.00  0.00    +0.000 A 
ENDBRANCH   6   7
BRANCH   2  13
ATOM     13  C   UNL A   1     -12.190   2.070  34.221  0.00  0.00    +0.388 C 
ATOM     14  O   UNL A   1     -12.541   2.965  34.793  0.00  0.00    -0.241 OA
ATOM     15  O   UNL A   1     -12.646   1.629  33.071  0.00  0.00    -0.241 OA
ENDBRANCH   2  13
BRANCH   3  16
ATOM     16  O   UNL A   1      -7.722   0.396  34.614  0.00  0.00    -0.454 OA
BRANCH  16  17
ATOM     17  C   UNL A   1      -6.840  -0.436  35.199  0.00  0.00    +0.145 A 
ATOM     18  C   UNL A   1      -6.893  -1.807  34.703  0.00  0.00    +0.037 A 
ATOM     19  C   UNL A   1      -5.752  -2.190  33.977  0.00  0.00    +0.003 A 
ATOM     20  C   UNL A   1      -4.481  -1.857  34.506  0.00  0.00    +0.007 A 
ATOM     21  C   UNL A   1      -4.453  -0.696  35.344  0.00  0.00    +0.083 A 
ATOM     22  C   UNL A   1      -5.644   0.085  35.699  0.00  0.00    +0.044 A 
BRANCH  21  23
ATOM     23  C   UNL A   1      -3.175  -0.168  35.873  0.00  0.00    +0.388 C 
ATOM     24  O   UNL A   1      -2.764   0.832  35.619  0.00  0.00    -0.241 OA
ATOM     25  O   UNL A   1      -2.650  -0.940  36.886  0.00  0.00    -0.241 OA
ENDBRANCH  21  23
ENDBRANCH  16  17
ENDBRANCH   3  16
TORSDOF 5
ENDMDL
ENDMDL
