MODEL 3318
MODEL 1
REMARK VINA RESULT:    -8.438      0.000      0.000
REMARK INTER + INTRA:         -10.856
REMARK INTER:                  -9.917
REMARK INTRA:                  -0.938
REMARK UNBOUND:                -0.938
REMARK  Name = No_3318-gen_results/8p0m/2024-11-27-11-27-31/
REMARK  3 active torsions:
REMARK  status: ('A' for Active; 'I' for Inactive)
REMARK    1  A    between atoms: C_2  and  C_20
REMARK    2  A    between atoms: C_6  and  C_8
REMARK    3  A    between atoms: C_11  and  C_12
REMARK                            x       y       z     vdW  Elec       q    Type
REMARK                         _______ _______ _______ _____ _____    ______ ____
ROOT
ATOM      1  C   UNL A   1     -25.076  -0.482  27.831  0.00  0.00    +0.007 A 
ATOM      2  C   UNL A   1     -24.445  -1.123  28.639  0.00  0.00    +0.028 A 
ATOM      3  C   UNL A   1     -23.391  -0.600  29.386  0.00  0.00    +0.140 A 
ATOM      4  C   UNL A   1     -22.973   0.770  29.154  0.00  0.00    +0.030 A 
ATOM      5  C   UNL A   1     -23.714   1.466  28.200  0.00  0.00    +0.007 A 
ATOM      6  C   UNL A   1     -24.692   0.888  27.531  0.00  0.00    +0.056 A 
ATOM      7  F   UNL A   1     -22.662  -1.277  30.266  0.00  0.00    -0.204 F 
ENDROOT
BRANCH   2   8
ATOM      8  C   UNL A   1     -24.794  -2.576  28.996  0.00  0.00    +0.002 A 
ATOM      9  C   UNL A   1     -23.871  -3.547  28.490  0.00  0.00    +0.000 A 
ATOM     10  C   UNL A   1     -24.187  -4.812  28.578  0.00  0.00    +0.000 A 
ATOM     11  C   UNL A   1     -25.381  -5.264  29.291  0.00  0.00    +0.000 A 
ATOM     12  C   UNL A   1     -26.282  -4.298  29.765  0.00  0.00    +0.000 A 
ATOM     13  C   UNL A   1     -26.015  -2.978  29.561  0.00  0.00    +0.000 A 
ENDBRANCH   2   8
BRANCH   6  14
ATOM     14  C   UNL A   1     -25.458   1.550  26.416  0.00  0.00    +0.272 C 
ATOM     15  O   UNL A   1     -25.084   2.569  25.946  0.00  0.00    -0.268 OA
ATOM     16  N   UNL A   1     -26.512   0.969  25.930  0.00  0.00    -0.137 NA
ATOM     17  C   UNL A   1     -27.291   1.546  24.860  0.00  0.00    +0.272 C 
ATOM     18  O   UNL A   1     -27.143   2.698  24.655  0.00  0.00    -0.268 OA
BRANCH  17  19
ATOM     19  C   UNL A   1     -28.148   0.786  24.336  0.00  0.00    +0.056 A 
ATOM     20  C   UNL A   1     -28.093  -0.393  24.148  0.00  0.00    +0.005 A 
ATOM     21  C   UNL A   1     -29.114  -1.252  23.594  0.00  0.00    +0.001 A 
ATOM     22  C   UNL A   1     -30.280  -0.601  23.160  0.00  0.00    +0.011 A 
ATOM     23  C   UNL A   1     -30.425   0.737  23.283  0.00  0.00    +0.058 A 
ATOM     24  C   UNL A   1     -29.460   1.462  23.883  0.00  0.00    +0.016 A 
ATOM     25 CL   UNL A   1     -31.900   1.502  22.824  0.00  0.00    -0.082 Cl
ENDBRANCH  17  19
ENDBRANCH   6  14
TORSDOF 3
ENDMDL
ENDMDL
