REMARK  Name = outputs/IAG933/test6/raw/output_3319_IAG933_linker_design_.xyz
REMARK  9 active torsions:
REMARK  status: ('A' for Active; 'I' for Inactive)
REMARK    1  A    between atoms: C_1  and  C_2
REMARK    2  A    between atoms: C_1  and  C_8
REMARK    3  A    between atoms: C_1  and  O_32
REMARK    4  A    between atoms: C_13  and  C_30
REMARK    5  A    between atoms: C_14  and  C_15
REMARK    6  A    between atoms: C_21  and  O_22
REMARK    7  A    between atoms: O_22  and  C_23
REMARK    8  A    between atoms: C_23  and  C_24
REMARK    9  A    between atoms: C_31  and  O_32
REMARK                            x       y       z     vdW  Elec       q    Type
REMARK                         _______ _______ _______ _____ _____    ______ ____
ROOT
ATOM      1  O   UNL A   1     -22.730   2.945  24.933  0.00  0.00    -0.232 OA
ATOM      2  C   UNL A   1     -23.050   2.344  25.736  0.00  0.00    +0.130 C 
ATOM      3  C   UNL A   1     -24.482   1.370  27.223  0.00  0.00    +0.171 C 
ATOM      4  C   UNL A   1     -22.666  -0.245  29.220  0.00  0.00    +0.148 C 
ATOM      5  O   UNL A   1     -21.065   1.475  27.456  0.00  0.00    -0.349 OA
ATOM      6  C   UNL A   1     -22.826   1.123  28.860  0.00  0.00    +0.175 C 
ATOM      7  C   UNL A   1     -23.360   1.540  26.836  0.00  0.00    +0.091 C 
ATOM      8  C   UNL A   1     -22.514   1.347  27.531  0.00  0.00    +0.175 C 
ATOM      9  C   UNL A   1     -21.214  -0.601  28.974  0.00  0.00    +0.064 C 
ATOM     10  C   UNL A   1     -20.429   0.502  28.375  0.00  0.00    +0.145 C 
ATOM     11  O   UNL A   1     -24.236   1.107  28.649  0.00  0.00    -0.344 OA
ENDROOT
BRANCH   3  12
ATOM     12  C   UNL A   1     -25.688   1.614  26.461  0.00  0.00    +0.047 C 
ATOM     13  C   UNL A   1     -26.250   2.920  26.395  0.00  0.00    +0.075 C 
ATOM     14  C   UNL A   1     -27.438   3.091  25.645  0.00  0.00    +0.106 C 
ATOM     15  N   UNL A   1     -28.075   2.089  25.003  0.00  0.00    -0.208 NA
ATOM     16  C   UNL A   1     -27.543   0.849  25.079  0.00  0.00    +0.253 C 
ATOM     17  C   UNL A   1     -26.354   0.576  25.777  0.00  0.00    +0.192 C 
ATOM     18  F   UNL A   1     -25.860  -0.681  25.795  0.00  0.00    -0.200 F 
BRANCH  13  19
ATOM     19  C   UNL A   1     -25.642   4.093  27.123  0.00  0.00    +0.266 C 
ATOM     20  N   UNL A   1     -25.614   5.252  26.449  0.00  0.00    -0.200 NA
ATOM     21  C   UNL A   1     -25.026   6.479  26.963  0.00  0.00    +0.139 C 
ATOM     22  O   UNL A   1     -25.143   3.966  28.243  0.00  0.00    -0.268 OA
ENDBRANCH  13  19
BRANCH  16  23
ATOM     23  O   UNL A   1     -28.193  -0.208  24.477  0.00  0.00    -0.456 OA
BRANCH  23  24
ATOM     24  C   UNL A   1     -29.460   0.005  23.866  0.00  0.00    +0.243 C 
BRANCH  24  25
ATOM     25  C   UNL A   1     -30.065  -1.377  23.573  0.00  0.00    +0.229 C 
ATOM     26  O   UNL A   1     -30.729  -1.878  24.721  0.00  0.00    -0.216 OA
ENDBRANCH  24  25
ENDBRANCH  23  24
ENDBRANCH  16  23
ENDBRANCH   3  12
BRANCH   4  27
ATOM     27  O   UNL A   1     -23.510  -0.579  30.192  0.00  0.00    -0.350 OA
BRANCH  27  28
ATOM     28  C   UNL A   1     -24.855  -1.012  30.143  0.00  0.00    +0.153 C 
BRANCH  28  29
ATOM     29  C   UNL A   1     -24.973  -2.505  29.788  0.00  0.00    +0.006 C 
ATOM     30  C   UNL A   1     -23.906  -3.173  29.146  0.00  0.00    -0.002 C 
ATOM     31  C   UNL A   1     -23.989  -4.549  28.853  0.00  0.00    -0.000 C 
ATOM     32  C   UNL A   1     -25.137  -5.280  29.205  0.00  0.00    -0.000 C 
ATOM     33  C   UNL A   1     -26.232  -4.611  29.784  0.00  0.00    -0.000 C 
ATOM     34  C   UNL A   1     -26.155  -3.232  30.065  0.00  0.00    -0.002 C 
ENDBRANCH  28  29
BRANCH  28  35
ATOM     35  C   UNL A   1     -25.387  -0.679  31.571  0.00  0.00    +0.104 C 
ATOM     36  C   UNL A   1     -25.189   0.773  32.028  0.00  0.00    +0.022 C 
ATOM     37  C   UNL A   1     -25.336   0.684  33.544  0.00  0.00    +0.020 C 
ATOM     38  C   UNL A   1     -24.829  -0.715  33.905  0.00  0.00    +0.089 C 
ATOM     39  N   UNL A   1     -24.758  -1.481  32.646  0.00  0.00    -0.217 NA
ENDBRANCH  28  35
ENDBRANCH  27  28
ENDBRANCH   4  27
TORSDOF 9
