MODEL 3319
MODEL 1
REMARK VINA RESULT:    -5.738      0.000      0.000
REMARK INTER + INTRA:          -7.921
REMARK INTER:                  -7.415
REMARK INTRA:                  -0.507
REMARK UNBOUND:                -0.507
REMARK  Name = No_3319-gen_results/8p0m/2024-11-27-11-27-31/
REMARK  5 active torsions:
REMARK  status: ('A' for Active; 'I' for Inactive)
REMARK    1  A    between atoms: C_2  and  C_4
REMARK    2  A    between atoms: C_4  and  C_5
REMARK    3  A    between atoms: C_4  and  O_11
REMARK    4  A    between atoms: O_11  and  C_12
REMARK    5  A    between atoms: C_12  and  C_13
REMARK                            x       y       z     vdW  Elec       q    Type
REMARK                         _______ _______ _______ _____ _____    ______ ____
ROOT
ATOM      1  C   UNL A   1     -23.436  -0.913  29.209  0.00  0.00    +0.204 C 
ENDROOT
BRANCH   1   2
ATOM      2  C   UNL A   1     -23.400   0.076  28.200  0.00  0.00    +0.010 A 
ATOM      3  C   UNL A   1     -24.242   0.268  27.344  0.00  0.00    -0.002 A 
ATOM      4  C   UNL A   1     -24.132   1.298  26.305  0.00  0.00    -0.000 A 
ATOM      5  C   UNL A   1     -22.968   2.017  26.304  0.00  0.00    -0.000 A 
ATOM      6  C   UNL A   1     -21.958   1.830  27.200  0.00  0.00    -0.000 A 
ATOM      7  C   UNL A   1     -22.124   0.804  28.183  0.00  0.00    -0.002 A 
ENDBRANCH   1   2
BRANCH   1   9
ATOM      8  F   UNL A   1     -22.001  -0.783  30.908  0.00  0.00    -0.195 F 
ATOM      9  C   UNL A   1     -23.018  -0.476  30.482  0.00  0.00    +0.349 C 
ATOM     10  F   UNL A   1     -23.585   0.328  31.074  0.00  0.00    -0.195 F 
ENDBRANCH   1   9
BRANCH   1  11
ATOM     11  O   UNL A   1     -23.366  -2.091  28.909  0.00  0.00    -0.337 OA
BRANCH  11  12
ATOM     12  C   UNL A   1     -24.140  -2.901  29.668  0.00  0.00    +0.231 C 
BRANCH  12  13
ATOM     13  C   UNL A   1     -24.451  -4.073  29.049  0.00  0.00    +0.291 C 
ATOM     14  O   UNL A   1     -23.593  -4.609  28.376  0.00  0.00    -0.269 OA
ATOM     15  N   UNL A   1     -25.514  -4.774  29.423  0.00  0.00    -0.086 NA
ENDBRANCH  12  13
ENDBRANCH  11  12
ENDBRANCH   1  11
TORSDOF 5
ENDMDL
ENDMDL
