MODEL 331
MODEL 1
REMARK VINA RESULT:    -6.090      0.000      0.000
REMARK INTER + INTRA:          -6.514
REMARK INTER:                  -6.446
REMARK INTRA:                  -0.068
REMARK UNBOUND:                -0.068
REMARK  Name = No_331-gen_results/8p0m/2024-11-27-11-27-31/
REMARK  1 active torsions:
REMARK  status: ('A' for Active; 'I' for Inactive)
REMARK    1  A    between atoms: C_5  and  C_11
REMARK                            x       y       z     vdW  Elec       q    Type
REMARK                         _______ _______ _______ _____ _____    ______ ____
ROOT
ATOM      1  C   UNL A   1     -30.809  -9.695  29.534  0.00  0.00    +0.099 A 
ATOM      2  C   UNL A   1     -30.095 -10.261  30.330  0.00  0.00    +0.019 A 
ATOM      3  C   UNL A   1     -29.195 -11.239  29.919  0.00  0.00    +0.003 A 
ATOM      4  C   UNL A   1     -28.273 -12.012  30.799  0.00  0.00    +0.005 A 
ATOM      5  C   UNL A   1     -28.210 -11.591  32.160  0.00  0.00    +0.057 A 
ATOM      6  C   UNL A   1     -29.088 -10.557  32.542  0.00  0.00    +0.005 A 
ATOM      7  C   UNL A   1     -29.936  -9.933  31.712  0.00  0.00    +0.002 A 
ATOM      8  N   UNL A   1     -31.012 -10.226  28.237  0.00  0.00    -0.242 NA
ATOM      9  C   UNL A   1     -30.087 -11.114  27.717  0.00  0.00    +0.099 A 
ATOM     10  C   UNL A   1     -29.184 -11.745  28.555  0.00  0.00    +0.021 A 
ENDROOT
BRANCH   5  11
ATOM     11  C   UNL A   1     -27.284 -12.276  33.065  0.00  0.00    +0.284 C 
ATOM     12  N   UNL A   1     -27.429 -12.117  34.348  0.00  0.00    -0.084 NA
ATOM     13  O   UNL A   1     -26.342 -12.948  32.551  0.00  0.00    -0.267 OA
ENDBRANCH   5  11
TORSDOF 1
ENDMDL
ENDMDL
