MODEL 3320
MODEL 1
REMARK VINA RESULT:    -6.984      0.000      0.000
REMARK INTER + INTRA:          -8.426
REMARK INTER:                  -7.801
REMARK INTRA:                  -0.625
REMARK UNBOUND:                -0.625
REMARK  Name = No_3320-gen_results/8p0m/2024-11-27-11-27-31/
REMARK  2 active torsions:
REMARK  status: ('A' for Active; 'I' for Inactive)
REMARK    1  A    between atoms: C_1  and  C_2
REMARK    2  A    between atoms: C_7  and  C_13
REMARK                            x       y       z     vdW  Elec       q    Type
REMARK                         _______ _______ _______ _____ _____    ______ ____
ROOT
ATOM      1  C   UNL A   1     -23.499  -1.787  28.675  0.00  0.00    +0.001 A 
ATOM      2  C   UNL A   1     -22.435  -1.052  29.379  0.00  0.00    +0.000 A 
ATOM      3  C   UNL A   1     -21.649   0.061  28.870  0.00  0.00    -0.000 A 
ATOM      4  C   UNL A   1     -22.245   1.036  28.152  0.00  0.00    -0.004 A 
ATOM      5  C   UNL A   1     -23.398   0.628  27.427  0.00  0.00    -0.023 A 
ATOM      6  C   UNL A   1     -24.205  -0.434  28.076  0.00  0.00    -0.004 A 
ENDROOT
BRANCH   1   7
ATOM      7  C   UNL A   1     -24.042  -2.489  29.242  0.00  0.00    +0.019 A 
ATOM      8  C   UNL A   1     -25.523  -2.274  29.562  0.00  0.00    +0.003 A 
ATOM      9  C   UNL A   1     -26.389  -3.282  30.010  0.00  0.00    +0.021 A 
ATOM     10  C   UNL A   1     -24.185  -3.942  28.784  0.00  0.00    +0.099 A 
ATOM     11  N   UNL A   1     -24.955  -4.976  29.314  0.00  0.00    -0.242 NA
ATOM     12  C   UNL A   1     -26.232  -4.577  29.553  0.00  0.00    +0.099 A 
ENDBRANCH   1   7
BRANCH   5  13
ATOM     13  C   UNL A   1     -24.011   1.544  26.523  0.00  0.00    +0.019 C 
ATOM     14  C   UNL A   1     -24.831   2.527  27.108  0.00  0.00    +0.004 C 
ATOM     15  C   UNL A   1     -22.957   2.263  25.705  0.00  0.00    +0.004 C 
ATOM     16  C   UNL A   1     -24.924   0.723  25.504  0.00  0.00    +0.004 C 
ENDBRANCH   5  13
TORSDOF 2
ENDMDL
ENDMDL
