MODEL 3321
MODEL 1
REMARK VINA RESULT:    -7.480      0.000      0.000
REMARK INTER + INTRA:          -8.005
REMARK INTER:                  -7.918
REMARK INTRA:                  -0.087
REMARK UNBOUND:                -0.087
REMARK  Name = No_3321-gen_results/8p0m/2024-11-27-11-27-31/
REMARK  1 active torsions:
REMARK  status: ('A' for Active; 'I' for Inactive)
REMARK    1  A    between atoms: C_6  and  C_8
REMARK                            x       y       z     vdW  Elec       q    Type
REMARK                         _______ _______ _______ _____ _____    ______ ____
ROOT
ATOM      1  C   UNL A   1     -24.582  -2.858  28.916  0.00  0.00    -0.004 A 
ATOM      2  C   UNL A   1     -24.242  -3.844  28.738  0.00  0.00    -0.000 A 
ATOM      3  C   UNL A   1     -24.968  -5.132  29.059  0.00  0.00    +0.000 A 
ATOM      4  C   UNL A   1     -26.206  -4.969  29.686  0.00  0.00    +0.004 A 
ATOM      5  C   UNL A   1     -26.653  -3.715  29.964  0.00  0.00    +0.051 A 
ATOM      6  C   UNL A   1     -25.898  -2.611  29.655  0.00  0.00    -0.016 A 
ATOM      7  C   UNL A   1     -27.947  -3.499  30.670  0.00  0.00    +0.265 C 
ATOM      8  O   UNL A   1     -28.612  -4.206  31.234  0.00  0.00    -0.268 OA
ATOM      9  N   UNL A   1     -28.359  -2.076  30.672  0.00  0.00    -0.201 NA
ATOM     10  C   UNL A   1     -27.900  -1.092  30.018  0.00  0.00    +0.120 C 
ATOM     11  C   UNL A   1     -26.454  -1.259  29.632  0.00  0.00    +0.050 C 
ENDROOT
BRANCH   1  17
ATOM     12  C   UNL A   1     -23.885   0.369  27.392  0.00  0.00    +0.011 A 
ATOM     13  C   UNL A   1     -24.322  -0.547  27.676  0.00  0.00    +0.001 A 
ATOM     14  C   UNL A   1     -22.666   0.735  28.004  0.00  0.00    +0.058 A 
ATOM     15  C   UNL A   1     -22.058  -0.060  28.956  0.00  0.00    +0.011 A 
ATOM     16  C   UNL A   1     -22.697  -1.250  29.265  0.00  0.00    +0.001 A 
ATOM     17  C   UNL A   1     -23.867  -1.583  28.615  0.00  0.00    -0.000 A 
ATOM     18 CL   UNL A   1     -21.829   2.192  27.607  0.00  0.00    -0.082 Cl
ENDBRANCH   1  17
TORSDOF 1
ENDMDL
ENDMDL
