MODEL 3322
MODEL 1
REMARK VINA RESULT:    -8.252      0.000      0.000
REMARK INTER + INTRA:         -10.337
REMARK INTER:                  -9.700
REMARK INTRA:                  -0.637
REMARK UNBOUND:                -0.637
REMARK  Name = No_3322-gen_results/8p0m/2024-11-27-11-27-31/
REMARK  3 active torsions:
REMARK  status: ('A' for Active; 'I' for Inactive)
REMARK    1  A    between atoms: C_1  and  C_2
REMARK    2  A    between atoms: C_5  and  C_11
REMARK    3  A    between atoms: N_8  and  C_10
REMARK                            x       y       z     vdW  Elec       q    Type
REMARK                         _______ _______ _______ _____ _____    ______ ____
ROOT
ATOM      1  C   UNL A   1     -10.148   1.756  34.167  0.00  0.00    +0.075 A 
ATOM      2  C   UNL A   1     -11.062   1.149  33.272  0.00  0.00    +0.032 A 
ATOM      3  C   UNL A   1     -12.368   1.323  33.589  0.00  0.00    +0.063 A 
ATOM      4  C   UNL A   1     -12.722   1.387  34.684  0.00  0.00    -0.004 A 
ATOM      5  C   UNL A   1     -11.847   1.853  35.785  0.00  0.00    -0.005 A 
ATOM      6  C   UNL A   1     -10.282   2.753  34.964  0.00  0.00    +0.014 A 
ATOM      7  C   UNL A   1     -12.102   2.466  37.046  0.00  0.00    +0.095 C 
ATOM      8  N   UNL A   1     -12.818   3.431  37.161  0.00  0.00    -0.305 N 
ATOM      9  C   UNL A   1     -13.678   3.867  36.706  0.00  0.00    +0.057 C 
ATOM     10  C   UNL A   1     -14.378   3.224  35.824  0.00  0.00    -0.004 C 
ATOM     11  C   UNL A   1     -13.822   2.533  34.604  0.00  0.00    +0.068 C 
ATOM     12  C   UNL A   1     -14.320   2.786  33.385  0.00  0.00    +0.121 C 
ATOM     13  N   UNL A   1     -13.315   1.954  32.629  0.00  0.00    -0.237 NA
ATOM     14  C   UNL A   1     -12.228   4.168  38.527  0.00  0.00    +0.091 C 
ATOM     15  C   UNL A   1     -12.047   3.509  39.496  0.00  0.00    +0.021 C 
ATOM     16  C   UNL A   1     -11.060   1.710  37.933  0.00  0.00    +0.024 C 
ATOM     17  C   UNL A   1     -11.060   2.297  39.278  0.00  0.00    +0.004 C 
ENDROOT
BRANCH   1  19
ATOM     18  C   UNL A   1      -8.291   0.295  35.193  0.00  0.00    +0.269 C 
ATOM     19  N   UNL A   1      -8.843   1.133  34.193  0.00  0.00    -0.175 NA
ATOM     20  O   UNL A   1      -9.221  -0.295  35.864  0.00  0.00    -0.268 OA
BRANCH  18  21
ATOM     21  C   UNL A   1      -7.235  -0.269  35.024  0.00  0.00    +0.055 A 
ATOM     22  C   UNL A   1      -6.047   0.269  35.508  0.00  0.00    +0.005 A 
ATOM     23  C   UNL A   1      -4.687  -0.321  35.356  0.00  0.00    +0.007 A 
ATOM     24  C   UNL A   1      -4.634  -1.631  34.796  0.00  0.00    +0.080 A 
ATOM     25  C   UNL A   1      -5.857  -2.184  34.366  0.00  0.00    +0.007 A 
ATOM     26  C   UNL A   1      -7.048  -1.579  34.483  0.00  0.00    +0.005 A 
BRANCH  24  27
ATOM     27  C   UNL A   1      -3.325  -2.228  34.668  0.00  0.00    +0.388 C 
ATOM     28  O   UNL A   1      -2.739  -2.405  33.561  0.00  0.00    -0.241 OA
ATOM     29  O   UNL A   1      -2.636  -2.326  35.807  0.00  0.00    -0.241 OA
ENDBRANCH  24  27
ENDBRANCH  18  21
ENDBRANCH   1  19
TORSDOF 3
ENDMDL
ENDMDL
