MODEL 3323
MODEL 1
REMARK VINA RESULT:    -6.580      0.000      0.000
REMARK INTER + INTRA:          -9.070
REMARK INTER:                  -8.119
REMARK INTRA:                  -0.951
REMARK UNBOUND:                -0.951
REMARK  Name = No_3323-gen_results/8p0m/2024-11-27-11-27-31/
REMARK  4 active torsions:
REMARK  status: ('A' for Active; 'I' for Inactive)
REMARK    1  A    between atoms: C_2  and  C_7
REMARK    2  A    between atoms: C_4  and  O_15
REMARK    3  A    between atoms: O_15  and  C_16
REMARK    4  A    between atoms: C_17  and  C_18
REMARK                            x       y       z     vdW  Elec       q    Type
REMARK                         _______ _______ _______ _____ _____    ______ ____
ROOT
ATOM      1  C   UNL A   1      -6.240   1.008  12.878  0.00  0.00    +0.000 A 
ATOM      2  C   UNL A   1      -6.955   0.527  12.030  0.00  0.00    +0.003 A 
ATOM      3  C   UNL A   1      -6.508  -0.260  11.018  0.00  0.00    +0.037 A 
ATOM      4  C   UNL A   1      -5.130  -0.537  10.946  0.00  0.00    +0.145 A 
ATOM      5  C   UNL A   1      -4.835   0.689  12.921  0.00  0.00    +0.003 A 
ATOM      6  C   UNL A   1      -4.332  -0.074  11.910  0.00  0.00    +0.037 A 
ENDROOT
BRANCH   2   7
ATOM      7  C   UNL A   1      -8.461   0.689  11.811  0.00  0.00    +0.003 A 
ATOM      8  C   UNL A   1      -8.860   1.043  10.544  0.00  0.00    +0.003 A 
ATOM      9  C   UNL A   1      -9.246   1.379  12.820  0.00  0.00    +0.032 A 
ATOM     10  C   UNL A   1      -9.386   2.253  10.113  0.00  0.00    +0.032 A 
ATOM     11  C   UNL A   1     -10.265   2.932  11.055  0.00  0.00    +0.167 A 
ATOM     12  C   UNL A   1      -9.992   2.562  12.450  0.00  0.00    +0.167 A 
ATOM     13  F   UNL A   1     -10.851   4.019  10.737  0.00  0.00    -0.202 F 
ATOM     14  F   UNL A   1     -10.611   3.298  13.346  0.00  0.00    -0.202 F 
ENDBRANCH   2   7
BRANCH   4  15
ATOM     15  O   UNL A   1      -4.618  -1.329   9.903  0.00  0.00    -0.451 OA
BRANCH  15  16
ATOM     16  C   UNL A   1      -4.000  -1.163   8.931  0.00  0.00    +0.181 A 
ATOM     17  C   UNL A   1      -4.322  -0.806   7.785  0.00  0.00    +0.060 A 
ATOM     18  C   UNL A   1      -2.793  -2.046   8.984  0.00  0.00    +0.204 A 
ATOM     19  N   UNL A   1      -2.467  -2.781   9.852  0.00  0.00    -0.104 NA
ATOM     20  N   UNL A   1      -1.832  -1.627   8.009  0.00  0.00    -0.223 NA
ATOM     21  C   UNL A   1      -2.097  -0.995   6.855  0.00  0.00    +0.101 A 
ATOM     22  C   UNL A   1      -3.428  -0.486   6.685  0.00  0.00    +0.025 A 
BRANCH  17  23
ATOM     23  C   UNL A   1      -5.712  -0.965   7.469  0.00  0.00    +0.125 C 
ATOM     24  N   UNL A   1      -6.576   0.067   7.622  0.00  0.00    -0.146 NA
ENDBRANCH  17  23
ENDBRANCH  15  16
ENDBRANCH   4  15
TORSDOF 4
ENDMDL
ENDMDL
