MODEL 3324
MODEL 1
REMARK VINA RESULT:    -6.632      0.000      0.000
REMARK INTER + INTRA:          -7.824
REMARK INTER:                  -7.408
REMARK INTRA:                  -0.416
REMARK UNBOUND:                -0.416
REMARK  Name = No_3324-gen_results/8p0m/2024-11-27-11-27-31/
REMARK  2 active torsions:
REMARK  status: ('A' for Active; 'I' for Inactive)
REMARK    1  A    between atoms: C_3  and  C_4
REMARK    2  A    between atoms: C_6  and  C_13
REMARK                            x       y       z     vdW  Elec       q    Type
REMARK                         _______ _______ _______ _____ _____    ______ ____
ROOT
ATOM      1  C   UNL A   1     -29.367 -10.195  32.513  0.00  0.00    +0.007 A 
ATOM      2  C   UNL A   1     -29.779 -10.158  31.377  0.00  0.00    +0.000 A 
ATOM      3  C   UNL A   1     -29.340 -11.070  30.424  0.00  0.00    +0.000 A 
ATOM      4  C   UNL A   1     -28.251 -11.087  32.865  0.00  0.00    +0.080 A 
ATOM      5  C   UNL A   1     -27.812 -12.064  32.005  0.00  0.00    +0.007 A 
ATOM      6  C   UNL A   1     -28.306 -12.086  30.690  0.00  0.00    +0.000 A 
ENDROOT
BRANCH   3   7
ATOM      7  C   UNL A   1     -29.762 -11.122  28.994  0.00  0.00    +0.000 A 
ATOM      8  C   UNL A   1     -30.651 -10.190  28.354  0.00  0.00    +0.000 A 
ATOM      9  C   UNL A   1     -30.892 -10.320  27.004  0.00  0.00    +0.000 A 
ATOM     10  C   UNL A   1     -30.250 -11.120  26.117  0.00  0.00    +0.000 A 
ATOM     11  C   UNL A   1     -29.070 -11.995  28.059  0.00  0.00    +0.000 A 
ATOM     12  C   UNL A   1     -29.343 -11.978  26.680  0.00  0.00    +0.000 A 
ENDBRANCH   3   7
BRANCH   4  13
ATOM     13  C   UNL A   1     -27.647 -11.110  34.231  0.00  0.00    +0.388 C 
ATOM     14  O   UNL A   1     -27.255 -10.202  34.706  0.00  0.00    -0.241 OA
ATOM     15  O   UNL A   1     -27.228 -12.308  34.621  0.00  0.00    -0.241 OA
ENDBRANCH   4  13
TORSDOF 2
ENDMDL
ENDMDL
