MODEL 3325
MODEL 1
REMARK VINA RESULT:    -6.003      0.000      0.000
REMARK INTER + INTRA:          -6.471
REMARK INTER:                  -6.354
REMARK INTRA:                  -0.117
REMARK UNBOUND:                -0.117
REMARK  Name = No_3325-gen_results/8p0m/2024-11-27-11-27-31/
REMARK  1 active torsions:
REMARK  status: ('A' for Active; 'I' for Inactive)
REMARK    1  A    between atoms: C_9  and  C_11
REMARK                            x       y       z     vdW  Elec       q    Type
REMARK                         _______ _______ _______ _____ _____    ______ ____
ROOT
ATOM      1  C   UNL A   1     -22.207   1.636  27.298  0.00  0.00    -0.000 A 
ATOM      2  C   UNL A   1     -22.803   0.770  27.895  0.00  0.00    -0.000 A 
ATOM      3  C   UNL A   1     -24.036   0.308  27.447  0.00  0.00    -0.000 A 
ATOM      4  C   UNL A   1     -24.663   0.879  26.283  0.00  0.00    -0.000 A 
ATOM      5  C   UNL A   1     -23.915   1.891  25.667  0.00  0.00    -0.000 A 
ATOM      6  C   UNL A   1     -22.761   2.304  26.141  0.00  0.00    -0.000 A 
ATOM      7  C   UNL A   1     -22.321   0.088  29.126  0.00  0.00    -0.000 A 
ATOM      8  C   UNL A   1     -22.608  -1.132  29.414  0.00  0.00    +0.001 A 
ATOM      9  C   UNL A   1     -23.937  -1.683  28.911  0.00  0.00    +0.044 A 
ATOM     10  C   UNL A   1     -24.556  -1.025  27.855  0.00  0.00    +0.001 A 
ENDROOT
BRANCH   9  11
ATOM     11  C   UNL A   1     -24.480  -2.925  29.434  0.00  0.00    +0.341 C 
ATOM     12  F   UNL A   1     -23.863  -3.940  28.950  0.00  0.00    -0.193 F 
ATOM     13  F   UNL A   1     -25.231  -3.011  30.350  0.00  0.00    -0.193 F 
ENDBRANCH   9  11
TORSDOF 1
ENDMDL
ENDMDL
