MODEL 3326
MODEL 1
REMARK VINA RESULT:    -6.486      0.000      0.000
REMARK INTER + INTRA:          -7.189
REMARK INTER:                  -6.865
REMARK INTRA:                  -0.324
REMARK UNBOUND:                -0.324
REMARK  Name = No_3326-gen_results/8p0m/2024-11-27-11-27-31/
REMARK  1 active torsions:
REMARK  status: ('A' for Active; 'I' for Inactive)
REMARK    1  A    between atoms: C_3  and  C_7
REMARK                            x       y       z     vdW  Elec       q    Type
REMARK                         _______ _______ _______ _____ _____    ______ ____
ROOT
ATOM      1  C   UNL A   1     -24.814  -5.013  28.955  0.00  0.00    +0.000 A 
ATOM      2  C   UNL A   1     -24.155  -4.048  28.646  0.00  0.00    +0.000 A 
ATOM      3  C   UNL A   1     -24.516  -2.737  28.954  0.00  0.00    +0.000 A 
ATOM      4  C   UNL A   1     -25.774  -2.492  29.631  0.00  0.00    +0.000 A 
ATOM      5  C   UNL A   1     -26.511  -3.631  29.952  0.00  0.00    +0.000 A 
ATOM      6  C   UNL A   1     -26.099  -4.837  29.611  0.00  0.00    +0.000 A 
ENDROOT
BRANCH   3   7
ATOM      7  C   UNL A   1     -23.754  -1.501  28.614  0.00  0.00    +0.000 A 
ATOM      8  C   UNL A   1     -22.598  -1.234  29.144  0.00  0.00    +0.000 A 
ATOM      9  C   UNL A   1     -21.914  -0.002  28.867  0.00  0.00    +0.000 A 
ATOM     10  C   UNL A   1     -22.463   1.005  28.152  0.00  0.00    +0.000 A 
ATOM     11  C   UNL A   1     -24.400  -0.437  27.830  0.00  0.00    +0.000 A 
ATOM     12  C   UNL A   1     -23.718   0.797  27.617  0.00  0.00    +0.000 A 
ENDBRANCH   3   7
TORSDOF 1
ENDMDL
ENDMDL
