MODEL 3327
MODEL 1
REMARK VINA RESULT:    -5.792      0.000      0.000
REMARK INTER + INTRA:          -6.275
REMARK INTER:                  -6.131
REMARK INTRA:                  -0.144
REMARK UNBOUND:                -0.144
REMARK  Name = No_3327-gen_results/8p0m/2024-11-27-11-27-31/
REMARK  1 active torsions:
REMARK  status: ('A' for Active; 'I' for Inactive)
REMARK    1  A    between atoms: C_4  and  C_9
REMARK                            x       y       z     vdW  Elec       q    Type
REMARK                         _______ _______ _______ _____ _____    ______ ____
ROOT
ATOM      1  C   UNL A   1     -23.869  -3.882  28.537  0.00  0.00    -0.004 A 
ATOM      2  C   UNL A   1     -24.252  -4.845  28.730  0.00  0.00    -0.000 A 
ATOM      3  C   UNL A   1     -24.596  -2.785  29.109  0.00  0.00    -0.022 A 
ATOM      4  C   UNL A   1     -24.047  -1.414  29.082  0.00  0.00    +0.044 C 
ATOM      5  C   UNL A   1     -24.818  -0.317  29.220  0.00  0.00    +0.009 C 
ATOM      6  C   UNL A   1     -25.559  -5.244  29.232  0.00  0.00    -0.000 A 
ATOM      7  C   UNL A   1     -26.291  -4.228  29.731  0.00  0.00    -0.005 A 
ATOM      8  C   UNL A   1     -25.808  -2.924  29.715  0.00  0.00    -0.026 A 
ATOM      9  C   UNL A   1     -26.243  -0.463  29.143  0.00  0.00    +0.005 C 
ATOM     10  C   UNL A   1     -26.716  -1.756  29.684  0.00  0.00    +0.026 C 
ENDROOT
BRANCH   4  11
ATOM     11  C   UNL A   1     -22.622  -1.175  29.094  0.00  0.00    -0.022 C 
ATOM     12  C   UNL A   1     -22.089   0.058  28.870  0.00  0.00    -0.005 C 
ENDBRANCH   4  11
TORSDOF 1
ENDMDL
ENDMDL
