MODEL 3328
MODEL 1
REMARK VINA RESULT:    -5.107      0.000      0.000
REMARK INTER + INTRA:          -5.656
REMARK INTER:                  -5.704
REMARK INTRA:                   0.048
REMARK UNBOUND:                 0.048
REMARK  Name = No_3328-gen_results/8p0m/2024-11-27-11-27-31/
REMARK  2 active torsions:
REMARK  status: ('A' for Active; 'I' for Inactive)
REMARK    1  A    between atoms: C_1  and  C_2
REMARK    2  A    between atoms: C_1  and  N_8
REMARK                            x       y       z     vdW  Elec       q    Type
REMARK                         _______ _______ _______ _____ _____    ______ ____
ROOT
ATOM      1  C   UNL A   1     -24.654  -2.452  29.091  0.00  0.00    +0.002 A 
ATOM      2  C   UNL A   1     -23.831  -3.479  28.640  0.00  0.00    -0.002 A 
ATOM      3  C   UNL A   1     -24.177  -4.929  28.596  0.00  0.00    -0.000 A 
ATOM      4  C   UNL A   1     -25.406  -5.296  29.220  0.00  0.00    -0.000 A 
ATOM      5  C   UNL A   1     -26.197  -4.245  29.724  0.00  0.00    -0.000 A 
ATOM      6  C   UNL A   1     -25.854  -2.949  29.687  0.00  0.00    -0.002 A 
ENDROOT
BRANCH   1   7
ATOM      7  C   UNL A   1     -24.281  -1.302  29.077  0.00  0.00    +0.153 C 
BRANCH   7   8
ATOM      8  N   UNL A   1     -22.912  -1.089  28.866  0.00  0.00    -0.246 NA
ATOM      9  C   UNL A   1     -22.093  -0.668  29.277  0.00  0.00    +0.200 C 
ATOM     10  N   UNL A   1     -20.756  -0.733  28.752  0.00  0.00    -0.104 NA
ENDBRANCH   7   8
ENDBRANCH   1   7
TORSDOF 2
ENDMDL
ENDMDL
