REMARK  Name = No_3329-gen_results/8p0m/2024-11-27-11-27-31/
REMARK  7 active torsions:
REMARK  status: ('A' for Active; 'I' for Inactive)
REMARK    1  A    between atoms: C_3  and  O_7
REMARK    2  A    between atoms: O_7  and  C_8
REMARK    3  A    between atoms: C_8  and  C_9
REMARK    4  A    between atoms: C_9  and  C_10
REMARK    5  A    between atoms: C_10  and  C_11
REMARK    6  A    between atoms: C_14  and  N_15
REMARK    7  A    between atoms: N_15  and  C_18
REMARK                            x       y       z     vdW  Elec       q    Type
REMARK                         _______ _______ _______ _____ _____    ______ ____
ROOT
ATOM      1  C   UNL A   1     -24.740  -0.044  27.474  0.00  0.00    +0.032 C 
ENDROOT
BRANCH   1   2
ATOM      2  C   UNL A   1     -24.116   0.297  28.721  0.00  0.00    -0.007 A 
ATOM      3  C   UNL A   1     -23.539  -0.630  29.611  0.00  0.00    -0.003 A 
ATOM      4  C   UNL A   1     -22.789  -0.230  30.709  0.00  0.00    -0.000 A 
ATOM      5  C   UNL A   1     -23.968   1.663  29.223  0.00  0.00    +0.067 A 
ATOM      6  C   UNL A   1     -22.970   1.060  31.169  0.00  0.00    +0.001 A 
ATOM      7  C   UNL A   1     -23.493   2.049  30.439  0.00  0.00    +0.016 A 
BRANCH   5   8
ATOM      8  N   UNL A   1     -24.576   2.652  28.404  0.00  0.00    -0.211 NA
BRANCH   8   9
ATOM      9  C   UNL A   1     -25.178   3.777  28.728  0.00  0.00    +0.086 C 
ATOM     10  C   UNL A   1     -25.495   4.769  27.765  0.00  0.00    +0.019 C 
ENDBRANCH   8   9
ENDBRANCH   5   8
ENDBRANCH   1   2
BRANCH   1  11
ATOM     11  C   UNL A   1     -25.229   0.728  26.610  0.00  0.00    +0.052 C 
BRANCH  11  12
ATOM     12  C   UNL A   1     -26.498   1.339  26.660  0.00  0.00    +0.206 C 
BRANCH  12  13
ATOM     13  O   UNL A   1     -27.500   0.358  26.816  0.00  0.00    -0.475 OA
BRANCH  13  16
ATOM     14  C   UNL A   1     -28.016  -0.814  28.878  0.00  0.00    +0.037 A 
ATOM     15  C   UNL A   1     -28.469  -0.785  29.829  0.00  0.00    +0.003 A 
ATOM     16  C   UNL A   1     -28.196   0.348  28.055  0.00  0.00    +0.139 A 
ATOM     17  C   UNL A   1     -29.019   1.350  28.378  0.00  0.00    +0.037 A 
ATOM     18  C   UNL A   1     -29.411   0.180  30.378  0.00  0.00    +0.000 A 
ATOM     19  C   UNL A   1     -29.606   1.250  29.619  0.00  0.00    +0.003 A 
ENDBRANCH  13  16
ENDBRANCH  12  13
ENDBRANCH  11  12
ENDBRANCH   1  11
TORSDOF 7
