MODEL 332
MODEL 1
REMARK VINA RESULT:    -5.359      0.000      0.000
REMARK INTER + INTRA:          -5.717
REMARK INTER:                  -5.672
REMARK INTRA:                  -0.045
REMARK UNBOUND:                -0.045
REMARK  Name = No_332-gen_results/8p0m/2024-11-27-11-27-31/
REMARK  1 active torsions:
REMARK  status: ('A' for Active; 'I' for Inactive)
REMARK    1  A    between atoms: C_2  and  C_5
REMARK                            x       y       z     vdW  Elec       q    Type
REMARK                         _______ _______ _______ _____ _____    ______ ____
ROOT
ATOM      1  C   UNL A   1     -10.387  -9.471  19.080  0.00  0.00    +0.007 A 
ATOM      2  C   UNL A   1      -9.750  -9.988  18.419  0.00  0.00    +0.080 A 
ATOM      3  C   UNL A   1      -9.720  -9.029  20.311  0.00  0.00    +0.000 A 
ATOM      4  C   UNL A   1      -8.483  -9.410  20.631  0.00  0.00    +0.000 A 
ATOM      5  C   UNL A   1      -7.792 -10.135  19.708  0.00  0.00    +0.000 A 
ATOM      6  C   UNL A   1      -8.420 -10.456  18.556  0.00  0.00    +0.007 A 
ENDROOT
BRANCH   2   7
ATOM      7  C   UNL A   1     -10.327 -10.494  17.026  0.00  0.00    +0.388 C 
ATOM      8  O   UNL A   1     -11.470 -10.500  16.949  0.00  0.00    -0.241 OA
ATOM      9  O   UNL A   1      -9.477 -11.007  16.166  0.00  0.00    -0.241 OA
ENDBRANCH   2   7
TORSDOF 1
ENDMDL
ENDMDL
