REMARK  Name = No_333-gen_results/8p0m/2024-11-27-11-27-31/
REMARK  3 active torsions:
REMARK  status: ('A' for Active; 'I' for Inactive)
REMARK    1  A    between atoms: N_1  and  C_2
REMARK    2  A    between atoms: C_5  and  C_6
REMARK    3  A    between atoms: C_10  and  C_11
REMARK                            x       y       z     vdW  Elec       q    Type
REMARK                         _______ _______ _______ _____ _____    ______ ____
ROOT
ATOM      1  C   UNL A   1     -26.966  -0.472  28.771  0.00  0.00    +0.074 A 
ATOM      2  C   UNL A   1     -26.842   0.739  29.234  0.00  0.00    +0.017 A 
ATOM      3  C   UNL A   1     -25.549   1.469  29.298  0.00  0.00    +0.012 A 
ATOM      4  C   UNL A   1     -24.390   0.799  28.849  0.00  0.00    +0.069 A 
ATOM      5  C   UNL A   1     -25.690  -1.156  28.342  0.00  0.00    +0.017 A 
ATOM      6  C   UNL A   1     -24.459  -0.538  28.373  0.00  0.00    +0.012 A 
ENDROOT
BRANCH   1   7
ATOM      7  N   UNL A   1     -28.054  -1.050  28.725  0.00  0.00    -0.170 NA
ATOM      8  C   UNL A   1     -29.229  -0.470  29.193  0.00  0.00    +0.349 C 
ATOM      9  O   UNL A   1     -29.300   0.720  29.617  0.00  0.00    -0.261 OA
BRANCH   8  10
ATOM     10  C   UNL A   1     -30.351  -1.223  29.225  0.00  0.00    +0.442 C 
ATOM     11  O   UNL A   1     -31.178  -1.011  28.245  0.00  0.00    -0.235 OA
ATOM     12  O   UNL A   1     -30.602  -2.161  30.056  0.00  0.00    -0.235 OA
ENDBRANCH   8  10
ENDBRANCH   1   7
BRANCH   4  13
ATOM     13  C   UNL A   1     -23.120   1.389  28.851  0.00  0.00    +0.100 C 
ATOM     14  N   UNL A   1     -22.306   1.649  28.214  0.00  0.00    -0.191 NA
ENDBRANCH   4  13
TORSDOF 3
