MODEL 3330
MODEL 1
REMARK VINA RESULT:    -5.980      0.000      0.000
REMARK INTER + INTRA:          -6.367
REMARK INTER:                  -6.330
REMARK INTRA:                  -0.037
REMARK UNBOUND:                -0.037
REMARK  Name = No_3330-gen_results/8p0m/2024-11-27-11-27-31/
REMARK  1 active torsions:
REMARK  status: ('A' for Active; 'I' for Inactive)
REMARK    1  A    between atoms: C_5  and  C_11
REMARK                            x       y       z     vdW  Elec       q    Type
REMARK                         _______ _______ _______ _____ _____    ______ ____
ROOT
ATOM      1  C   UNL A   1     -30.707  -9.730  29.682  0.00  0.00    +0.000 A 
ATOM      2  C   UNL A   1     -29.993 -10.354  30.433  0.00  0.00    +0.000 A 
ATOM      3  C   UNL A   1     -29.775 -10.046  31.765  0.00  0.00    +0.000 A 
ATOM      4  C   UNL A   1     -28.868 -10.722  32.662  0.00  0.00    +0.002 A 
ATOM      5  C   UNL A   1     -28.153 -11.450  32.285  0.00  0.00    +0.021 A 
ATOM      6  C   UNL A   1     -28.129 -12.004  30.913  0.00  0.00    +0.002 A 
ATOM      7  C   UNL A   1     -29.018 -11.372  30.080  0.00  0.00    +0.000 A 
ATOM      8  C   UNL A   1     -30.958 -10.408  28.355  0.00  0.00    +0.000 A 
ATOM      9  C   UNL A   1     -29.987 -11.248  27.781  0.00  0.00    +0.000 A 
ATOM     10  C   UNL A   1     -29.102 -11.854  28.663  0.00  0.00    +0.000 A 
ENDROOT
BRANCH   5  11
ATOM     11  C   UNL A   1     -27.131 -12.252  33.203  0.00  0.00    +0.122 C 
ATOM     12  N   UNL A   1     -27.482 -12.315  34.502  0.00  0.00    -0.146 NA
ENDBRANCH   5  11
TORSDOF 1
ENDMDL
ENDMDL
