MODEL 3331
MODEL 1
REMARK VINA RESULT:    -6.319      0.000      0.000
REMARK INTER + INTRA:          -8.277
REMARK INTER:                  -7.797
REMARK INTRA:                  -0.481
REMARK UNBOUND:                -0.481
REMARK  Name = No_3331-gen_results/8p0m/2024-11-27-11-27-31/
REMARK  4 active torsions:
REMARK  status: ('A' for Active; 'I' for Inactive)
REMARK    1  A    between atoms: C_1  and  C_2
REMARK    2  A    between atoms: C_1  and  C_8
REMARK    3  A    between atoms: C_3  and  C_15
REMARK    4  A    between atoms: C_5  and  C_11
REMARK                            x       y       z     vdW  Elec       q    Type
REMARK                         _______ _______ _______ _____ _____    ______ ____
ROOT
ATOM      1  C   UNL A   1     -23.760   1.105  27.123  0.00  0.00    -0.013 A 
ATOM      2  C   UNL A   1     -24.598   0.104  26.671  0.00  0.00    +0.068 A 
ATOM      3  C   UNL A   1     -24.876  -1.142  27.360  0.00  0.00    +0.007 A 
ATOM      4  C   UNL A   1     -24.243  -1.390  28.598  0.00  0.00    +0.071 A 
ATOM      5  C   UNL A   1     -23.377  -0.348  29.088  0.00  0.00    +0.004 A 
ATOM      6  C   UNL A   1     -23.157   0.842  28.434  0.00  0.00    -0.004 A 
ENDROOT
BRANCH   4   7
ATOM      7  C   UNL A   1     -24.428  -2.594  29.348  0.00  0.00    +0.419 C 
ATOM      8  F   UNL A   1     -24.132  -2.513  30.547  0.00  0.00    -0.166 F 
ATOM      9  F   UNL A   1     -23.711  -3.641  28.812  0.00  0.00    -0.166 F 
ATOM     10  F   UNL A   1     -25.712  -3.042  29.202  0.00  0.00    -0.166 F 
ENDBRANCH   4   7
BRANCH   2  11
ATOM     11  C   UNL A   1     -25.299   0.262  25.411  0.00  0.00    +0.418 C 
ATOM     12  F   UNL A   1     -25.979   1.245  25.323  0.00  0.00    -0.166 F 
ATOM     13  F   UNL A   1     -26.020  -0.864  25.123  0.00  0.00    -0.166 F 
ATOM     14  F   UNL A   1     -24.478   0.231  24.316  0.00  0.00    -0.166 F 
ENDBRANCH   2  11
BRANCH   1  15
ATOM     15  C   UNL A   1     -23.606   2.158  26.550  0.00  0.00    +0.099 C 
BRANCH  15  16
ATOM     16  C   UNL A   1     -22.389   2.253  25.686  0.00  0.00    +0.323 C 
ATOM     17  F   UNL A   1     -22.414   2.537  24.618  0.00  0.00    -0.198 F 
ATOM     18  F   UNL A   1     -21.226   2.015  26.351  0.00  0.00    -0.198 F 
ENDBRANCH  15  16
ENDBRANCH   1  15
TORSDOF 4
ENDMDL
ENDMDL
