MODEL 3332
MODEL 1
REMARK VINA RESULT:    -8.573      0.000      0.000
REMARK INTER + INTRA:         -10.159
REMARK INTER:                  -9.576
REMARK INTRA:                  -0.583
REMARK UNBOUND:                -0.583
REMARK  Name = No_3332-gen_results/8p0m/2024-11-27-11-27-31/
REMARK  2 active torsions:
REMARK  status: ('A' for Active; 'I' for Inactive)
REMARK    1  A    between atoms: C_3  and  C_4
REMARK    2  A    between atoms: C_4  and  C_8
REMARK                            x       y       z     vdW  Elec       q    Type
REMARK                         _______ _______ _______ _____ _____    ______ ____
ROOT
ATOM      1  C   UNL A   1     -24.129  -0.491  28.646  0.00  0.00    +0.051 C 
ATOM      2  C   UNL A   1     -23.808   0.329  27.662  0.00  0.00    -0.024 A 
ATOM      3  C   UNL A   1     -24.733   0.538  26.546  0.00  0.00    -0.004 A 
ATOM      4  C   UNL A   1     -24.331   1.466  25.522  0.00  0.00    -0.000 A 
ATOM      5  C   UNL A   1     -23.096   2.157  25.677  0.00  0.00    -0.000 A 
ATOM      6  C   UNL A   1     -22.310   2.031  26.793  0.00  0.00    -0.004 A 
ATOM      7  C   UNL A   1     -22.670   1.097  27.747  0.00  0.00    -0.020 A 
ATOM      8  C   UNL A   1     -23.390  -0.530  29.847  0.00  0.00    +0.130 C 
ATOM      9  N   UNL A   1     -22.147  -0.439  30.054  0.00  0.00    -0.273 NA
ATOM     10  C   UNL A   1     -21.237  -0.632  29.144  0.00  0.00    +0.071 C 
ATOM     11  C   UNL A   1     -21.354   0.563  28.190  0.00  0.00    +0.072 C 
ENDROOT
BRANCH   1  12
ATOM     12  C   UNL A   1     -25.239  -1.337  28.542  0.00  0.00    +0.033 C 
BRANCH  12  15
ATOM     13  C   UNL A   1     -23.966  -3.620  28.343  0.00  0.00    -0.004 A 
ATOM     14  C   UNL A   1     -24.078  -4.656  28.499  0.00  0.00    -0.000 A 
ATOM     15  C   UNL A   1     -25.082  -2.764  28.776  0.00  0.00    -0.022 A 
ATOM     16  C   UNL A   1     -25.077  -5.432  29.272  0.00  0.00    -0.000 A 
ATOM     17  C   UNL A   1     -26.164  -4.691  29.723  0.00  0.00    -0.000 A 
ATOM     18  C   UNL A   1     -26.212  -3.328  29.523  0.00  0.00    -0.004 A 
ENDBRANCH  12  15
ENDBRANCH   1  12
TORSDOF 2
ENDMDL
ENDMDL
