REMARK  Name = outputs/IAG933/test6/raw/output_3333_IAG933_linker_design_.xyz
REMARK  14 active torsions:
REMARK  status: ('A' for Active; 'I' for Inactive)
REMARK    1  A    between atoms: C_1  and  C_2
REMARK    2  A    between atoms: C_1  and  C_8
REMARK    3  A    between atoms: C_1  and  O_38
REMARK    4  A    between atoms: C_13  and  C_42
REMARK    5  A    between atoms: C_14  and  C_15
REMARK    6  A    between atoms: C_15  and  O_18
REMARK    7  A    between atoms: O_18  and  C_35
REMARK    8  A    between atoms: C_21  and  O_22
REMARK    9  A    between atoms: O_22  and  C_23
REMARK   10  A    between atoms: C_23  and  C_24
REMARK   11  A    between atoms: C_28  and  O_43
REMARK   12  A    between atoms: C_30  and  C_42
REMARK   13  A    between atoms: C_35  and  C_40
REMARK   14  A    between atoms: O_38  and  C_39
REMARK                            x       y       z     vdW  Elec       q    Type
REMARK                         _______ _______ _______ _____ _____    ______ ____
ROOT
ATOM      1  C   UNL A   1     -25.688   1.614  26.461  0.00  0.00    +0.075 C 
ATOM      2  C   UNL A   1     -26.250   2.920  26.395  0.00  0.00    +0.053 C 
ATOM      3  C   UNL A   1     -27.438   3.091  25.645  0.00  0.00    +0.102 C 
ATOM      4  N   UNL A   1     -28.075   2.089  25.003  0.00  0.00    -0.212 NA
ATOM      5  C   UNL A   1     -27.543   0.849  25.079  0.00  0.00    +0.234 C 
ATOM      6  C   UNL A   1     -26.354   0.576  25.777  0.00  0.00    +0.240 C 
ATOM      7  F   UNL A   1     -25.860  -0.681  25.795  0.00  0.00    -0.227 F 
ENDROOT
BRANCH   2   8
ATOM      8  C   UNL A   1     -25.642   4.093  27.123  0.00  0.00    +0.218 C 
ATOM      9  N   UNL A   1     -25.614   5.252  26.449  0.00  0.00    -0.236 NA
ATOM     10  C   UNL A   1     -25.026   6.479  26.963  0.00  0.00    +0.155 C 
BRANCH   8  11
ATOM     11  O   UNL A   1     -25.143   3.966  28.243  0.00  0.00    -0.457 OA
BRANCH  11  12
ATOM     12  C   UNL A   1     -25.110   4.703  29.478  0.00  0.00    +0.254 C 
BRANCH  12  19
ATOM     13  C   UNL A   1     -26.400   4.471  32.792  0.00  0.00    +0.175 C 
ATOM     14  C   UNL A   1     -26.423   4.662  35.130  0.00  0.00    +0.235 C 
ATOM     15  O   UNL A   1     -27.544   5.378  35.077  0.00  0.00    -0.464 OA
ATOM     16  C   UNL A   1     -28.145   5.726  33.907  0.00  0.00    +0.213 C 
ATOM     17  O   UNL A   1     -25.883   4.031  31.662  0.00  0.00    -0.469 OA
ATOM     18  C   UNL A   1     -25.727   4.319  33.981  0.00  0.00    +0.061 C 
ATOM     19  C   UNL A   1     -26.102   4.994  30.603  0.00  0.00    +0.253 C 
ATOM     20  O   UNL A   1     -28.285   5.013  31.541  0.00  0.00    -0.465 OA
ATOM     21  C   UNL A   1     -27.610   4.785  30.299  0.00  0.00    +0.253 C 
ATOM     22  C   UNL A   1     -27.652   5.084  32.726  0.00  0.00    +0.209 C 
ENDBRANCH  12  19
ENDBRANCH  11  12
ENDBRANCH   8  11
ENDBRANCH   2   8
BRANCH   5  23
ATOM     23  O   UNL A   1     -28.193  -0.208  24.477  0.00  0.00    -0.459 OA
BRANCH  23  24
ATOM     24  C   UNL A   1     -29.460   0.005  23.866  0.00  0.00    +0.242 C 
BRANCH  24  25
ATOM     25  C   UNL A   1     -30.065  -1.377  23.573  0.00  0.00    +0.229 C 
ATOM     26  O   UNL A   1     -30.729  -1.878  24.721  0.00  0.00    -0.216 OA
ENDBRANCH  24  25
ENDBRANCH  23  24
ENDBRANCH   5  23
BRANCH   1  27
ATOM     27  C   UNL A   1     -24.872   1.303  27.515  0.00  0.00    +0.042 C 
BRANCH  27  29
ATOM     28  C   UNL A   1     -22.354   1.288  27.713  0.00  0.00    +0.157 C 
ATOM     29  C   UNL A   1     -23.795   0.982  27.923  0.00  0.00    +0.064 C 
ATOM     30  C   UNL A   1     -23.890   0.143  28.845  0.00  0.00    +0.221 C 
ATOM     31  C   UNL A   1     -21.749   0.402  28.515  0.00  0.00    +0.252 C 
ATOM     32  N   UNL A   1     -22.640  -0.230  29.291  0.00  0.00    -0.212 NA
ATOM     33  N   UNL A   1     -20.424   0.122  28.555  0.00  0.00    -0.098 NA
BRANCH  28  35
ATOM     34  C   UNL A   1     -22.657   2.078  25.506  0.00  0.00    +0.252 C 
ATOM     35  O   UNL A   1     -21.927   2.097  26.723  0.00  0.00    -0.472 OA
ENDBRANCH  28  35
BRANCH  30  36
ATOM     36  O   UNL A   1     -25.208  -0.146  29.144  0.00  0.00    -0.458 OA
BRANCH  36  37
ATOM     37  C   UNL A   1     -24.855  -1.012  30.143  0.00  0.00    +0.205 C 
BRANCH  37  38
ATOM     38  C   UNL A   1     -24.973  -2.505  29.788  0.00  0.00    +0.019 C 
ATOM     39  C   UNL A   1     -23.906  -3.173  29.146  0.00  0.00    -0.001 C 
ATOM     40  C   UNL A   1     -23.989  -4.549  28.853  0.00  0.00    -0.000 C 
ATOM     41  C   UNL A   1     -25.137  -5.280  29.205  0.00  0.00    -0.000 C 
ATOM     42  C   UNL A   1     -26.232  -4.611  29.784  0.00  0.00    -0.000 C 
ATOM     43  C   UNL A   1     -26.155  -3.232  30.065  0.00  0.00    -0.001 C 
ENDBRANCH  37  38
BRANCH  37  44
ATOM     44  C   UNL A   1     -25.387  -0.679  31.571  0.00  0.00    +0.117 C 
ATOM     45  C   UNL A   1     -25.189   0.773  32.028  0.00  0.00    +0.023 C 
ATOM     46  C   UNL A   1     -25.336   0.684  33.544  0.00  0.00    +0.020 C 
ATOM     47  C   UNL A   1     -24.829  -0.715  33.905  0.00  0.00    +0.089 C 
ATOM     48  N   UNL A   1     -24.758  -1.481  32.646  0.00  0.00    -0.215 NA
ENDBRANCH  37  44
ENDBRANCH  36  37
ENDBRANCH  30  36
ENDBRANCH  27  29
ENDBRANCH   1  27
TORSDOF 14
