MODEL 3334
MODEL 1
REMARK VINA RESULT:    -7.265      0.000      0.000
REMARK INTER + INTRA:         -11.022
REMARK INTER:                  -9.389
REMARK INTRA:                  -1.633
REMARK UNBOUND:                -1.633
REMARK  Name = No_3334-gen_results/8p0m/2024-11-27-11-27-31/
REMARK  5 active torsions:
REMARK  status: ('A' for Active; 'I' for Inactive)
REMARK    1  A    between atoms: C_2  and  C_7
REMARK    2  A    between atoms: C_7  and  C_9
REMARK    3  A    between atoms: C_9  and  O_11
REMARK    4  A    between atoms: O_11  and  C_14
REMARK    5  A    between atoms: C_18  and  C_22
REMARK                            x       y       z     vdW  Elec       q    Type
REMARK                         _______ _______ _______ _____ _____    ______ ____
ROOT
ATOM      1  C   UNL A   1     -24.139   1.498  30.586  0.00  0.00    +0.151 A 
ATOM      2  C   UNL A   1     -24.707   1.734  31.614  0.00  0.00    +0.068 A 
ATOM      3  C   UNL A   1     -25.869   2.649  31.730  0.00  0.00    +0.154 A 
ATOM      4  C   UNL A   1     -26.360   3.106  30.494  0.00  0.00    +0.085 A 
ATOM      5  C   UNL A   1     -24.648   1.967  29.294  0.00  0.00    +0.036 A 
ATOM      6  C   UNL A   1     -25.789   2.768  29.311  0.00  0.00    +0.017 A 
ATOM      7 CL   UNL A   1     -27.792   4.091  30.539  0.00  0.00    -0.080 Cl
ATOM      8  F   UNL A   1     -26.433   2.917  32.861  0.00  0.00    -0.203 F 
ENDROOT
BRANCH   5   9
ATOM      9  C   UNL A   1     -24.295   1.492  28.014  0.00  0.00    +0.003 A 
ATOM     10  C   UNL A   1     -23.244   2.083  27.346  0.00  0.00    +0.000 A 
ATOM     11  C   UNL A   1     -23.192   2.262  26.015  0.00  0.00    +0.000 A 
ATOM     12  C   UNL A   1     -25.063   0.548  27.440  0.00  0.00    +0.000 A 
ATOM     13  C   UNL A   1     -24.996   0.483  25.997  0.00  0.00    +0.000 A 
ATOM     14  C   UNL A   1     -23.963   1.264  25.329  0.00  0.00    +0.000 A 
ENDBRANCH   5   9
BRANCH   1  15
ATOM     15  O   UNL A   1     -23.200   0.832  30.447  0.00  0.00    -0.423 OA
BRANCH  15  16
ATOM     16  C   UNL A   1     -23.058  -0.426  30.865  0.00  0.00    +0.341 C 
ATOM     17  O   UNL A   1     -23.068  -0.717  31.913  0.00  0.00    -0.248 OA
BRANCH  16  18
ATOM     18  C   UNL A   1     -22.919  -1.520  29.718  0.00  0.00    +0.201 C 
ATOM     19 CL   UNL A   1     -22.183  -1.117  28.582  0.00  0.00    -0.098 Cl
BRANCH  18  21
ATOM     20  C   UNL A   1     -23.990  -3.357  29.249  0.00  0.00    +0.029 A 
ATOM     21  C   UNL A   1     -24.196  -2.433  29.711  0.00  0.00    +0.006 A 
ATOM     22  C   UNL A   1     -25.087  -4.338  29.220  0.00  0.00    +0.167 A 
ATOM     23  C   UNL A   1     -26.391  -3.981  29.672  0.00  0.00    +0.167 A 
ATOM     24  C   UNL A   1     -25.453  -1.801  30.196  0.00  0.00    -0.000 A 
ATOM     25  C   UNL A   1     -26.492  -2.684  30.194  0.00  0.00    +0.032 A 
ATOM     26  F   UNL A   1     -24.993  -5.586  28.749  0.00  0.00    -0.202 F 
ATOM     27  F   UNL A   1     -27.360  -4.813  29.697  0.00  0.00    -0.202 F 
ENDBRANCH  18  21
ENDBRANCH  16  18
ENDBRANCH  15  16
ENDBRANCH   1  15
TORSDOF 5
ENDMDL
ENDMDL
