MODEL 3335
MODEL 1
REMARK VINA RESULT:    -6.657      0.000      0.000
REMARK INTER + INTRA:          -8.034
REMARK INTER:                  -7.436
REMARK INTRA:                  -0.598
REMARK UNBOUND:                -0.598
REMARK  Name = No_3335-gen_results/8p0m/2024-11-27-11-27-31/
REMARK  2 active torsions:
REMARK  status: ('A' for Active; 'I' for Inactive)
REMARK    1  A    between atoms: C_4  and  N_8
REMARK    2  A    between atoms: C_10  and  C_11
REMARK                            x       y       z     vdW  Elec       q    Type
REMARK                         _______ _______ _______ _____ _____    ______ ____
ROOT
ATOM      1  N   UNL A   1     -24.527   0.259  28.338  0.00  0.00    -0.166 N 
ATOM      2  C   UNL A   1     -23.914   0.891  28.849  0.00  0.00    +0.259 C 
ATOM      3  C   UNL A   1     -24.705  -0.992  29.229  0.00  0.00    +0.323 C 
ATOM      4  N   UNL A   1     -23.818  -0.498  30.323  0.00  0.00    -0.060 NA
ATOM      5  C   UNL A   1     -23.505  -1.275  31.464  0.00  0.00    +0.321 C 
ENDROOT
BRANCH   1   9
ATOM      6  C   UNL A   1     -25.905  -0.028  24.837  0.00  0.00    +0.015 A 
ATOM      7  C   UNL A   1     -26.887   0.271  25.077  0.00  0.00    +0.058 A 
ATOM      8  C   UNL A   1     -24.923  -0.019  25.987  0.00  0.00    +0.041 A 
ATOM      9  C   UNL A   1     -25.391   0.238  27.293  0.00  0.00    +0.139 A 
ATOM     10  C   UNL A   1     -27.625   0.549  26.330  0.00  0.00    +0.015 A 
ATOM     11  C   UNL A   1     -26.756   0.560  27.411  0.00  0.00    +0.041 A 
ATOM     12 CL   UNL A   1     -28.078   0.252  23.694  0.00  0.00    -0.082 Cl
ENDBRANCH   1   9
BRANCH   3  13
ATOM     13  C   UNL A   1     -24.906  -2.185  29.027  0.00  0.00    +0.082 A 
ATOM     14  C   UNL A   1     -23.957  -3.084  28.597  0.00  0.00    +0.007 A 
ATOM     15  C   UNL A   1     -24.079  -4.490  28.653  0.00  0.00    +0.000 A 
ATOM     16  C   UNL A   1     -25.281  -5.050  29.194  0.00  0.00    +0.000 A 
ATOM     17  C   UNL A   1     -26.189  -4.159  29.714  0.00  0.00    +0.000 A 
ATOM     18  C   UNL A   1     -26.093  -2.829  29.653  0.00  0.00    +0.007 A 
ENDBRANCH   3  13
TORSDOF 2
ENDMDL
ENDMDL
