MODEL 3336
MODEL 1
REMARK VINA RESULT:    -8.400      0.000      0.000
REMARK INTER + INTRA:         -13.387
REMARK INTER:                 -10.855
REMARK INTRA:                  -2.532
REMARK UNBOUND:                -2.532
REMARK  Name = No_3336-gen_results/8p0m/2024-11-27-11-27-31/
REMARK  5 active torsions:
REMARK  status: ('A' for Active; 'I' for Inactive)
REMARK    1  A    between atoms: C_4  and  C_6
REMARK    2  A    between atoms: C_5  and  C_14
REMARK    3  A    between atoms: C_12  and  C_19
REMARK    4  A    between atoms: C_19  and  C_20
REMARK    5  A    between atoms: C_21  and  C_22
REMARK                            x       y       z     vdW  Elec       q    Type
REMARK                         _______ _______ _______ _____ _____    ______ ____
ROOT
ATOM      1  C   UNL A   1     -24.382  -2.261  28.802  0.00  0.00    -0.001 A 
ATOM      2  C   UNL A   1     -23.933  -3.207  28.548  0.00  0.00    -0.000 A 
ATOM      3  C   UNL A   1     -24.438  -4.604  28.899  0.00  0.00    +0.002 A 
ATOM      4  C   UNL A   1     -25.647  -4.679  29.618  0.00  0.00    +0.029 A 
ATOM      5  C   UNL A   1     -26.308  -3.515  29.891  0.00  0.00    +0.137 A 
ATOM      6  C   UNL A   1     -25.746  -2.305  29.520  0.00  0.00    +0.010 A 
ATOM      7  F   UNL A   1     -27.403  -3.549  30.562  0.00  0.00    -0.204 F 
ENDROOT
BRANCH   1  11
ATOM      8  C   UNL A   1     -22.660   1.086  28.845  0.00  0.00    +0.011 A 
ATOM      9  C   UNL A   1     -23.034   1.477  27.940  0.00  0.00    +0.003 A 
ATOM     10  C   UNL A   1     -23.052  -0.257  29.164  0.00  0.00    +0.058 A 
ATOM     11  C   UNL A   1     -23.966  -0.936  28.465  0.00  0.00    +0.010 A 
ATOM     12  C   UNL A   1     -24.043   0.933  27.042  0.00  0.00    +0.053 A 
ATOM     13  C   UNL A   1     -24.411  -0.279  27.347  0.00  0.00    +0.003 A 
ATOM     14 CL   UNL A   1     -22.356  -0.934  30.605  0.00  0.00    -0.082 Cl
BRANCH  12  15
ATOM     15  C   UNL A   1     -24.535   1.682  25.799  0.00  0.00    +0.350 C 
ATOM     16 CL   UNL A   1     -25.422   2.940  25.900  0.00  0.00    -0.042 Cl
ATOM     17  F   UNL A   1     -25.197   0.822  24.972  0.00  0.00    -0.182 F 
ATOM     18  F   UNL A   1     -23.317   1.956  25.122  0.00  0.00    -0.182 F 
ENDBRANCH  12  15
ENDBRANCH   1  11
BRANCH   6  19
ATOM     19  C   UNL A   1     -26.505  -1.036  29.958  0.00  0.00    +0.054 C 
BRANCH  19  20
ATOM     20  C   UNL A   1     -26.629  -0.799  31.402  0.00  0.00    -0.026 C 
ATOM     21  C   UNL A   1     -25.552  -0.239  32.035  0.00  0.00    -0.026 C 
ATOM     22  C   UNL A   1     -25.257   1.267  31.656  0.00  0.00    +0.031 C 
BRANCH  21  23
ATOM     23  C   UNL A   1     -25.548  -0.213  33.466  0.00  0.00    -0.008 A 
ATOM     24  C   UNL A   1     -24.521  -0.940  34.128  0.00  0.00    -0.022 A 
ATOM     25  C   UNL A   1     -24.646  -1.103  35.502  0.00  0.00    -0.004 A 
ATOM     26  C   UNL A   1     -25.704  -0.497  36.240  0.00  0.00    -0.000 A 
ATOM     27  C   UNL A   1     -26.702   0.111  35.525  0.00  0.00    -0.000 A 
ATOM     28  C   UNL A   1     -26.651   0.265  34.180  0.00  0.00    -0.001 A 
ATOM     29  C   UNL A   1     -23.429  -1.487  33.438  0.00  0.00    +0.031 C 
ENDBRANCH  21  23
ENDBRANCH  19  20
ENDBRANCH   6  19
TORSDOF 5
ENDMDL
ENDMDL
