REMARK  Name = No_3336-gen_results/8p0m/2024-11-27-11-27-31/
REMARK  5 active torsions:
REMARK  status: ('A' for Active; 'I' for Inactive)
REMARK    1  A    between atoms: C_4  and  C_6
REMARK    2  A    between atoms: C_5  and  C_14
REMARK    3  A    between atoms: C_12  and  C_19
REMARK    4  A    between atoms: C_19  and  C_20
REMARK    5  A    between atoms: C_21  and  C_22
REMARK                            x       y       z     vdW  Elec       q    Type
REMARK                         _______ _______ _______ _____ _____    ______ ____
ROOT
ATOM      1  C   UNL A   1     -29.224   2.492  27.543  0.00  0.00    -0.001 A 
ATOM      2  C   UNL A   1     -29.686   2.558  26.572  0.00  0.00    -0.000 A 
ATOM      3  C   UNL A   1     -29.846   3.799  25.698  0.00  0.00    +0.002 A 
ATOM      4  C   UNL A   1     -29.307   5.001  26.198  0.00  0.00    +0.029 A 
ATOM      5  C   UNL A   1     -28.631   4.960  27.384  0.00  0.00    +0.137 A 
ATOM      6  C   UNL A   1     -28.553   3.770  28.087  0.00  0.00    +0.010 A 
ATOM      7  F   UNL A   1     -28.144   6.043  27.876  0.00  0.00    -0.204 F 
ENDROOT
BRANCH   1  11
ATOM      8  C   UNL A   1     -28.016  -0.814  28.878  0.00  0.00    +0.011 A 
ATOM      9  C   UNL A   1     -28.469  -0.785  29.829  0.00  0.00    +0.003 A 
ATOM     10  C   UNL A   1     -28.196   0.348  28.055  0.00  0.00    +0.058 A 
ATOM     11  C   UNL A   1     -29.019   1.350  28.378  0.00  0.00    +0.010 A 
ATOM     12  C   UNL A   1     -29.411   0.180  30.378  0.00  0.00    +0.053 A 
ATOM     13  C   UNL A   1     -29.587   1.224  29.619  0.00  0.00    +0.003 A 
ATOM     14 CL   UNL A   1     -27.367   0.339  26.528  0.00  0.00    -0.082 Cl
BRANCH  12  15
ATOM     15  C   UNL A   1     -30.043   0.023  31.765  0.00  0.00    +0.350 C 
ATOM     16 CL   UNL A   1     -30.189   1.213  32.737  0.00  0.00    -0.042 Cl
ATOM     17  F   UNL A   1     -29.392  -0.952  32.463  0.00  0.00    -0.182 F 
ATOM     18  F   UNL A   1     -31.303  -0.549  31.449  0.00  0.00    -0.182 F 
ENDBRANCH  12  15
ENDBRANCH   1  11
BRANCH   6  19
ATOM     19  C   UNL A   1     -27.863   3.833  29.465  0.00  0.00    +0.054 C 
BRANCH  19  20
ATOM     20  C   UNL A   1     -26.530   3.227  29.571  0.00  0.00    -0.026 C 
ATOM     21  C   UNL A   1     -25.589   3.631  28.662  0.00  0.00    -0.026 C 
ATOM     22  C   UNL A   1     -25.094   5.123  28.826  0.00  0.00    +0.031 C 
BRANCH  21  23
ATOM     23  C   UNL A   1     -24.363   2.896  28.587  0.00  0.00    -0.008 A 
ATOM     24  C   UNL A   1     -23.793   2.712  27.297  0.00  0.00    -0.022 A 
ATOM     25  C   UNL A   1     -22.736   1.815  27.195  0.00  0.00    -0.004 A 
ATOM     26  C   UNL A   1     -22.181   1.171  28.338  0.00  0.00    -0.000 A 
ATOM     27  C   UNL A   1     -22.839   1.327  29.530  0.00  0.00    -0.000 A 
ATOM     28  C   UNL A   1     -23.897   2.159  29.680  0.00  0.00    -0.001 A 
ATOM     29  C   UNL A   1     -24.271   3.387  26.165  0.00  0.00    +0.031 C 
ENDBRANCH  21  23
ENDBRANCH  19  20
ENDBRANCH   6  19
TORSDOF 5
