MODEL 3337
MODEL 1
REMARK VINA RESULT:    -6.979      0.000      0.000
REMARK INTER + INTRA:          -9.378
REMARK INTER:                  -8.203
REMARK INTRA:                  -1.176
REMARK UNBOUND:                -1.176
REMARK  Name = No_3337-gen_results/8p0m/2024-11-27-11-27-31/
REMARK  3 active torsions:
REMARK  status: ('A' for Active; 'I' for Inactive)
REMARK    1  A    between atoms: C_2  and  C_17
REMARK    2  A    between atoms: C_3  and  C_7
REMARK    3  A    between atoms: C_8  and  C_14
REMARK                            x       y       z     vdW  Elec       q    Type
REMARK                         _______ _______ _______ _____ _____    ______ ____
ROOT
ATOM      1  C   UNL A   1     -23.070   0.925  29.041  0.00  0.00    +0.030 A 
ATOM      2  C   UNL A   1     -23.518  -0.145  29.385  0.00  0.00    +0.002 A 
ATOM      3  C   UNL A   1     -24.298  -0.955  28.560  0.00  0.00    +0.000 A 
ATOM      4  C   UNL A   1     -24.652  -0.482  27.236  0.00  0.00    +0.002 A 
ATOM      5  C   UNL A   1     -24.130   0.764  26.889  0.00  0.00    +0.030 A 
ATOM      6  C   UNL A   1     -23.409   1.470  27.737  0.00  0.00    +0.140 A 
ATOM      7  F   UNL A   1     -22.983   2.625  27.227  0.00  0.00    -0.204 F 
ENDROOT
BRANCH   3   8
ATOM      8  C   UNL A   1     -24.885  -2.289  28.904  0.00  0.00    +0.006 A 
ATOM      9  C   UNL A   1     -26.052  -2.427  29.517  0.00  0.00    +0.080 A 
ATOM     10  C   UNL A   1     -26.525  -3.714  29.925  0.00  0.00    +0.007 A 
ATOM     11  C   UNL A   1     -25.799  -4.889  29.589  0.00  0.00    +0.000 A 
ATOM     12  C   UNL A   1     -24.246  -3.273  28.496  0.00  0.00    +0.000 A 
ATOM     13  C   UNL A   1     -24.601  -4.671  28.905  0.00  0.00    +0.000 A 
BRANCH   9  14
ATOM     14  C   UNL A   1     -26.909  -1.238  29.891  0.00  0.00    +0.388 C 
ATOM     15  O   UNL A   1     -26.803  -0.618  30.948  0.00  0.00    -0.241 OA
ATOM     16  O   UNL A   1     -27.840  -0.931  29.058  0.00  0.00    -0.241 OA
ENDBRANCH   9  14
ENDBRANCH   3   8
BRANCH   2  17
ATOM     17  C   UNL A   1     -23.214  -0.724  30.768  0.00  0.00    -0.004 C 
ATOM     18  C   UNL A   1     -23.361  -0.737  31.775  0.00  0.00    -0.026 C 
ATOM     19  C   UNL A   1     -22.796  -1.491  32.826  0.00  0.00    +0.031 C 
ENDBRANCH   2  17
TORSDOF 3
ENDMDL
ENDMDL
