REMARK  Name = outputs/IAG933/test6/raw/output_3338_IAG933_linker_design_.xyz
REMARK  11 active torsions:
REMARK  status: ('A' for Active; 'I' for Inactive)
REMARK    1  A    between atoms: C_1  and  C_2
REMARK    2  A    between atoms: C_1  and  C_8
REMARK    3  A    between atoms: C_1  and  N_42
REMARK    4  A    between atoms: C_13  and  C_36
REMARK    5  A    between atoms: C_14  and  C_15
REMARK    6  A    between atoms: C_21  and  O_22
REMARK    7  A    between atoms: O_22  and  C_23
REMARK    8  A    between atoms: C_23  and  C_24
REMARK    9  A    between atoms: O_30  and  C_40
REMARK   10  A    between atoms: C_32  and  C_33
REMARK   11  A    between atoms: C_35  and  N_42
REMARK                            x       y       z     vdW  Elec       q    Type
REMARK                         _______ _______ _______ _____ _____    ______ ____
ROOT
ATOM      1  F   UNL A   1     -21.575   0.274  29.775  0.00  0.00    -0.202 F 
ATOM      2  C   UNL A   1     -22.323   0.482  28.696  0.00  0.00    +0.172 C 
ATOM      3  C   UNL A   1     -24.517   0.393  28.358  0.00  0.00    +0.059 C 
ATOM      4  C   UNL A   1     -24.473   1.174  27.233  0.00  0.00    +0.053 C 
ATOM      5  C   UNL A   1     -23.378   0.092  28.721  0.00  0.00    +0.047 C 
ATOM      6  C   UNL A   1     -23.174   1.498  26.741  0.00  0.00    +0.169 C 
ATOM      7  F   UNL A   1     -20.861   1.719  27.254  0.00  0.00    -0.199 F 
ATOM      8  C   UNL A   1     -22.076   1.248  27.554  0.00  0.00    +0.201 C 
ENDROOT
BRANCH   4   9
ATOM      9  C   UNL A   1     -25.688   1.614  26.461  0.00  0.00    +0.042 C 
ATOM     10  C   UNL A   1     -26.250   2.920  26.395  0.00  0.00    +0.077 C 
ATOM     11  C   UNL A   1     -27.438   3.091  25.645  0.00  0.00    +0.107 C 
ATOM     12  N   UNL A   1     -28.075   2.089  25.003  0.00  0.00    -0.208 NA
ATOM     13  C   UNL A   1     -27.543   0.849  25.079  0.00  0.00    +0.253 C 
ATOM     14  C   UNL A   1     -26.354   0.576  25.777  0.00  0.00    +0.193 C 
ATOM     15  F   UNL A   1     -25.860  -0.681  25.795  0.00  0.00    -0.199 F 
BRANCH  10  16
ATOM     16  C   UNL A   1     -25.642   4.093  27.123  0.00  0.00    +0.266 C 
ATOM     17  N   UNL A   1     -25.614   5.252  26.449  0.00  0.00    -0.200 NA
ATOM     18  C   UNL A   1     -25.026   6.479  26.963  0.00  0.00    +0.139 C 
ATOM     19  O   UNL A   1     -25.143   3.966  28.243  0.00  0.00    -0.268 OA
ENDBRANCH  10  16
BRANCH  13  20
ATOM     20  O   UNL A   1     -28.193  -0.208  24.477  0.00  0.00    -0.456 OA
BRANCH  20  21
ATOM     21  C   UNL A   1     -29.460   0.005  23.866  0.00  0.00    +0.243 C 
BRANCH  21  22
ATOM     22  C   UNL A   1     -30.065  -1.377  23.573  0.00  0.00    +0.229 C 
ATOM     23  O   UNL A   1     -30.729  -1.878  24.721  0.00  0.00    -0.216 OA
ENDBRANCH  21  22
ENDBRANCH  20  21
ENDBRANCH  13  20
ENDBRANCH   4   9
BRANCH   3  26
ATOM     24  C   UNL A   1     -26.884   0.340  29.037  0.00  0.00    +0.229 C 
ATOM     25  O   UNL A   1     -27.630  -0.519  28.588  0.00  0.00    -0.275 OA
ATOM     26  N   UNL A   1     -25.502   0.013  29.181  0.00  0.00    -0.255 N 
BRANCH  24  28
ATOM     27  C   UNL A   1     -29.049   1.779  28.888  0.00  0.00    +0.010 C 
ATOM     28  C   UNL A   1     -27.639   1.694  29.534  0.00  0.00    +0.077 C 
ATOM     29  C   UNL A   1     -27.894   2.091  31.069  0.00  0.00    +0.010 C 
ENDBRANCH  24  28
BRANCH  26  30
ATOM     30  C   UNL A   1     -24.855  -1.012  30.143  0.00  0.00    +0.118 C 
BRANCH  30  31
ATOM     31  C   UNL A   1     -24.973  -2.505  29.788  0.00  0.00    -0.003 C 
ATOM     32  C   UNL A   1     -23.906  -3.173  29.146  0.00  0.00    -0.003 C 
ATOM     33  C   UNL A   1     -23.989  -4.549  28.853  0.00  0.00    -0.000 C 
ATOM     34  C   UNL A   1     -25.137  -5.280  29.205  0.00  0.00    -0.000 C 
ATOM     35  C   UNL A   1     -26.232  -4.611  29.784  0.00  0.00    -0.000 C 
ATOM     36  C   UNL A   1     -26.155  -3.232  30.065  0.00  0.00    -0.003 C 
ENDBRANCH  30  31
BRANCH  30  37
ATOM     37  C   UNL A   1     -25.387  -0.679  31.571  0.00  0.00    +0.096 C 
ATOM     38  C   UNL A   1     -25.189   0.773  32.028  0.00  0.00    +0.021 C 
ATOM     39  C   UNL A   1     -25.336   0.684  33.544  0.00  0.00    +0.020 C 
ATOM     40  C   UNL A   1     -24.829  -0.715  33.905  0.00  0.00    +0.089 C 
ATOM     41  N   UNL A   1     -24.758  -1.481  32.646  0.00  0.00    -0.217 NA
ENDBRANCH  30  37
ENDBRANCH  26  30
ENDBRANCH   3  26
BRANCH   6  42
ATOM     42  O   UNL A   1     -22.962   2.008  25.472  0.00  0.00    -0.469 OA
ATOM     43  C   UNL A   1     -23.452   1.190  24.421  0.00  0.00    +0.253 C 
ENDBRANCH   6  42
TORSDOF 11
