MODEL 3338
MODEL 1
REMARK VINA RESULT:    -7.713      0.000      0.000
REMARK INTER + INTRA:          -8.668
REMARK INTER:                  -8.164
REMARK INTRA:                  -0.504
REMARK UNBOUND:                -0.504
REMARK  Name = No_3338-gen_results/8p0m/2024-11-27-11-27-31/
REMARK  1 active torsions:
REMARK  status: ('A' for Active; 'I' for Inactive)
REMARK    1  A    between atoms: C_3  and  C_7
REMARK                            x       y       z     vdW  Elec       q    Type
REMARK                         _______ _______ _______ _____ _____    ______ ____
ROOT
ATOM      1  C   UNL A   1     -24.646  -1.281  29.961  0.00  0.00    +0.028 A 
ATOM      2  C   UNL A   1     -24.952  -0.406  28.957  0.00  0.00    +0.004 A 
ATOM      3  C   UNL A   1     -25.551  -0.837  27.781  0.00  0.00    +0.030 A 
ATOM      4  C   UNL A   1     -25.248  -0.327  26.548  0.00  0.00    +0.140 A 
ATOM      5  C   UNL A   1     -24.198   0.720  26.490  0.00  0.00    +0.030 A 
ATOM      6  C   UNL A   1     -23.566   1.152  27.643  0.00  0.00    +0.002 A 
ATOM      7  C   UNL A   1     -23.819   0.547  28.850  0.00  0.00    +0.000 A 
ATOM      8  C   UNL A   1     -24.372  -0.925  31.262  0.00  0.00    +0.140 A 
ATOM      9  F   UNL A   1     -24.874  -1.337  32.080  0.00  0.00    -0.204 F 
ATOM     10  C   UNL A   1     -23.237  -0.054  31.362  0.00  0.00    +0.030 A 
ATOM     11  C   UNL A   1     -23.164   0.915  30.174  0.00  0.00    +0.002 A 
ATOM     12  F   UNL A   1     -25.913  -0.498  25.457  0.00  0.00    -0.204 F 
ENDROOT
BRANCH   1  15
ATOM     13  C   UNL A   1     -26.076  -3.407  29.915  0.00  0.00    +0.000 A 
ATOM     14  C   UNL A   1     -26.161  -4.410  29.605  0.00  0.00    +0.000 A 
ATOM     15  C   UNL A   1     -24.880  -2.722  29.609  0.00  0.00    +0.002 A 
ATOM     16  C   UNL A   1     -23.839  -3.333  28.937  0.00  0.00    +0.000 A 
ATOM     17  C   UNL A   1     -25.217  -5.284  28.881  0.00  0.00    +0.000 A 
ATOM     18  C   UNL A   1     -24.056  -4.667  28.569  0.00  0.00    +0.000 A 
ENDBRANCH   1  15
TORSDOF 1
ENDMDL
ENDMDL
