MODEL 3339
MODEL 1
REMARK VINA RESULT:    -6.568      0.000      0.000
REMARK INTER + INTRA:          -9.814
REMARK INTER:                  -8.872
REMARK INTRA:                  -0.941
REMARK UNBOUND:                -0.941
REMARK  Name = No_3339-gen_results/8p0m/2024-11-27-11-27-31/
REMARK  6 active torsions:
REMARK  status: ('A' for Active; 'I' for Inactive)
REMARK    1  A    between atoms: C_1  and  N_11
REMARK    2  A    between atoms: C_5  and  C_7
REMARK    3  A    between atoms: C_15  and  C_16
REMARK    4  A    between atoms: C_16  and  O_19
REMARK    5  A    between atoms: O_19  and  C_20
REMARK    6  A    between atoms: C_21  and  C_22
REMARK                            x       y       z     vdW  Elec       q    Type
REMARK                         _______ _______ _______ _____ _____    ______ ____
ROOT
ATOM      1  N   UNL A   1     -25.145   0.663  26.546  0.00  0.00    -0.307 N 
ATOM      2  C   UNL A   1     -26.201   1.439  26.871  0.00  0.00    +0.091 C 
ATOM      3  C   UNL A   1     -24.959   0.395  25.181  0.00  0.00    +0.091 C 
ATOM      4  C   UNL A   1     -27.507   1.002  26.468  0.00  0.00    +0.033 C 
ATOM      5  C   UNL A   1     -27.605   0.667  25.024  0.00  0.00    +0.103 C 
ATOM      6  C   UNL A   1     -26.309  -0.004  24.580  0.00  0.00    +0.033 C 
ENDROOT
BRANCH   1   7
ATOM      7  C   UNL A   1     -24.398  -0.060  27.566  0.00  0.00    +0.059 A 
ATOM      8  C   UNL A   1     -23.327   0.351  27.950  0.00  0.00    +0.071 A 
ATOM      9  C   UNL A   1     -22.563  -0.286  28.907  0.00  0.00    +0.013 A 
ATOM     10  C   UNL A   1     -23.048  -1.513  29.441  0.00  0.00    +0.007 A 
ATOM     11  C   UNL A   1     -24.162  -2.016  28.859  0.00  0.00    +0.081 A 
ATOM     12  C   UNL A   1     -24.808  -1.355  27.918  0.00  0.00    +0.022 A 
ATOM     13 CL   UNL A   1     -22.698   1.973  27.428  0.00  0.00    -0.081 Cl
BRANCH  11  14
ATOM     14  C   UNL A   1     -24.633  -3.305  29.406  0.00  0.00    +0.388 C 
ATOM     15  O   UNL A   1     -23.984  -4.199  29.250  0.00  0.00    -0.241 OA
ATOM     16  O   UNL A   1     -25.818  -3.420  29.984  0.00  0.00    -0.241 OA
ENDBRANCH  11  14
ENDBRANCH   1   7
BRANCH   5  17
ATOM     17  C   UNL A   1     -28.783   0.154  24.457  0.00  0.00    +0.321 C 
ATOM     18  O   UNL A   1     -28.539  -0.857  23.778  0.00  0.00    -0.250 OA
BRANCH  17  19
ATOM     19  O   UNL A   1     -29.824   0.885  24.304  0.00  0.00    -0.421 OA
BRANCH  19  20
ATOM     20  C   UNL A   1     -29.659   2.144  23.732  0.00  0.00    +0.183 C 
ATOM     21  C   UNL A   1     -30.442   2.334  22.919  0.00  0.00    +0.040 C 
BRANCH  21  22
ATOM     22  C   UNL A   1     -31.429   1.490  22.498  0.00  0.00    -0.001 C 
ATOM     23  C   UNL A   1     -32.322   1.768  21.289  0.00  0.00    -0.026 C 
ATOM     24  C   UNL A   1     -32.087   2.932  20.608  0.00  0.00    +0.031 C 
ENDBRANCH  21  22
ENDBRANCH  19  20
ENDBRANCH  17  19
ENDBRANCH   5  17
TORSDOF 6
ENDMDL
ENDMDL
