MODEL 333
MODEL 1
REMARK VINA RESULT:    -5.362      0.000      0.000
REMARK INTER + INTRA:          -6.490
REMARK INTER:                  -6.303
REMARK INTRA:                  -0.187
REMARK UNBOUND:                -0.187
REMARK  Name = No_333-gen_results/8p0m/2024-11-27-11-27-31/
REMARK  3 active torsions:
REMARK  status: ('A' for Active; 'I' for Inactive)
REMARK    1  A    between atoms: N_1  and  C_2
REMARK    2  A    between atoms: C_5  and  C_6
REMARK    3  A    between atoms: C_10  and  C_11
REMARK                            x       y       z     vdW  Elec       q    Type
REMARK                         _______ _______ _______ _____ _____    ______ ____
ROOT
ATOM      1  C   UNL A   1     -23.787  -1.851  29.398  0.00  0.00    +0.074 A 
ATOM      2  C   UNL A   1     -23.809  -3.033  28.850  0.00  0.00    +0.017 A 
ATOM      3  C   UNL A   1     -24.936  -3.990  29.002  0.00  0.00    +0.012 A 
ATOM      4  C   UNL A   1     -26.031  -3.599  29.802  0.00  0.00    +0.069 A 
ATOM      5  C   UNL A   1     -24.964  -1.500  30.275  0.00  0.00    +0.017 A 
ATOM      6  C   UNL A   1     -26.042  -2.338  30.458  0.00  0.00    +0.012 A 
ENDROOT
BRANCH   1   7
ATOM      7  N   UNL A   1     -22.840  -1.076  29.249  0.00  0.00    -0.170 NA
ATOM      8  C   UNL A   1     -22.853  -0.051  28.307  0.00  0.00    +0.349 C 
ATOM      9  O   UNL A   1     -23.860   0.229  27.594  0.00  0.00    -0.261 OA
BRANCH   8  10
ATOM     10  C   UNL A   1     -21.724   0.668  28.121  0.00  0.00    +0.442 C 
ATOM     11  O   UNL A   1     -20.624   0.044  28.423  0.00  0.00    -0.235 OA
ATOM     12  O   UNL A   1     -21.653   1.831  27.596  0.00  0.00    -0.235 OA
ENDBRANCH   8  10
ENDBRANCH   1   7
BRANCH   4  13
ATOM     13  C   UNL A   1     -27.153  -4.411  30.009  0.00  0.00    +0.100 C 
ATOM     14  N   UNL A   1     -28.195  -4.485  29.800  0.00  0.00    -0.191 NA
ENDBRANCH   4  13
TORSDOF 3
ENDMDL
ENDMDL
