REMARK  Name = outputs/IAG933/test6/raw/output_334_IAG933_linker_design_.xyz
REMARK  13 active torsions:
REMARK  status: ('A' for Active; 'I' for Inactive)
REMARK    1  A    between atoms: C_1  and  C_2
REMARK    2  A    between atoms: C_1  and  C_8
REMARK    3  A    between atoms: C_1  and  N_38
REMARK    4  A    between atoms: C_13  and  C_31
REMARK    5  A    between atoms: C_14  and  C_15
REMARK    6  A    between atoms: C_21  and  O_22
REMARK    7  A    between atoms: O_22  and  C_23
REMARK    8  A    between atoms: C_23  and  C_24
REMARK    9  A    between atoms: C_28  and  C_34
REMARK   10  A    between atoms: C_30  and  C_32
REMARK   11  A    between atoms: C_30  and  C_41
REMARK   12  A    between atoms: C_35  and  N_38
REMARK   13  A    between atoms: C_39  and  C_41
REMARK                            x       y       z     vdW  Elec       q    Type
REMARK                         _______ _______ _______ _____ _____    ______ ____
ROOT
ATOM      1  C   UNL A   1     -24.491   1.286  27.184  0.00  0.00    +0.074 C 
ATOM      2  C   UNL A   1     -22.717   0.923  27.655  0.00  0.00    +0.008 C 
ATOM      3  C   UNL A   1     -23.276   1.469  26.770  0.00  0.00    +0.048 C 
ATOM      4  C   UNL A   1     -24.067   0.730  28.374  0.00  0.00    +0.104 C 
ENDROOT
BRANCH   1   5
ATOM      5  C   UNL A   1     -25.688   1.614  26.461  0.00  0.00    +0.022 C 
ATOM      6  C   UNL A   1     -26.250   2.920  26.395  0.00  0.00    +0.073 C 
ATOM      7  C   UNL A   1     -27.438   3.091  25.645  0.00  0.00    +0.106 C 
ATOM      8  N   UNL A   1     -28.075   2.089  25.003  0.00  0.00    -0.208 NA
ATOM      9  C   UNL A   1     -27.543   0.849  25.079  0.00  0.00    +0.253 C 
ATOM     10  C   UNL A   1     -26.354   0.576  25.777  0.00  0.00    +0.190 C 
ATOM     11  F   UNL A   1     -25.860  -0.681  25.795  0.00  0.00    -0.200 F 
BRANCH   6  12
ATOM     12  C   UNL A   1     -25.642   4.093  27.123  0.00  0.00    +0.266 C 
ATOM     13  N   UNL A   1     -25.614   5.252  26.449  0.00  0.00    -0.200 NA
ATOM     14  C   UNL A   1     -25.026   6.479  26.963  0.00  0.00    +0.139 C 
ATOM     15  O   UNL A   1     -25.143   3.966  28.243  0.00  0.00    -0.268 OA
ENDBRANCH   6  12
BRANCH   9  16
ATOM     16  O   UNL A   1     -28.193  -0.208  24.477  0.00  0.00    -0.456 OA
BRANCH  16  17
ATOM     17  C   UNL A   1     -29.460   0.005  23.866  0.00  0.00    +0.243 C 
BRANCH  17  18
ATOM     18  C   UNL A   1     -30.065  -1.377  23.573  0.00  0.00    +0.229 C 
ATOM     19  O   UNL A   1     -30.729  -1.878  24.721  0.00  0.00    -0.216 OA
ENDBRANCH  17  18
ENDBRANCH  16  17
ENDBRANCH   9  16
ENDBRANCH   1   5
BRANCH   3  20
ATOM     20  C   UNL A   1     -22.735   2.264  25.614  0.00  0.00    +0.329 C 
ATOM     21  F   UNL A   1     -23.398   3.158  24.969  0.00  0.00    -0.159 F 
ATOM     22  O   UNL A   1     -21.599   2.103  25.302  0.00  0.00    -0.255 OA
ENDBRANCH   3  20
BRANCH   4  25
ATOM     23  N   UNL A   1     -27.398  -0.277  28.619  0.00  0.00    -0.129 NA
ATOM     24  C   UNL A   1     -26.399   0.142  28.790  0.00  0.00    +0.188 C 
ATOM     25  N   UNL A   1     -25.065  -0.060  29.064  0.00  0.00    -0.283 N 
BRANCH  25  26
ATOM     26  C   UNL A   1     -24.855  -1.012  30.143  0.00  0.00    +0.113 C 
BRANCH  26  27
ATOM     27  C   UNL A   1     -24.973  -2.505  29.788  0.00  0.00    -0.003 C 
ATOM     28  C   UNL A   1     -23.906  -3.173  29.146  0.00  0.00    -0.003 C 
ATOM     29  C   UNL A   1     -23.989  -4.549  28.853  0.00  0.00    -0.000 C 
ATOM     30  C   UNL A   1     -25.137  -5.280  29.205  0.00  0.00    -0.000 C 
ATOM     31  C   UNL A   1     -26.232  -4.611  29.784  0.00  0.00    -0.000 C 
ATOM     32  C   UNL A   1     -26.155  -3.232  30.065  0.00  0.00    -0.003 C 
ENDBRANCH  26  27
BRANCH  26  33
ATOM     33  C   UNL A   1     -25.387  -0.679  31.571  0.00  0.00    +0.095 C 
ATOM     34  C   UNL A   1     -25.189   0.773  32.028  0.00  0.00    +0.021 C 
ATOM     35  C   UNL A   1     -25.336   0.684  33.544  0.00  0.00    +0.020 C 
ATOM     36  C   UNL A   1     -24.829  -0.715  33.905  0.00  0.00    +0.089 C 
ATOM     37  N   UNL A   1     -24.758  -1.481  32.646  0.00  0.00    -0.217 NA
ENDBRANCH  26  33
ENDBRANCH  25  26
ENDBRANCH   4  25
BRANCH   2  38
ATOM     38  C   UNL A   1     -21.199   0.916  27.567  0.00  0.00    +0.189 C 
ATOM     39  F   UNL A   1     -20.535   1.833  27.945  0.00  0.00    -0.232 F 
BRANCH  38  40
ATOM     40  C   UNL A   1     -20.841  -0.211  28.476  0.00  0.00    +0.112 C 
BRANCH  40  42
ATOM     41  O   UNL A   1     -22.187   0.365  30.256  0.00  0.00    -0.288 OA
ATOM     42  C   UNL A   1     -21.878  -0.360  29.406  0.00  0.00    +0.211 C 
ENDBRANCH  40  42
ENDBRANCH  38  40
ENDBRANCH   2  38
TORSDOF 13
