REMARK  Name = No_3341-gen_results/8p0m/2024-11-27-11-27-31/
REMARK  7 active torsions:
REMARK  status: ('A' for Active; 'I' for Inactive)
REMARK    1  A    between atoms: C_4  and  C_11
REMARK    2  A    between atoms: C_6  and  O_17
REMARK    3  A    between atoms: O_17  and  C_18
REMARK    4  A    between atoms: C_18  and  C_19
REMARK    5  A    between atoms: C_18  and  N_23
REMARK    6  A    between atoms: N_23  and  C_24
REMARK    7  A    between atoms: C_25  and  C_26
REMARK                            x       y       z     vdW  Elec       q    Type
REMARK                         _______ _______ _______ _____ _____    ______ ____
ROOT
ATOM      1  C   UNL A   1     -28.016  -0.814  28.878  0.00  0.00    +0.037 A 
ATOM      2  C   UNL A   1     -27.064  -0.119  28.608  0.00  0.00    +0.003 A 
ATOM      3  C   UNL A   1     -25.792  -0.430  29.076  0.00  0.00    +0.000 A 
ATOM      4  C   UNL A   1     -24.546   0.349  28.823  0.00  0.00    +0.000 A 
ATOM      5  C   UNL A   1     -23.241   0.022  29.332  0.00  0.00    +0.000 A 
ATOM      6  C   UNL A   1     -27.882  -1.899  29.863  0.00  0.00    +0.141 A 
ATOM      7  C   UNL A   1     -26.653  -2.314  30.314  0.00  0.00    +0.037 A 
ATOM      8  C   UNL A   1     -25.515  -1.561  29.979  0.00  0.00    +0.003 A 
ATOM      9  C   UNL A   1     -23.207  -1.229  30.031  0.00  0.00    +0.000 A 
ATOM     10  C   UNL A   1     -24.243  -1.936  30.388  0.00  0.00    +0.000 A 
ENDROOT
BRANCH   4  11
ATOM     11  C   UNL A   1     -24.589   1.561  27.954  0.00  0.00    +0.000 A 
ATOM     12  C   UNL A   1     -24.811   2.683  28.555  0.00  0.00    +0.000 A 
ATOM     13  C   UNL A   1     -25.129   3.844  27.779  0.00  0.00    +0.000 A 
ATOM     14  C   UNL A   1     -24.405   1.436  26.616  0.00  0.00    +0.000 A 
ATOM     15  C   UNL A   1     -24.547   2.551  25.782  0.00  0.00    +0.000 A 
ATOM     16  C   UNL A   1     -24.814   3.808  26.395  0.00  0.00    +0.000 A 
ENDBRANCH   4  11
BRANCH   6  17
ATOM     17  O   UNL A   1     -29.001  -2.640  30.119  0.00  0.00    -0.453 OA
BRANCH  17  18
ATOM     18  C   UNL A   1     -30.096  -2.039  30.615  0.00  0.00    +0.339 C 
BRANCH  18  19
ATOM     19  C   UNL A   1     -30.621  -2.784  31.681  0.00  0.00    +0.386 C 
ATOM     20 CL   UNL A   1     -29.949  -4.062  32.092  0.00  0.00    -0.042 Cl
ATOM     21  F   UNL A   1     -30.631  -2.003  32.844  0.00  0.00    -0.181 F 
ATOM     22  F   UNL A   1     -31.966  -2.939  31.255  0.00  0.00    -0.181 F 
ENDBRANCH  18  19
BRANCH  18  23
ATOM     23  N   UNL A   1     -31.020  -1.758  29.553  0.00  0.00    -0.192 NA
BRANCH  23  24
ATOM     24  C   UNL A   1     -30.889  -0.565  28.810  0.00  0.00    +0.084 C 
ATOM     25  C   UNL A   1     -32.096  -0.261  28.182  0.00  0.00    +0.018 C 
BRANCH  25  26
ATOM     26  C   UNL A   1     -32.253   0.993  27.695  0.00  0.00    +0.001 C 
ATOM     27  C   UNL A   1     -33.423   1.427  27.123  0.00  0.00    +0.000 C 
ENDBRANCH  25  26
ENDBRANCH  23  24
ENDBRANCH  18  23
ENDBRANCH  17  18
ENDBRANCH   6  17
TORSDOF 7
