MODEL 3341
MODEL 1
REMARK VINA RESULT:    -6.821      0.000      0.000
REMARK INTER + INTRA:         -11.594
REMARK INTER:                  -9.613
REMARK INTRA:                  -1.981
REMARK UNBOUND:                -1.981
REMARK  Name = No_3341-gen_results/8p0m/2024-11-27-11-27-31/
REMARK  7 active torsions:
REMARK  status: ('A' for Active; 'I' for Inactive)
REMARK    1  A    between atoms: C_4  and  C_11
REMARK    2  A    between atoms: C_6  and  O_17
REMARK    3  A    between atoms: O_17  and  C_18
REMARK    4  A    between atoms: C_18  and  C_19
REMARK    5  A    between atoms: C_18  and  N_23
REMARK    6  A    between atoms: N_23  and  C_24
REMARK    7  A    between atoms: C_25  and  C_26
REMARK                            x       y       z     vdW  Elec       q    Type
REMARK                         _______ _______ _______ _____ _____    ______ ____
ROOT
ATOM      1  C   UNL A   1     -26.400   0.550  26.642  0.00  0.00    +0.037 A 
ATOM      2  C   UNL A   1     -25.912  -0.370  27.257  0.00  0.00    +0.003 A 
ATOM      3  C   UNL A   1     -24.628  -0.280  27.783  0.00  0.00    +0.000 A 
ATOM      4  C   UNL A   1     -23.914  -1.343  28.547  0.00  0.00    +0.000 A 
ATOM      5  C   UNL A   1     -22.577  -1.239  29.068  0.00  0.00    +0.000 A 
ATOM      6  C   UNL A   1     -25.577   1.713  26.276  0.00  0.00    +0.141 A 
ATOM      7  C   UNL A   1     -24.329   1.910  26.815  0.00  0.00    +0.037 A 
ATOM      8  C   UNL A   1     -23.748   0.883  27.578  0.00  0.00    +0.003 A 
ATOM      9  C   UNL A   1     -22.005   0.063  28.893  0.00  0.00    +0.000 A 
ATOM     10  C   UNL A   1     -22.498   1.026  28.165  0.00  0.00    +0.000 A 
ENDROOT
BRANCH   4  11
ATOM     11  C   UNL A   1     -24.602  -2.631  28.852  0.00  0.00    +0.000 A 
ATOM     12  C   UNL A   1     -25.744  -2.537  29.450  0.00  0.00    +0.000 A 
ATOM     13  C   UNL A   1     -26.341  -3.712  30.011  0.00  0.00    +0.000 A 
ATOM     14  C   UNL A   1     -24.017  -3.805  28.506  0.00  0.00    +0.000 A 
ATOM     15  C   UNL A   1     -24.605  -5.018  28.881  0.00  0.00    +0.000 A 
ATOM     16  C   UNL A   1     -25.855  -4.968  29.561  0.00  0.00    +0.000 A 
ENDBRANCH   4  11
BRANCH   6  17
ATOM     17  O   UNL A   1     -26.196   2.712  25.579  0.00  0.00    -0.453 OA
BRANCH  17  18
ATOM     18  C   UNL A   1     -27.350   3.225  26.039  0.00  0.00    +0.339 C 
BRANCH  18  19
ATOM     19  C   UNL A   1     -28.328   3.207  25.034  0.00  0.00    +0.386 C 
ATOM     20 CL   UNL A   1     -27.996   2.628  23.690  0.00  0.00    -0.042 Cl
ATOM     21  F   UNL A   1     -29.438   2.472  25.468  0.00  0.00    -0.181 F 
ATOM     22  F   UNL A   1     -28.702   4.576  25.008  0.00  0.00    -0.181 F 
ENDBRANCH  18  19
BRANCH  18  23
ATOM     23  N   UNL A   1     -27.108   4.510  26.633  0.00  0.00    -0.192 NA
BRANCH  23  24
ATOM     24  C   UNL A   1     -26.712   4.592  27.985  0.00  0.00    +0.084 C 
ATOM     25  C   UNL A   1     -27.234   3.514  28.699  0.00  0.00    +0.018 C 
BRANCH  25  26
ATOM     26  C   UNL A   1     -26.706   3.254  29.919  0.00  0.00    +0.001 C 
ATOM     27  C   UNL A   1     -26.114   2.056  30.232  0.00  0.00    +0.000 C 
ENDBRANCH  25  26
ENDBRANCH  23  24
ENDBRANCH  18  23
ENDBRANCH  17  18
ENDBRANCH   6  17
TORSDOF 7
ENDMDL
ENDMDL
