MODEL 3342
MODEL 1
REMARK VINA RESULT:    -4.249      0.000      0.000
REMARK INTER + INTRA:          -4.249
REMARK INTER:                  -4.249
REMARK INTRA:                   0.000
REMARK UNBOUND:                 0.000
REMARK  Name = No_3342-gen_results/8p0m/2024-11-27-11-27-31/
REMARK  0 active torsions:
REMARK  status: ('A' for Active; 'I' for Inactive)
REMARK                            x       y       z     vdW  Elec       q    Type
REMARK                         _______ _______ _______ _____ _____    ______ ____
ROOT
ATOM      1  C   UNL A   1     -24.951  -5.340  28.947  0.00  0.00    +0.000 A 
ATOM      2  C   UNL A   1     -24.148  -4.687  28.752  0.00  0.00    +0.000 A 
ATOM      3  C   UNL A   1     -26.126  -4.758  29.614  0.00  0.00    +0.000 A 
ATOM      4  C   UNL A   1     -26.207  -3.353  29.844  0.00  0.00    +0.000 A 
ATOM      5  C   UNL A   1     -24.001  -3.209  28.836  0.00  0.00    +0.000 A 
ATOM      6  C   UNL A   1     -25.068  -2.633  29.459  0.00  0.00    +0.000 A 
ENDROOT
TORSDOF 0
ENDMDL
ENDMDL
