MODEL 3343
MODEL 1
REMARK VINA RESULT:    -5.992      0.000      0.000
REMARK INTER + INTRA:          -7.040
REMARK INTER:                  -6.693
REMARK INTRA:                  -0.348
REMARK UNBOUND:                -0.348
REMARK  Name = No_3343-gen_results/8p0m/2024-11-27-11-27-31/
REMARK  2 active torsions:
REMARK  status: ('A' for Active; 'I' for Inactive)
REMARK    1  A    between atoms: C_2  and  C_9
REMARK    2  A    between atoms: C_10  and  C_11
REMARK                            x       y       z     vdW  Elec       q    Type
REMARK                         _______ _______ _______ _____ _____    ______ ____
ROOT
ATOM      1  C   UNL A   1     -22.652  -0.173  28.936  0.00  0.00    +0.205 A 
ATOM      2  C   UNL A   1     -23.568  -0.932  28.725  0.00  0.00    +0.081 A 
ATOM      3  C   UNL A   1     -24.800  -0.530  28.248  0.00  0.00    +0.013 A 
ATOM      4  C   UNL A   1     -24.983   0.851  27.954  0.00  0.00    +0.019 A 
ATOM      5  C   UNL A   1     -23.880   1.630  28.045  0.00  0.00    +0.092 A 
ATOM      6  C   UNL A   1     -22.728   1.149  28.472  0.00  0.00    +0.061 A 
ATOM      7  O   UNL A   1     -21.421  -0.649  29.376  0.00  0.00    -0.286 OA
ATOM      8  N   UNL A   1     -24.061   2.971  27.725  0.00  0.00    -0.128 NA
ENDROOT
BRANCH   2   9
ATOM      9  C   UNL A   1     -23.499  -2.456  29.136  0.00  0.00    -0.057 C 
ATOM     10  C   UNL A   1     -24.264  -3.309  28.447  0.00  0.00    -0.059 C 
BRANCH  10  11
ATOM     11  C   UNL A   1     -24.205  -4.639  28.609  0.00  0.00    +0.045 C 
ATOM     12  C   UNL A   1     -25.229  -5.323  29.288  0.00  0.00    -0.017 C 
ATOM     13  C   UNL A   1     -26.378  -4.499  29.661  0.00  0.00    +0.031 C 
ENDBRANCH  10  11
ENDBRANCH   2   9
TORSDOF 2
ENDMDL
ENDMDL
