MODEL 3344
MODEL 1
REMARK VINA RESULT:    -7.363      0.000      0.000
REMARK INTER + INTRA:         -10.121
REMARK INTER:                  -9.085
REMARK INTRA:                  -1.036
REMARK UNBOUND:                -1.036
REMARK  Name = No_3344-gen_results/8p0m/2024-11-27-11-27-31/
REMARK  4 active torsions:
REMARK  status: ('A' for Active; 'I' for Inactive)
REMARK    1  A    between atoms: C_2  and  C_19
REMARK    2  A    between atoms: C_3  and  O_12
REMARK    3  A    between atoms: C_4  and  C_7
REMARK    4  A    between atoms: O_12  and  C_13
REMARK                            x       y       z     vdW  Elec       q    Type
REMARK                         _______ _______ _______ _____ _____    ______ ____
ROOT
ATOM      1  C   UNL A   1     -25.770  -0.217  27.589  0.00  0.00    +0.042 C 
ATOM      2  C   UNL A   1     -25.565   0.231  26.657  0.00  0.00    +0.078 C 
ATOM      3  C   UNL A   1     -24.586  -0.351  28.520  0.00  0.00    +0.161 C 
ATOM      4  C   UNL A   1     -23.355   0.240  28.163  0.00  0.00    +0.274 C 
ATOM      5  C   UNL A   1     -24.412   0.944  26.064  0.00  0.00    -0.016 C 
ATOM      6  C   UNL A   1     -23.304   0.848  26.895  0.00  0.00    +0.075 C 
ATOM      7  F   UNL A   1     -23.618   1.396  29.053  0.00  0.00    -0.223 F 
ENDROOT
BRANCH   4   8
ATOM      8  C   UNL A   1     -22.203   0.130  28.991  0.00  0.00    +0.431 C 
ATOM      9  F   UNL A   1     -22.336   0.609  30.055  0.00  0.00    -0.167 F 
ATOM     10  F   UNL A   1     -21.131   0.786  28.402  0.00  0.00    -0.167 F 
ATOM     11  F   UNL A   1     -21.696  -1.156  28.852  0.00  0.00    -0.167 F 
ENDBRANCH   4   8
BRANCH   2  12
ATOM     12  C   UNL A   1     -26.721   0.238  25.524  0.00  0.00    +0.388 C 
ATOM     13  O   UNL A   1     -26.455   0.138  24.517  0.00  0.00    -0.241 OA
ATOM     14  O   UNL A   1     -27.995   0.290  25.894  0.00  0.00    -0.241 OA
ENDBRANCH   2  12
BRANCH   3  15
ATOM     15  O   UNL A   1     -24.671  -1.198  29.511  0.00  0.00    -0.455 OA
BRANCH  15  16
ATOM     16  C   UNL A   1     -24.936  -2.581  29.366  0.00  0.00    +0.145 A 
ATOM     17  C   UNL A   1     -24.028  -3.276  28.602  0.00  0.00    +0.037 A 
ATOM     18  C   UNL A   1     -25.979  -3.242  29.847  0.00  0.00    +0.037 A 
ATOM     19  C   UNL A   1     -26.132  -4.566  29.589  0.00  0.00    +0.003 A 
ATOM     20  C   UNL A   1     -25.127  -5.345  29.127  0.00  0.00    +0.000 A 
ATOM     21  C   UNL A   1     -24.011  -4.603  28.505  0.00  0.00    +0.003 A 
ENDBRANCH  15  16
ENDBRANCH   3  15
TORSDOF 4
ENDMDL
ENDMDL
