REMARK  Name = outputs/IAG933/test6/raw/output_3344_IAG933_linker_design_.xyz
REMARK  12 active torsions:
REMARK  status: ('A' for Active; 'I' for Inactive)
REMARK    1  A    between atoms: C_1  and  C_2
REMARK    2  A    between atoms: C_1  and  C_8
REMARK    3  A    between atoms: C_1  and  N_40
REMARK    4  A    between atoms: C_13  and  C_33
REMARK    5  A    between atoms: C_14  and  C_15
REMARK    6  A    between atoms: C_21  and  O_22
REMARK    7  A    between atoms: O_22  and  C_23
REMARK    8  A    between atoms: C_23  and  C_24
REMARK    9  A    between atoms: C_29  and  N_40
REMARK   10  A    between atoms: C_30  and  C_36
REMARK   11  A    between atoms: C_30  and  N_40
REMARK   12  A    between atoms: C_35  and  C_36
REMARK                            x       y       z     vdW  Elec       q    Type
REMARK                         _______ _______ _______ _____ _____    ______ ____
ROOT
ATOM      1  C   UNL A   1     -24.140   0.574  28.301  0.00  0.00    +0.076 C 
ATOM      2  C   UNL A   1     -21.785   1.120  28.067  0.00  0.00    +0.437 C 
ATOM      3  N   UNL A   1     -21.975   1.803  26.893  0.00  0.00    +0.037 NA
ATOM      4  C   UNL A   1     -24.350   1.323  27.075  0.00  0.00    +0.168 C 
ATOM      5  C   UNL A   1     -22.897   0.542  28.791  0.00  0.00    +0.238 C 
ATOM      6  C   UNL A   1     -23.214   1.793  26.315  0.00  0.00    +0.361 C 
ATOM      7  N   UNL A   1     -20.421   1.008  28.443  0.00  0.00    +0.217 NA
ATOM      8  F   UNL A   1     -22.625  -0.113  29.939  0.00  0.00    -0.195 F 
ATOM      9  O   UNL A   1     -23.332   2.207  25.076  0.00  0.00    -0.242 OA
ENDROOT
BRANCH   4  10
ATOM     10  C   UNL A   1     -25.688   1.614  26.461  0.00  0.00    +0.032 C 
ATOM     11  C   UNL A   1     -26.250   2.920  26.395  0.00  0.00    +0.073 C 
ATOM     12  C   UNL A   1     -27.438   3.091  25.645  0.00  0.00    +0.106 C 
ATOM     13  N   UNL A   1     -28.075   2.089  25.003  0.00  0.00    -0.208 NA
ATOM     14  C   UNL A   1     -27.543   0.849  25.079  0.00  0.00    +0.253 C 
ATOM     15  C   UNL A   1     -26.354   0.576  25.777  0.00  0.00    +0.190 C 
ATOM     16  F   UNL A   1     -25.860  -0.681  25.795  0.00  0.00    -0.200 F 
BRANCH  11  17
ATOM     17  C   UNL A   1     -25.642   4.093  27.123  0.00  0.00    +0.266 C 
ATOM     18  N   UNL A   1     -25.614   5.252  26.449  0.00  0.00    -0.200 NA
ATOM     19  C   UNL A   1     -25.026   6.479  26.963  0.00  0.00    +0.139 C 
ATOM     20  O   UNL A   1     -25.143   3.966  28.243  0.00  0.00    -0.268 OA
ENDBRANCH  11  17
BRANCH  14  21
ATOM     21  O   UNL A   1     -28.193  -0.208  24.477  0.00  0.00    -0.456 OA
BRANCH  21  22
ATOM     22  C   UNL A   1     -29.460   0.005  23.866  0.00  0.00    +0.243 C 
BRANCH  22  23
ATOM     23  C   UNL A   1     -30.065  -1.377  23.573  0.00  0.00    +0.229 C 
ATOM     24  O   UNL A   1     -30.729  -1.878  24.721  0.00  0.00    -0.216 OA
ENDBRANCH  22  23
ENDBRANCH  21  22
ENDBRANCH  14  21
ENDBRANCH   4  10
BRANCH   1  25
ATOM     25  N   UNL A   1     -25.212  -0.005  29.100  0.00  0.00    -0.298 N 
BRANCH  25  26
ATOM     26  C   UNL A   1     -24.855  -1.012  30.143  0.00  0.00    +0.112 C 
BRANCH  26  27
ATOM     27  C   UNL A   1     -24.973  -2.505  29.788  0.00  0.00    -0.003 C 
ATOM     28  C   UNL A   1     -23.906  -3.173  29.146  0.00  0.00    -0.003 C 
ATOM     29  C   UNL A   1     -23.989  -4.549  28.853  0.00  0.00    -0.000 C 
ATOM     30  C   UNL A   1     -25.137  -5.280  29.205  0.00  0.00    -0.000 C 
ATOM     31  C   UNL A   1     -26.232  -4.611  29.784  0.00  0.00    -0.000 C 
ATOM     32  C   UNL A   1     -26.155  -3.232  30.065  0.00  0.00    -0.003 C 
ENDBRANCH  26  27
BRANCH  26  33
ATOM     33  C   UNL A   1     -25.387  -0.679  31.571  0.00  0.00    +0.095 C 
ATOM     34  C   UNL A   1     -25.189   0.773  32.028  0.00  0.00    +0.021 C 
ATOM     35  C   UNL A   1     -25.336   0.684  33.544  0.00  0.00    +0.020 C 
ATOM     36  C   UNL A   1     -24.829  -0.715  33.905  0.00  0.00    +0.089 C 
ATOM     37  N   UNL A   1     -24.758  -1.481  32.646  0.00  0.00    -0.217 NA
ENDBRANCH  26  33
ENDBRANCH  25  26
BRANCH  25  38
ATOM     38  C   UNL A   1     -25.854   1.272  29.489  0.00  0.00    +0.156 C 
BRANCH  38  40
ATOM     39  O   UNL A   1     -27.986   0.273  29.427  0.00  0.00    -0.294 OA
ATOM     40  C   UNL A   1     -27.314   1.266  29.717  0.00  0.00    +0.171 C 
BRANCH  40  42
ATOM     41  C   UNL A   1     -26.994   3.657  30.811  0.00  0.00    +0.008 C 
ATOM     42  C   UNL A   1     -27.908   2.538  30.294  0.00  0.00    +0.066 C 
ENDBRANCH  40  42
ENDBRANCH  38  40
ENDBRANCH  25  38
ENDBRANCH   1  25
TORSDOF 12
