MODEL 3345
MODEL 1
REMARK VINA RESULT:    -8.009      0.000      0.000
REMARK INTER + INTRA:          -9.518
REMARK INTER:                  -8.946
REMARK INTRA:                  -0.572
REMARK UNBOUND:                -0.572
REMARK  Name = No_3345-gen_results/8p0m/2024-11-27-11-27-31/
REMARK  2 active torsions:
REMARK  status: ('A' for Active; 'I' for Inactive)
REMARK    1  A    between atoms: C_4  and  C_9
REMARK    2  A    between atoms: C_9  and  C_10
REMARK                            x       y       z     vdW  Elec       q    Type
REMARK                         _______ _______ _______ _____ _____    ______ ____
ROOT
ATOM      1  C   UNL A   1     -25.404  -0.383  27.035  0.00  0.00    -0.000 A 
ATOM      2  C   UNL A   1     -25.843   0.214  26.286  0.00  0.00    -0.000 A 
ATOM      3  C   UNL A   1     -24.139   0.065  27.542  0.00  0.00    -0.004 A 
ATOM      4  C   UNL A   1     -23.529  -0.569  28.730  0.00  0.00    -0.018 A 
ATOM      5  C   UNL A   1     -22.212  -0.488  29.005  0.00  0.00    -0.004 A 
ATOM      6  C   UNL A   1     -25.251   1.259  25.462  0.00  0.00    -0.000 A 
ATOM      7  C   UNL A   1     -24.037   1.669  25.881  0.00  0.00    -0.000 A 
ATOM      8  C   UNL A   1     -23.430   1.088  26.990  0.00  0.00    -0.000 A 
ATOM      9  C   UNL A   1     -22.162   1.403  27.451  0.00  0.00    -0.000 A 
ATOM     10  C   UNL A   1     -21.518   0.626  28.453  0.00  0.00    -0.000 A 
ENDROOT
BRANCH   4  11
ATOM     11  C   UNL A   1     -24.344  -1.158  29.768  0.00  0.00    +0.053 C 
BRANCH  11  12
ATOM     12  C   UNL A   1     -24.707  -2.560  29.597  0.00  0.00    -0.018 A 
ATOM     13  C   UNL A   1     -23.900  -3.352  28.879  0.00  0.00    -0.004 A 
ATOM     14  C   UNL A   1     -24.022  -4.570  28.636  0.00  0.00    -0.000 A 
ATOM     15  C   UNL A   1     -25.258  -5.245  28.981  0.00  0.00    -0.000 A 
ATOM     16  C   UNL A   1     -25.968  -3.097  30.033  0.00  0.00    -0.004 A 
ATOM     17  C   UNL A   1     -26.233  -4.473  29.681  0.00  0.00    -0.000 A 
ENDBRANCH  11  12
ENDBRANCH   4  11
TORSDOF 2
ENDMDL
ENDMDL
