MODEL 3347
MODEL 1
REMARK VINA RESULT:    -4.184      0.000      0.000
REMARK INTER + INTRA:          -4.184
REMARK INTER:                  -4.184
REMARK INTRA:                   0.000
REMARK UNBOUND:                 0.000
REMARK  Name = No_3347-gen_results/8p0m/2024-11-27-11-27-31/
REMARK  0 active torsions:
REMARK  status: ('A' for Active; 'I' for Inactive)
REMARK                            x       y       z     vdW  Elec       q    Type
REMARK                         _______ _______ _______ _____ _____    ______ ____
ROOT
ATOM      1  C   UNL A   1     -26.133  -4.769  29.648  0.00  0.00    +0.000 A 
ATOM      2  C   UNL A   1     -26.155  -3.719  29.731  0.00  0.00    +0.000 A 
ATOM      3  C   UNL A   1     -24.971  -5.352  28.958  0.00  0.00    +0.000 A 
ATOM      4  C   UNL A   1     -23.877  -4.530  28.560  0.00  0.00    +0.000 A 
ATOM      5  C   UNL A   1     -25.143  -2.661  29.460  0.00  0.00    +0.000 A 
ATOM      6  C   UNL A   1     -24.054  -3.162  28.811  0.00  0.00    +0.000 A 
ENDROOT
TORSDOF 0
ENDMDL
ENDMDL
