MODEL 3349
MODEL 1
REMARK VINA RESULT:    -5.078      0.000      0.000
REMARK INTER + INTRA:          -5.463
REMARK INTER:                  -5.375
REMARK INTRA:                  -0.089
REMARK UNBOUND:                -0.089
REMARK  Name = No_3349-gen_results/8p0m/2024-11-27-11-27-31/
REMARK  1 active torsions:
REMARK  status: ('A' for Active; 'I' for Inactive)
REMARK    1  A    between atoms: C_5  and  C_7
REMARK                            x       y       z     vdW  Elec       q    Type
REMARK                         _______ _______ _______ _____ _____    ______ ____
ROOT
ATOM      1  C   UNL A   1     -26.803  -3.155  30.096  0.00  0.00    +0.001 A 
ATOM      2  C   UNL A   1     -26.430  -4.241  29.717  0.00  0.00    +0.011 A 
ATOM      3  C   UNL A   1     -25.144  -4.544  29.305  0.00  0.00    +0.058 A 
ATOM      4  C   UNL A   1     -24.180  -3.494  29.363  0.00  0.00    +0.016 A 
ATOM      5  C   UNL A   1     -24.578  -2.346  29.935  0.00  0.00    +0.056 A 
ATOM      6  C   UNL A   1     -25.803  -2.165  30.337  0.00  0.00    +0.005 A 
ATOM      7 CL   UNL A   1     -24.720  -6.063  28.562  0.00  0.00    -0.082 Cl
ENDROOT
BRANCH   5   8
ATOM      8  C   UNL A   1     -23.537  -1.291  30.006  0.00  0.00    +0.265 C 
ATOM      9  O   UNL A   1     -23.126  -0.816  31.035  0.00  0.00    -0.268 OA
ATOM     10  N   UNL A   1     -22.577  -1.341  28.952  0.00  0.00    -0.200 NA
ATOM     11  C   UNL A   1     -21.410  -0.553  29.032  0.00  0.00    +0.139 C 
ENDBRANCH   5   8
TORSDOF 1
ENDMDL
ENDMDL
