MODEL 334
MODEL 1
REMARK VINA RESULT:    -7.434      0.000      0.000
REMARK INTER + INTRA:         -10.882
REMARK INTER:                  -9.607
REMARK INTRA:                  -1.275
REMARK UNBOUND:                -1.275
REMARK  Name = No_334-gen_results/8p0m/2024-11-27-11-27-31/
REMARK  5 active torsions:
REMARK  status: ('A' for Active; 'I' for Inactive)
REMARK    1  A    between atoms: C_2  and  C_5
REMARK    2  A    between atoms: C_3  and  C_4
REMARK    3  A    between atoms: C_7  and  C_8
REMARK    4  A    between atoms: C_8  and  C_18
REMARK    5  A    between atoms: C_19  and  C_20
REMARK                            x       y       z     vdW  Elec       q    Type
REMARK                         _______ _______ _______ _____ _____    ______ ____
ROOT
ATOM      1  C   UNL A   1     -23.984   0.879  26.576  0.00  0.00    -0.000 A 
ATOM      2  C   UNL A   1     -24.020   0.157  27.387  0.00  0.00    -0.004 A 
ATOM      3  C   UNL A   1     -22.937  -0.043  28.425  0.00  0.00    -0.018 A 
ATOM      4  C   UNL A   1     -22.812   1.917  26.596  0.00  0.00    -0.000 A 
ATOM      5  C   UNL A   1     -21.712   1.755  27.469  0.00  0.00    -0.000 A 
ATOM      6  C   UNL A   1     -21.875   0.835  28.455  0.00  0.00    -0.004 A 
ENDROOT
BRANCH   1   9
ATOM      7  C   UNL A   1     -25.688   2.521  25.859  0.00  0.00    +0.005 A 
ATOM      8  C   UNL A   1     -26.689   2.461  25.535  0.00  0.00    +0.055 A 
ATOM      9  C   UNL A   1     -24.949   1.267  25.713  0.00  0.00    +0.000 A 
ATOM     10  C   UNL A   1     -27.363   1.266  24.746  0.00  0.00    +0.005 A 
ATOM     11  C   UNL A   1     -26.695   0.187  24.501  0.00  0.00    +0.000 A 
ATOM     12  C   UNL A   1     -25.489   0.108  24.989  0.00  0.00    +0.000 A 
BRANCH   8  13
ATOM     13  C   UNL A   1     -27.636   3.509  25.856  0.00  0.00    +0.265 C 
ATOM     14  O   UNL A   1     -27.426   4.388  26.461  0.00  0.00    -0.268 OA
ATOM     15  N   UNL A   1     -28.994   3.250  25.470  0.00  0.00    -0.200 NA
ATOM     16  C   UNL A   1     -29.736   3.952  24.995  0.00  0.00    +0.139 C 
ENDBRANCH   8  13
ENDBRANCH   1   9
BRANCH   3  17
ATOM     17  C   UNL A   1     -23.073  -0.955  29.462  0.00  0.00    +0.052 C 
BRANCH  17  18
ATOM     18  C   UNL A   1     -24.314  -1.453  29.759  0.00  0.00    -0.021 C 
ATOM     19  C   UNL A   1     -24.596  -2.826  29.568  0.00  0.00    -0.005 C 
BRANCH  19  20
ATOM     20  C   UNL A   1     -25.809  -3.436  29.706  0.00  0.00    -0.005 C 
ATOM     21  C   UNL A   1     -25.868  -4.789  29.314  0.00  0.00    -0.026 C 
ATOM     22  C   UNL A   1     -24.747  -5.460  28.917  0.00  0.00    +0.031 C 
ENDBRANCH  19  20
ENDBRANCH  17  18
ENDBRANCH   3  17
TORSDOF 5
ENDMDL
ENDMDL
