REMARK  Name = No_335-gen_results/8p0m/2024-11-27-11-27-31/
REMARK  4 active torsions:
REMARK  status: ('A' for Active; 'I' for Inactive)
REMARK    1  A    between atoms: C_1  and  N_8
REMARK    2  A    between atoms: N_8  and  C_13
REMARK    3  A    between atoms: C_14  and  C_15
REMARK    4  A    between atoms: C_16  and  C_17
REMARK                            x       y       z     vdW  Elec       q    Type
REMARK                         _______ _______ _______ _____ _____    ______ ____
ROOT
ATOM      1  C   UNL A   1     -28.016  -0.814  28.878  0.00  0.00    +0.077 C 
ATOM      2  C   UNL A   1     -27.064  -0.119  28.608  0.00  0.00    -0.023 C 
ATOM      3  C   UNL A   1     -25.765  -0.390  29.036  0.00  0.00    +0.049 C 
ATOM      4  C   UNL A   1     -24.552   0.406  28.765  0.00  0.00    -0.022 A 
ATOM      5  C   UNL A   1     -24.696   1.448  27.799  0.00  0.00    -0.025 A 
ATOM      6  C   UNL A   1     -25.976   1.725  27.308  0.00  0.00    +0.030 C 
ATOM      7  C   UNL A   1     -27.072   1.013  27.654  0.00  0.00    +0.028 C 
ATOM      8  C   UNL A   1     -23.494   2.169  27.479  0.00  0.00    -0.005 A 
ATOM      9  C   UNL A   1     -22.370   1.602  27.368  0.00  0.00    -0.000 A 
ATOM     10  C   UNL A   1     -22.090   0.531  28.302  0.00  0.00    -0.000 A 
ATOM     11  C   UNL A   1     -23.208  -0.165  28.977  0.00  0.00    -0.004 A 
ENDROOT
BRANCH   1  12
ATOM     12  N   UNL A   1     -28.608  -0.591  30.110  0.00  0.00    -0.210 NA
BRANCH  12  13
ATOM     13  C   UNL A   1     -29.466  -0.293  30.587  0.00  0.00    +0.086 C 
ATOM     14  C   UNL A   1     -30.515   0.166  29.795  0.00  0.00    +0.018 C 
BRANCH  14  15
ATOM     15  C   UNL A   1     -31.753   0.617  30.386  0.00  0.00    +0.001 C 
ATOM     16  C   UNL A   1     -32.687   1.230  29.598  0.00  0.00    +0.000 C 
BRANCH  16  17
ATOM     17  C   UNL A   1     -32.488   1.271  28.200  0.00  0.00    +0.000 C 
ATOM     18  C   UNL A   1     -31.344   0.821  27.631  0.00  0.00    +0.000 C 
ENDBRANCH  16  17
ENDBRANCH  14  15
ENDBRANCH  12  13
ENDBRANCH   1  12
TORSDOF 4
