REMARK  Name = outputs/IAG933/test6/raw/output_3350_IAG933_linker_design_.xyz
REMARK  10 active torsions:
REMARK  status: ('A' for Active; 'I' for Inactive)
REMARK    1  A    between atoms: C_1  and  C_2
REMARK    2  A    between atoms: C_1  and  C_8
REMARK    3  A    between atoms: C_1  and  C_28
REMARK    4  A    between atoms: C_9  and  C_33
REMARK    5  A    between atoms: C_13  and  C_29
REMARK    6  A    between atoms: C_14  and  C_15
REMARK    7  A    between atoms: C_21  and  O_22
REMARK    8  A    between atoms: O_22  and  C_23
REMARK    9  A    between atoms: C_23  and  C_24
REMARK   10  A    between atoms: C_30  and  N_42
REMARK                            x       y       z     vdW  Elec       q    Type
REMARK                         _______ _______ _______ _____ _____    ______ ____
ROOT
ATOM      1  C   UNL A   1     -24.064  -0.094  29.218  0.00  0.00    +0.070 C 
ATOM      2  C   UNL A   1     -24.736   1.234  27.415  0.00  0.00    +0.089 C 
ATOM      3  C   UNL A   1     -22.452   1.268  27.845  0.00  0.00    -0.024 C 
ATOM      4  C   UNL A   1     -21.140   1.642  27.492  0.00  0.00    -0.004 C 
ATOM      5  C   UNL A   1     -23.390   1.379  26.779  0.00  0.00    -0.011 C 
ATOM      6  C   UNL A   1     -22.750   0.692  29.218  0.00  0.00    +0.043 C 
ATOM      7  C   UNL A   1     -23.113   1.550  25.397  0.00  0.00    -0.003 C 
ATOM      8  C   UNL A   1     -20.831   1.845  26.138  0.00  0.00    -0.000 C 
ATOM      9  C   UNL A   1     -21.772   1.784  25.115  0.00  0.00    -0.000 C 
ATOM     10  N   UNL A   1     -24.991   1.021  28.840  0.00  0.00    -0.243 NA
ENDROOT
BRANCH   2  11
ATOM     11  C   UNL A   1     -25.688   1.614  26.461  0.00  0.00    +0.089 C 
ATOM     12  C   UNL A   1     -26.250   2.920  26.395  0.00  0.00    +0.057 C 
ATOM     13  C   UNL A   1     -27.438   3.091  25.645  0.00  0.00    +0.102 C 
ATOM     14  N   UNL A   1     -28.075   2.089  25.003  0.00  0.00    -0.212 NA
ATOM     15  C   UNL A   1     -27.543   0.849  25.079  0.00  0.00    +0.234 C 
ATOM     16  C   UNL A   1     -26.354   0.576  25.777  0.00  0.00    +0.242 C 
ATOM     17  F   UNL A   1     -25.860  -0.681  25.795  0.00  0.00    -0.227 F 
BRANCH  12  18
ATOM     18  C   UNL A   1     -25.642   4.093  27.123  0.00  0.00    +0.263 C 
ATOM     19  N   UNL A   1     -25.614   5.252  26.449  0.00  0.00    -0.200 NA
ATOM     20  C   UNL A   1     -25.026   6.479  26.963  0.00  0.00    +0.139 C 
ATOM     21  O   UNL A   1     -25.143   3.966  28.243  0.00  0.00    -0.269 OA
ENDBRANCH  12  18
BRANCH  15  22
ATOM     22  O   UNL A   1     -28.193  -0.208  24.477  0.00  0.00    -0.459 OA
BRANCH  22  23
ATOM     23  C   UNL A   1     -29.460   0.005  23.866  0.00  0.00    +0.242 C 
BRANCH  23  24
ATOM     24  C   UNL A   1     -30.065  -1.377  23.573  0.00  0.00    +0.229 C 
ATOM     25  O   UNL A   1     -30.729  -1.878  24.721  0.00  0.00    -0.216 OA
ENDBRANCH  23  24
ENDBRANCH  22  23
ENDBRANCH  15  22
ENDBRANCH   2  11
BRANCH  10  26
ATOM     26  C   UNL A   1     -26.220   0.918  29.118  0.00  0.00    +0.259 C 
ATOM     27  O   UNL A   1     -27.290   0.845  29.123  0.00  0.00    -0.201 OA
ENDBRANCH  10  26
BRANCH   1  28
ATOM     28  C   UNL A   1     -24.855  -1.012  30.143  0.00  0.00    +0.054 C 
BRANCH  28  29
ATOM     29  C   UNL A   1     -24.973  -2.505  29.788  0.00  0.00    -0.020 C 
ATOM     30  C   UNL A   1     -23.906  -3.173  29.146  0.00  0.00    -0.004 C 
ATOM     31  C   UNL A   1     -23.989  -4.549  28.853  0.00  0.00    -0.000 C 
ATOM     32  C   UNL A   1     -25.137  -5.280  29.205  0.00  0.00    -0.000 C 
ATOM     33  C   UNL A   1     -26.232  -4.611  29.784  0.00  0.00    -0.000 C 
ATOM     34  C   UNL A   1     -26.155  -3.232  30.065  0.00  0.00    -0.004 C 
ENDBRANCH  28  29
BRANCH  28  35
ATOM     35  C   UNL A   1     -25.387  -0.679  31.571  0.00  0.00    +0.085 C 
ATOM     36  C   UNL A   1     -25.189   0.773  32.028  0.00  0.00    +0.075 C 
ATOM     37  C   UNL A   1     -25.336   0.684  33.544  0.00  0.00    +0.028 C 
ATOM     38  C   UNL A   1     -24.829  -0.715  33.905  0.00  0.00    +0.089 C 
ATOM     39  N   UNL A   1     -24.758  -1.481  32.646  0.00  0.00    -0.219 NA
BRANCH  36  42
ATOM     40  O   UNL A   1     -24.835   3.057  31.414  0.00  0.00    -0.296 OA
ATOM     41  C   UNL A   1     -27.104   2.803  31.432  0.00  0.00    +0.072 C 
ATOM     42  C   UNL A   1     -25.685   2.249  31.623  0.00  0.00    +0.152 C 
ENDBRANCH  36  42
ENDBRANCH  28  35
ENDBRANCH   1  28
TORSDOF 10
