MODEL 3351
MODEL 1
REMARK VINA RESULT:    -5.285      0.000      0.000
REMARK INTER + INTRA:          -6.046
REMARK INTER:                  -5.903
REMARK INTRA:                  -0.143
REMARK UNBOUND:                -0.143
REMARK  Name = No_3351-gen_results/8p0m/2024-11-27-11-27-31/
REMARK  2 active torsions:
REMARK  status: ('A' for Active; 'I' for Inactive)
REMARK    1  A    between atoms: C_3  and  C_7
REMARK    2  A    between atoms: C_8  and  C_9
REMARK                            x       y       z     vdW  Elec       q    Type
REMARK                         _______ _______ _______ _____ _____    ______ ____
ROOT
ATOM      1  C   UNL A   1     -23.949  -3.431  28.544  0.00  0.00    -0.000 A 
ATOM      2  C   UNL A   1     -24.025  -4.482  28.564  0.00  0.00    -0.000 A 
ATOM      3  C   UNL A   1     -25.094  -2.750  29.147  0.00  0.00    -0.004 A 
ATOM      4  C   UNL A   1     -26.145  -3.439  29.700  0.00  0.00    -0.022 A 
ATOM      5  C   UNL A   1     -24.989  -5.458  29.071  0.00  0.00    -0.000 A 
ATOM      6  C   UNL A   1     -26.101  -4.809  29.658  0.00  0.00    -0.004 A 
ATOM      7  C   UNL A   1     -27.277  -2.879  30.337  0.00  0.00    +0.031 C 
ENDROOT
BRANCH   3   8
ATOM      8  C   UNL A   1     -25.152  -1.263  29.250  0.00  0.00    -0.004 C 
ATOM      9  C   UNL A   1     -24.410  -0.696  30.300  0.00  0.00    -0.009 C 
BRANCH   9  10
ATOM     10  C   UNL A   1     -23.648  -1.433  31.211  0.00  0.00    +0.121 C 
ATOM     11 CL   UNL A   1     -23.937  -1.111  32.908  0.00  0.00    -0.108 Cl
ENDBRANCH   9  10
ENDBRANCH   3   8
TORSDOF 2
ENDMDL
ENDMDL
