MODEL 3352
MODEL 1
REMARK VINA RESULT:    -4.270      0.000      0.000
REMARK INTER + INTRA:          -4.270
REMARK INTER:                  -4.270
REMARK INTRA:                   0.000
REMARK UNBOUND:                 0.000
REMARK  Name = No_3352-gen_results/8p0m/2024-11-27-11-27-31/
REMARK  0 active torsions:
REMARK  status: ('A' for Active; 'I' for Inactive)
REMARK                            x       y       z     vdW  Elec       q    Type
REMARK                         _______ _______ _______ _____ _____    ______ ____
ROOT
ATOM      1  C   UNL A   1     -25.004  -5.319  29.034  0.00  0.00    +0.000 A 
ATOM      2  C   UNL A   1     -25.993  -4.800  29.496  0.00  0.00    +0.000 A 
ATOM      3  C   UNL A   1     -26.080  -3.456  29.802  0.00  0.00    +0.000 A 
ATOM      4  C   UNL A   1     -24.953  -2.634  29.519  0.00  0.00    +0.000 A 
ATOM      5  C   UNL A   1     -23.938  -3.226  28.847  0.00  0.00    +0.000 A 
ATOM      6  C   UNL A   1     -23.959  -4.513  28.559  0.00  0.00    +0.000 A 
ENDROOT
TORSDOF 0
ENDMDL
ENDMDL
