REMARK  Name = No_3353-gen_results/8p0m/2024-11-27-11-27-31/
REMARK  4 active torsions:
REMARK  status: ('A' for Active; 'I' for Inactive)
REMARK    1  A    between atoms: C_1  and  C_2
REMARK    2  A    between atoms: C_1  and  N_8
REMARK    3  A    between atoms: C_5  and  C_10
REMARK    4  A    between atoms: N_8  and  C_9
REMARK                            x       y       z     vdW  Elec       q    Type
REMARK                         _______ _______ _______ _____ _____    ______ ____
ROOT
ATOM      1  C   UNL A   1     -27.064  -0.119  28.608  0.00  0.00    -0.001 A 
ATOM      2  C   UNL A   1     -26.929   1.171  29.008  0.00  0.00    -0.003 A 
ATOM      3  C   UNL A   1     -25.770   2.034  28.688  0.00  0.00    +0.001 A 
ATOM      4  C   UNL A   1     -24.714   1.443  27.919  0.00  0.00    +0.044 A 
ATOM      5  C   UNL A   1     -24.859   0.078  27.584  0.00  0.00    +0.001 A 
ATOM      6  C   UNL A   1     -25.965  -0.661  27.916  0.00  0.00    -0.003 A 
ENDROOT
BRANCH   4   7
ATOM      7  C   UNL A   1     -23.516   2.162  27.579  0.00  0.00    +0.341 C 
ATOM      8  F   UNL A   1     -23.384   2.901  26.825  0.00  0.00    -0.193 F 
ATOM      9  F   UNL A   1     -22.357   1.608  28.104  0.00  0.00    -0.193 F 
ENDBRANCH   4   7
BRANCH   1  10
ATOM     10  C   UNL A   1     -28.016  -0.814  28.878  0.00  0.00    +0.139 C 
BRANCH  10  11
ATOM     11  N   UNL A   1     -29.178  -0.305  28.964  0.00  0.00    -0.232 NA
BRANCH  11  12
ATOM     12  C   UNL A   1     -30.177  -0.907  29.737  0.00  0.00    +0.081 C 
ATOM     13  C   UNL A   1     -31.512  -0.702  29.447  0.00  0.00    +0.019 C 
ENDBRANCH  11  12
ENDBRANCH  10  11
ENDBRANCH   1  10
TORSDOF 4
