MODEL 3353
MODEL 1
REMARK VINA RESULT:    -5.668      0.000      0.000
REMARK INTER + INTRA:          -7.240
REMARK INTER:                  -6.993
REMARK INTRA:                  -0.247
REMARK UNBOUND:                -0.247
REMARK  Name = No_3353-gen_results/8p0m/2024-11-27-11-27-31/
REMARK  4 active torsions:
REMARK  status: ('A' for Active; 'I' for Inactive)
REMARK    1  A    between atoms: C_1  and  C_2
REMARK    2  A    between atoms: C_1  and  N_8
REMARK    3  A    between atoms: C_5  and  C_10
REMARK    4  A    between atoms: N_8  and  C_9
REMARK                            x       y       z     vdW  Elec       q    Type
REMARK                         _______ _______ _______ _____ _____    ______ ____
ROOT
ATOM      1  C   UNL A   1     -23.409  -0.504  28.564  0.00  0.00    -0.001 A 
ATOM      2  C   UNL A   1     -22.332   0.321  28.522  0.00  0.00    -0.003 A 
ATOM      3  C   UNL A   1     -22.179   1.458  27.588  0.00  0.00    +0.001 A 
ATOM      4  C   UNL A   1     -23.244   1.677  26.653  0.00  0.00    +0.044 A 
ATOM      5  C   UNL A   1     -24.314   0.754  26.680  0.00  0.00    +0.001 A 
ATOM      6  C   UNL A   1     -24.387  -0.280  27.577  0.00  0.00    -0.003 A 
ENDROOT
BRANCH   4   7
ATOM      7  C   UNL A   1     -23.198   2.721  25.666  0.00  0.00    +0.341 C 
ATOM      8  F   UNL A   1     -23.873   3.533  25.534  0.00  0.00    -0.193 F 
ATOM      9  F   UNL A   1     -22.343   2.458  24.605  0.00  0.00    -0.193 F 
ENDBRANCH   4   7
BRANCH   1  10
ATOM     10  C   UNL A   1     -23.520  -1.432  29.332  0.00  0.00    +0.139 C 
BRANCH  10  11
ATOM     11  N   UNL A   1     -23.462  -2.628  28.905  0.00  0.00    -0.232 NA
BRANCH  11  12
ATOM     12  C   UNL A   1     -24.434  -3.571  29.257  0.00  0.00    +0.081 C 
ATOM     13  C   UNL A   1     -24.336  -4.879  28.824  0.00  0.00    +0.019 C 
ENDBRANCH  11  12
ENDBRANCH  10  11
ENDBRANCH   1  10
TORSDOF 4
ENDMDL
ENDMDL
