MODEL 3355
MODEL 1
REMARK VINA RESULT:    -6.587      0.000      0.000
REMARK INTER + INTRA:          -7.354
REMARK INTER:                  -6.972
REMARK INTRA:                  -0.382
REMARK UNBOUND:                -0.382
REMARK  Name = No_3355-gen_results/8p0m/2024-11-27-11-27-31/
REMARK  1 active torsions:
REMARK  status: ('A' for Active; 'I' for Inactive)
REMARK    1  A    between atoms: C_3  and  C_7
REMARK                            x       y       z     vdW  Elec       q    Type
REMARK                         _______ _______ _______ _____ _____    ______ ____
ROOT
ATOM      1  C   UNL A   1     -23.923  -3.990  28.563  0.00  0.00    +0.000 A 
ATOM      2  C   UNL A   1     -24.463  -4.860  28.812  0.00  0.00    +0.000 A 
ATOM      3  C   UNL A   1     -24.506  -2.742  28.874  0.00  0.00    +0.000 A 
ATOM      4  C   UNL A   1     -25.748  -2.643  29.471  0.00  0.00    +0.000 A 
ATOM      5  C   UNL A   1     -26.385  -3.836  29.769  0.00  0.00    +0.000 A 
ATOM      6  C   UNL A   1     -25.634  -5.067  29.450  0.00  0.00    +0.000 A 
ENDROOT
BRANCH   3   7
ATOM      7  C   UNL A   1     -23.856  -1.416  28.593  0.00  0.00    +0.000 A 
ATOM      8  C   UNL A   1     -22.616  -1.252  29.149  0.00  0.00    +0.000 A 
ATOM      9  C   UNL A   1     -24.447  -0.436  27.821  0.00  0.00    +0.000 A 
ATOM     10  C   UNL A   1     -23.725   0.681  27.473  0.00  0.00    +0.000 A 
ATOM     11  C   UNL A   1     -21.926  -0.027  28.926  0.00  0.00    +0.000 A 
ATOM     12  C   UNL A   1     -22.491   0.911  28.046  0.00  0.00    +0.000 A 
ENDBRANCH   3   7
TORSDOF 1
ENDMDL
ENDMDL
