REMARK  Name = outputs/IAG933/test6/raw/output_3356_IAG933_linker_design_.xyz
REMARK  13 active torsions:
REMARK  status: ('A' for Active; 'I' for Inactive)
REMARK    1  A    between atoms: C_1  and  C_2
REMARK    2  A    between atoms: C_1  and  C_8
REMARK    3  A    between atoms: C_1  and  O_47
REMARK    4  A    between atoms: C_9  and  C_46
REMARK    5  A    between atoms: C_13  and  C_45
REMARK    6  A    between atoms: C_14  and  C_15
REMARK    7  A    between atoms: C_21  and  O_22
REMARK    8  A    between atoms: O_22  and  C_23
REMARK    9  A    between atoms: C_23  and  C_24
REMARK   10  A    between atoms: C_30  and  C_37
REMARK   11  A    between atoms: C_30  and  C_46
REMARK   12  A    between atoms: C_31  and  O_33
REMARK   13  A    between atoms: C_36  and  O_47
REMARK                            x       y       z     vdW  Elec       q    Type
REMARK                         _______ _______ _______ _____ _____    ______ ____
ROOT
ATOM      1  C   UNL A   1     -23.275   1.849  26.687  0.00  0.00    +0.166 C 
ATOM      2  C   UNL A   1     -22.204   1.762  27.538  0.00  0.00    +0.177 C 
ATOM      3  C   UNL A   1     -22.292   1.079  28.721  0.00  0.00    +0.070 C 
ATOM      4  C   UNL A   1     -23.503   0.494  29.004  0.00  0.00    +0.141 C 
ATOM      5  F   UNL A   1     -21.068   2.441  27.306  0.00  0.00    -0.201 F 
ATOM      6  C   UNL A   1     -24.562   0.561  28.157  0.00  0.00    +0.040 C 
ATOM      7  C   UNL A   1     -24.473   1.353  27.088  0.00  0.00    +0.042 C 
ENDROOT
BRANCH   7   8
ATOM      8  C   UNL A   1     -25.688   1.614  26.461  0.00  0.00    +0.041 C 
ATOM      9  C   UNL A   1     -26.250   2.920  26.395  0.00  0.00    +0.077 C 
ATOM     10  C   UNL A   1     -27.438   3.091  25.645  0.00  0.00    +0.107 C 
ATOM     11  N   UNL A   1     -28.075   2.089  25.003  0.00  0.00    -0.208 NA
ATOM     12  C   UNL A   1     -27.543   0.849  25.079  0.00  0.00    +0.253 C 
ATOM     13  C   UNL A   1     -26.354   0.576  25.777  0.00  0.00    +0.193 C 
ATOM     14  F   UNL A   1     -25.860  -0.681  25.795  0.00  0.00    -0.199 F 
BRANCH   9  15
ATOM     15  C   UNL A   1     -25.642   4.093  27.123  0.00  0.00    +0.266 C 
ATOM     16  N   UNL A   1     -25.614   5.252  26.449  0.00  0.00    -0.200 NA
ATOM     17  C   UNL A   1     -25.026   6.479  26.963  0.00  0.00    +0.139 C 
ATOM     18  O   UNL A   1     -25.143   3.966  28.243  0.00  0.00    -0.268 OA
ENDBRANCH   9  15
BRANCH  12  19
ATOM     19  O   UNL A   1     -28.193  -0.208  24.477  0.00  0.00    -0.456 OA
BRANCH  19  20
ATOM     20  C   UNL A   1     -29.460   0.005  23.866  0.00  0.00    +0.243 C 
BRANCH  20  21
ATOM     21  C   UNL A   1     -30.065  -1.377  23.573  0.00  0.00    +0.229 C 
ATOM     22  O   UNL A   1     -30.729  -1.878  24.721  0.00  0.00    -0.216 OA
ENDBRANCH  20  21
ENDBRANCH  19  20
ENDBRANCH  12  19
ENDBRANCH   7   8
BRANCH   1  24
ATOM     23  C   UNL A   1     -22.305   2.472  24.510  0.00  0.00    +0.253 C 
ATOM     24  O   UNL A   1     -23.309   2.409  25.473  0.00  0.00    -0.469 OA
ENDBRANCH   1  24
BRANCH   4  25
ATOM     25  O   UNL A   1     -23.722  -0.188  30.116  0.00  0.00    -0.473 OA
BRANCH  25  26
ATOM     26  C   UNL A   1     -24.855  -1.012  30.143  0.00  0.00    +0.204 C 
BRANCH  26  27
ATOM     27  C   UNL A   1     -24.973  -2.505  29.788  0.00  0.00    +0.019 C 
ATOM     28  C   UNL A   1     -23.906  -3.173  29.146  0.00  0.00    -0.001 C 
ATOM     29  C   UNL A   1     -23.989  -4.549  28.853  0.00  0.00    -0.000 C 
ATOM     30  C   UNL A   1     -25.137  -5.280  29.205  0.00  0.00    -0.000 C 
ATOM     31  C   UNL A   1     -26.232  -4.611  29.784  0.00  0.00    -0.000 C 
ATOM     32  C   UNL A   1     -26.155  -3.232  30.065  0.00  0.00    -0.001 C 
ENDBRANCH  26  27
BRANCH  26  33
ATOM     33  C   UNL A   1     -25.387  -0.679  31.571  0.00  0.00    +0.117 C 
ATOM     34  C   UNL A   1     -25.189   0.773  32.028  0.00  0.00    +0.022 C 
ATOM     35  C   UNL A   1     -25.336   0.684  33.544  0.00  0.00    +0.020 C 
ATOM     36  C   UNL A   1     -24.829  -0.715  33.905  0.00  0.00    +0.089 C 
ATOM     37  N   UNL A   1     -24.758  -1.481  32.646  0.00  0.00    -0.215 NA
BRANCH  34  38
ATOM     38  C   UNL A   1     -25.935   1.990  31.570  0.00  0.00    +0.011 C 
BRANCH  38  39
ATOM     39  C   UNL A   1     -26.041   3.078  32.462  0.00  0.00    +0.085 C 
BRANCH  39  42
ATOM     40  O   UNL A   1     -25.739   4.612  30.821  0.00  0.00    -0.275 OA
ATOM     41  C   UNL A   1     -23.612   7.251  32.659  0.00  0.00    +0.021 C 
ATOM     42  C   UNL A   1     -25.549   4.290  31.983  0.00  0.00    +0.226 C 
ATOM     43  C   UNL A   1     -23.556   5.715  32.876  0.00  0.00    +0.093 C 
ATOM     44  C   UNL A   1     -24.044   7.364  35.088  0.00  0.00    +0.002 C 
ATOM     45  C   UNL A   1     -24.332   8.029  33.746  0.00  0.00    +0.002 C 
ATOM     46  N   UNL A   1     -24.939   5.130  32.869  0.00  0.00    -0.280 N 
ATOM     47  C   UNL A   1     -24.835   6.053  35.236  0.00  0.00    +0.021 C 
ATOM     48  C   UNL A   1     -25.668   5.361  34.160  0.00  0.00    +0.093 C 
ENDBRANCH  39  42
ENDBRANCH  38  39
ENDBRANCH  34  38
ENDBRANCH  26  33
ENDBRANCH  25  26
ENDBRANCH   4  25
TORSDOF 13
