REMARK  Name = outputs/IAG933/test6/raw/output_3357_IAG933_linker_design_.xyz
REMARK  13 active torsions:
REMARK  status: ('A' for Active; 'I' for Inactive)
REMARK    1  A    between atoms: C_1  and  C_2
REMARK    2  A    between atoms: C_1  and  C_8
REMARK    3  A    between atoms: C_9  and  C_37
REMARK    4  A    between atoms: C_13  and  C_33
REMARK    5  A    between atoms: C_14  and  C_15
REMARK    6  A    between atoms: C_21  and  O_22
REMARK    7  A    between atoms: O_22  and  C_23
REMARK    8  A    between atoms: C_23  and  C_24
REMARK    9  A    between atoms: C_34  and  N_35
REMARK   10  A    between atoms: C_34  and  C_39
REMARK   11  A    between atoms: C_37  and  C_39
REMARK   12  A    between atoms: C_37  and  C_41
REMARK   13  A    between atoms: C_41  and  C_48
REMARK                            x       y       z     vdW  Elec       q    Type
REMARK                         _______ _______ _______ _____ _____    ______ ____
ROOT
ATOM      1  C   UNL A   1     -25.844   1.935  31.386  0.00  0.00    +0.007 C 
ENDROOT
BRANCH   1   3
ATOM      2  C   UNL A   1     -25.387  -0.679  31.571  0.00  0.00    +0.077 C 
ATOM      3  C   UNL A   1     -25.189   0.773  32.028  0.00  0.00    +0.018 C 
ATOM      4  C   UNL A   1     -25.336   0.684  33.544  0.00  0.00    +0.020 C 
ATOM      5  C   UNL A   1     -24.829  -0.715  33.905  0.00  0.00    +0.089 C 
ATOM      6  N   UNL A   1     -24.758  -1.481  32.646  0.00  0.00    -0.219 NA
BRANCH   2   7
ATOM      7  C   UNL A   1     -24.855  -1.012  30.143  0.00  0.00    +0.044 C 
BRANCH   7   8
ATOM      8  C   UNL A   1     -24.973  -2.505  29.788  0.00  0.00    -0.021 C 
ATOM      9  C   UNL A   1     -23.906  -3.173  29.146  0.00  0.00    -0.004 C 
ATOM     10  C   UNL A   1     -23.989  -4.549  28.853  0.00  0.00    -0.000 C 
ATOM     11  C   UNL A   1     -25.137  -5.280  29.205  0.00  0.00    -0.000 C 
ATOM     12  C   UNL A   1     -26.232  -4.611  29.784  0.00  0.00    -0.000 C 
ATOM     13  C   UNL A   1     -26.155  -3.232  30.065  0.00  0.00    -0.004 C 
ENDBRANCH   7   8
ENDBRANCH   2   7
ENDBRANCH   1   3
BRANCH   1  14
ATOM     14  C   UNL A   1     -25.547   1.998  30.085  0.00  0.00    +0.018 C 
BRANCH  14  15
ATOM     15  C   UNL A   1     -24.034   2.069  30.083  0.00  0.00    +0.072 C 
BRANCH  15  18
ATOM     16  C   UNL A   1     -22.481   2.323  27.885  0.00  0.00    +0.058 C 
ATOM     17  C   UNL A   1     -24.251   1.250  26.764  0.00  0.00    +0.025 C 
ATOM     18  N   UNL A   1     -23.379   1.531  28.848  0.00  0.00    -0.274 NA
ATOM     19  C   UNL A   1     -21.131   1.538  27.628  0.00  0.00    +0.017 C 
ATOM     20  C   UNL A   1     -24.270   0.653  28.054  0.00  0.00    +0.072 C 
ATOM     21  C   UNL A   1     -23.287   2.114  26.566  0.00  0.00    +0.018 C 
BRANCH  17  22
ATOM     22  C   UNL A   1     -25.688   1.614  26.461  0.00  0.00    +0.071 C 
ATOM     23  C   UNL A   1     -26.250   2.920  26.395  0.00  0.00    +0.055 C 
ATOM     24  C   UNL A   1     -27.438   3.091  25.645  0.00  0.00    +0.102 C 
ATOM     25  N   UNL A   1     -28.075   2.089  25.003  0.00  0.00    -0.212 NA
ATOM     26  C   UNL A   1     -27.543   0.849  25.079  0.00  0.00    +0.234 C 
ATOM     27  C   UNL A   1     -26.354   0.576  25.777  0.00  0.00    +0.240 C 
ATOM     28  F   UNL A   1     -25.860  -0.681  25.795  0.00  0.00    -0.227 F 
BRANCH  23  29
ATOM     29  C   UNL A   1     -25.642   4.093  27.123  0.00  0.00    +0.262 C 
ATOM     30  N   UNL A   1     -25.614   5.252  26.449  0.00  0.00    -0.200 NA
ATOM     31  C   UNL A   1     -25.026   6.479  26.963  0.00  0.00    +0.139 C 
ATOM     32  O   UNL A   1     -25.143   3.966  28.243  0.00  0.00    -0.269 OA
ENDBRANCH  23  29
BRANCH  26  33
ATOM     33  O   UNL A   1     -28.193  -0.208  24.477  0.00  0.00    -0.459 OA
BRANCH  33  34
ATOM     34  C   UNL A   1     -29.460   0.005  23.866  0.00  0.00    +0.242 C 
BRANCH  34  35
ATOM     35  C   UNL A   1     -30.065  -1.377  23.573  0.00  0.00    +0.229 C 
ATOM     36  O   UNL A   1     -30.729  -1.878  24.721  0.00  0.00    -0.216 OA
ENDBRANCH  34  35
ENDBRANCH  33  34
ENDBRANCH  26  33
ENDBRANCH  17  22
ENDBRANCH  15  18
ENDBRANCH  14  15
ENDBRANCH   1  14
BRANCH   1  37
ATOM     37  C   UNL A   1     -26.411   3.092  32.062  0.00  0.00    +0.026 C 
BRANCH  37  48
ATOM     38  C   UNL A   1     -26.692   7.668  32.445  0.00  0.00    -0.014 C 
ATOM     39  C   UNL A   1     -25.680   6.955  31.740  0.00  0.00    +0.066 C 
ATOM     40  C   UNL A   1     -25.840   5.687  31.229  0.00  0.00    -0.022 C 
ATOM     41  C   UNL A   1     -26.478   8.935  32.968  0.00  0.00    -0.004 C 
ATOM     42  C   UNL A   1     -25.218   9.518  32.922  0.00  0.00    -0.001 C 
ATOM     43  C   UNL A   1     -27.910   7.083  32.698  0.00  0.00    -0.004 C 
ATOM     44  C   UNL A   1     -28.042   4.829  32.056  0.00  0.00    -0.005 C 
ATOM     45  C   UNL A   1     -24.447   7.573  31.618  0.00  0.00    -0.018 C 
ATOM     46  C   UNL A   1     -24.209   8.807  32.228  0.00  0.00    -0.004 C 
ATOM     47  C   UNL A   1     -28.433   5.962  32.692  0.00  0.00    -0.001 C 
ATOM     48  C   UNL A   1     -26.730   4.605  31.645  0.00  0.00    -0.026 C 
ENDBRANCH  37  48
ENDBRANCH   1  37
TORSDOF 13
