MODEL 3357
MODEL 1
REMARK VINA RESULT:    -8.226      0.000      0.000
REMARK INTER + INTRA:         -12.826
REMARK INTER:                 -10.631
REMARK INTRA:                  -2.196
REMARK UNBOUND:                -2.196
REMARK  Name = No_3357-gen_results/8p0m/2024-11-27-11-27-31/
REMARK  5 active torsions:
REMARK  status: ('A' for Active; 'I' for Inactive)
REMARK    1  A    between atoms: N_14  and  C_15
REMARK    2  A    between atoms: C_16  and  C_22
REMARK    3  A    between atoms: C_17  and  C_25
REMARK    4  A    between atoms: C_30  and  C_31
REMARK    5  A    between atoms: C_32  and  C_33
REMARK                            x       y       z     vdW  Elec       q    Type
REMARK                         _______ _______ _______ _____ _____    ______ ____
ROOT
ATOM      1  C   UNL A   1     -23.904   0.970  28.753  0.00  0.00    +0.070 A 
ATOM      2  C   UNL A   1     -22.577   0.636  28.719  0.00  0.00    +0.096 A 
ATOM      3  C   UNL A   1     -24.459   1.905  27.870  0.00  0.00    +0.016 A 
ATOM      4  C   UNL A   1     -21.723   1.052  27.714  0.00  0.00    +0.008 A 
ATOM      5  C   UNL A   1     -23.550   2.489  26.926  0.00  0.00    +0.001 A 
ATOM      6  C   UNL A   1     -22.223   2.060  26.838  0.00  0.00    +0.000 A 
ENDROOT
BRANCH   1  20
ATOM      7  C   UNL A   1     -26.633   1.717  32.631  0.00  0.00    +0.005 A 
ATOM      8  C   UNL A   1     -26.058   2.599  32.669  0.00  0.00    +0.000 A 
ATOM      9  C   UNL A   1     -26.094   0.706  31.721  0.00  0.00    +0.055 A 
ATOM     10  C   UNL A   1     -26.663  -0.652  31.572  0.00  0.00    +0.198 A 
ATOM     11  C   UNL A   1     -24.837   3.062  32.025  0.00  0.00    +0.002 A 
ATOM     12  C   UNL A   1     -24.304   2.140  31.147  0.00  0.00    +0.018 A 
ATOM     13  C   UNL A   1     -24.884   0.933  31.015  0.00  0.00    +0.067 A 
ATOM     14  C   UNL A   1     -26.211  -1.384  30.458  0.00  0.00    +0.055 A 
ATOM     15  C   UNL A   1     -26.489  -2.750  30.437  0.00  0.00    +0.005 A 
ATOM     16  C   UNL A   1     -25.801  -3.541  29.392  0.00  0.00    +0.000 A 
ATOM     17  C   UNL A   1     -25.079  -2.877  28.381  0.00  0.00    +0.002 A 
ATOM     18  C   UNL A   1     -24.987  -1.509  28.424  0.00  0.00    +0.018 A 
ATOM     19  C   UNL A   1     -25.448  -0.772  29.491  0.00  0.00    +0.067 A 
ATOM     20  N   UNL A   1     -24.815   0.438  29.747  0.00  0.00    -0.306 N 
ATOM     21  O   UNL A   1     -27.505  -1.040  32.360  0.00  0.00    -0.286 OA
ENDBRANCH   1  20
BRANCH   3  22
ATOM     22  C   UNL A   1     -25.776   2.425  27.917  0.00  0.00    +0.001 A 
ATOM     23  C   UNL A   1     -26.520   2.678  28.583  0.00  0.00    +0.000 A 
ATOM     24  C   UNL A   1     -27.860   3.231  28.394  0.00  0.00    +0.000 A 
ATOM     25  C   UNL A   1     -28.152   3.616  27.093  0.00  0.00    +0.000 A 
ATOM     26  C   UNL A   1     -27.219   3.372  26.076  0.00  0.00    +0.000 A 
ATOM     27  C   UNL A   1     -26.006   2.725  26.460  0.00  0.00    +0.000 A 
BRANCH  27  28
ATOM     28  C   UNL A   1     -26.732   1.389  26.096  0.00  0.00    -0.000 C 
ATOM     29  C   UNL A   1     -26.483   0.782  24.896  0.00  0.00    -0.000 C 
BRANCH  29  30
ATOM     30  C   UNL A   1     -27.183  -0.397  24.475  0.00  0.00    -0.005 C 
ATOM     31  C   UNL A   1     -28.485  -0.359  23.956  0.00  0.00    -0.026 C 
ATOM     32  C   UNL A   1     -29.170  -1.473  23.528  0.00  0.00    +0.031 C 
ENDBRANCH  29  30
ENDBRANCH  27  28
ENDBRANCH   3  22
BRANCH   2  33
ATOM     33  C   UNL A   1     -21.996  -0.444  29.604  0.00  0.00    +0.389 C 
ATOM     34  O   UNL A   1     -21.894  -0.380  30.614  0.00  0.00    -0.240 OA
ATOM     35  O   UNL A   1     -21.015  -1.147  28.950  0.00  0.00    -0.240 OA
ENDBRANCH   2  33
TORSDOF 5
ENDMDL
ENDMDL
