MODEL 3358
MODEL 1
REMARK VINA RESULT:    -7.278      0.000      0.000
REMARK INTER + INTRA:         -10.516
REMARK INTER:                  -9.405
REMARK INTRA:                  -1.111
REMARK UNBOUND:                -1.111
REMARK  Name = No_3358-gen_results/8p0m/2024-11-27-11-27-31/
REMARK  5 active torsions:
REMARK  status: ('A' for Active; 'I' for Inactive)
REMARK    1  A    between atoms: C_3  and  C_7
REMARK    2  A    between atoms: C_5  and  C_16
REMARK    3  A    between atoms: C_16  and  C_17
REMARK    4  A    between atoms: C_17  and  C_18
REMARK    5  A    between atoms: C_23  and  O_24
REMARK                            x       y       z     vdW  Elec       q    Type
REMARK                         _______ _______ _______ _____ _____    ______ ____
ROOT
ATOM      1  C   UNL A   1     -10.434   1.678  35.666  0.00  0.00    +0.071 A 
ATOM      2  C   UNL A   1     -10.736   1.036  36.645  0.00  0.00    +0.198 A 
ATOM      3  C   UNL A   1     -10.192  -0.066  37.078  0.00  0.00    +0.040 A 
ATOM      4  C   UNL A   1      -9.113  -0.622  36.327  0.00  0.00    +0.001 A 
ATOM      5  C   UNL A   1      -8.693   0.113  35.270  0.00  0.00    +0.006 A 
ATOM      6  C   UNL A   1      -9.302   1.291  34.923  0.00  0.00    +0.139 A 
ATOM      7  F   UNL A   1      -8.938   2.053  33.909  0.00  0.00    -0.204 F 
ATOM      8  O   UNL A   1     -11.888   1.493  37.443  0.00  0.00    -0.286 OA
ENDROOT
BRANCH   3   9
ATOM      9  C   UNL A   1     -10.674  -0.846  38.266  0.00  0.00    +0.014 A 
ATOM     10  C   UNL A   1     -10.437  -0.750  39.365  0.00  0.00    +0.058 A 
ATOM     11  C   UNL A   1     -11.610  -1.943  37.912  0.00  0.00    +0.001 A 
ATOM     12  C   UNL A   1     -12.233  -2.645  38.941  0.00  0.00    +0.000 A 
ATOM     13  C   UNL A   1     -10.977  -1.409  40.544  0.00  0.00    +0.011 A 
ATOM     14  C   UNL A   1     -11.920  -2.391  40.274  0.00  0.00    +0.001 A 
ATOM     15 CL   UNL A   1      -9.284   0.539  40.049  0.00  0.00    -0.082 Cl
ENDBRANCH   3   9
BRANCH   5  16
ATOM     16  C   UNL A   1      -7.494  -0.363  34.478  0.00  0.00    +0.033 C 
BRANCH  16  17
ATOM     17  C   UNL A   1      -6.740  -1.162  34.948  0.00  0.00    +0.034 C 
BRANCH  17  18
ATOM     18  C   UNL A   1      -5.570  -1.499  34.527  0.00  0.00    +0.012 A 
ATOM     19  C   UNL A   1      -4.956  -2.251  34.187  0.00  0.00    -0.001 A 
ATOM     20  C   UNL A   1      -3.495  -2.330  33.808  0.00  0.00    -0.000 A 
ATOM     21  C   UNL A   1      -2.767  -1.159  33.990  0.00  0.00    +0.003 A 
ATOM     22  C   UNL A   1      -3.385  -0.106  34.512  0.00  0.00    +0.037 A 
ATOM     23  C   UNL A   1      -4.732  -0.140  34.806  0.00  0.00    +0.135 A 
BRANCH  23  24
ATOM     24  O   UNL A   1      -4.741   0.157  35.942  0.00  0.00    -0.472 OA
ATOM     25  C   UNL A   1      -4.249   0.799  36.829  0.00  0.00    +0.253 C 
ENDBRANCH  23  24
ENDBRANCH  17  18
ENDBRANCH  16  17
ENDBRANCH   5  16
TORSDOF 5
ENDMDL
ENDMDL
