MODEL 3360
MODEL 1
REMARK VINA RESULT:    -6.294      0.000      0.000
REMARK INTER + INTRA:         -10.917
REMARK INTER:                  -8.870
REMARK INTRA:                  -2.047
REMARK UNBOUND:                -2.047
REMARK  Name = No_3360-gen_results/8p0m/2024-11-27-11-27-31/
REMARK  7 active torsions:
REMARK  status: ('A' for Active; 'I' for Inactive)
REMARK    1  A    between atoms: C_3  and  C_15
REMARK    2  A    between atoms: C_4  and  C_8
REMARK    3  A    between atoms: C_15  and  O_16
REMARK    4  A    between atoms: O_16  and  C_17
REMARK    5  A    between atoms: C_17  and  C_18
REMARK    6  A    between atoms: C_18  and  C_19
REMARK    7  A    between atoms: C_20  and  C_21
REMARK                            x       y       z     vdW  Elec       q    Type
REMARK                         _______ _______ _______ _____ _____    ______ ____
ROOT
ATOM      1  C   UNL A   1     -26.032  -4.065  29.601  0.00  0.00    +0.028 A 
ATOM      2  C   UNL A   1     -25.182  -4.603  29.285  0.00  0.00    +0.140 A 
ATOM      3  C   UNL A   1     -25.899  -2.559  29.563  0.00  0.00    +0.010 A 
ATOM      4  C   UNL A   1     -24.746  -1.981  28.992  0.00  0.00    +0.001 A 
ATOM      5  C   UNL A   1     -23.901  -4.256  28.630  0.00  0.00    +0.030 A 
ATOM      6  C   UNL A   1     -23.746  -2.878  28.571  0.00  0.00    +0.002 A 
ATOM      7  F   UNL A   1     -25.321  -6.048  29.311  0.00  0.00    -0.204 F 
ENDROOT
BRANCH   4   8
ATOM      8  C   UNL A   1     -24.417  -0.594  28.781  0.00  0.00    +0.027 A 
ATOM      9  C   UNL A   1     -23.495  -0.146  29.360  0.00  0.00    +0.002 A 
ATOM     10  C   UNL A   1     -22.882   1.196  28.944  0.00  0.00    +0.000 A 
ATOM     11  C   UNL A   1     -22.954   1.449  27.571  0.00  0.00    +0.002 A 
ATOM     12  C   UNL A   1     -23.958   0.827  26.827  0.00  0.00    +0.030 A 
ATOM     13  C   UNL A   1     -24.757  -0.229  27.368  0.00  0.00    +0.140 A 
ATOM     14  F   UNL A   1     -25.624  -0.802  26.627  0.00  0.00    -0.204 F 
ENDBRANCH   4   8
BRANCH   3  15
ATOM     15  C   UNL A   1     -26.917  -1.628  30.063  0.00  0.00    +0.169 C 
BRANCH  15  16
ATOM     16  O   UNL A   1     -26.811  -1.478  31.364  0.00  0.00    -0.349 OA
BRANCH  16  17
ATOM     17  C   UNL A   1     -26.633  -0.245  31.999  0.00  0.00    +0.147 C 
BRANCH  17  18
ATOM     18  C   UNL A   1     -25.445  -0.010  32.464  0.00  0.00    +0.052 C 
ATOM     19  C   UNL A   1     -24.960   1.499  32.287  0.00  0.00    +0.007 C 
BRANCH  18  20
ATOM     20  C   UNL A   1     -24.588  -0.776  32.872  0.00  0.00    -0.022 C 
ATOM     21  C   UNL A   1     -24.274  -0.984  34.261  0.00  0.00    +0.018 C 
BRANCH  21  22
ATOM     22  C   UNL A   1     -25.265  -0.675  35.192  0.00  0.00    +0.122 C 
ATOM     23  N   UNL A   1     -25.568  -1.626  36.154  0.00  0.00    -0.146 NA
ENDBRANCH  21  22
ENDBRANCH  18  20
ENDBRANCH  17  18
ENDBRANCH  16  17
ENDBRANCH  15  16
ENDBRANCH   3  15
TORSDOF 7
ENDMDL
ENDMDL
