REMARK  Name = No_3361-gen_results/8p0m/2024-11-27-11-27-31/
REMARK  2 active torsions:
REMARK  status: ('A' for Active; 'I' for Inactive)
REMARK    1  A    between atoms: C_2  and  C_7
REMARK    2  A    between atoms: C_7  and  C_8
REMARK                            x       y       z     vdW  Elec       q    Type
REMARK                         _______ _______ _______ _____ _____    ______ ____
ROOT
ATOM      1  C   UNL A   1     -27.324   1.085  27.819  0.00  0.00    +0.053 C 
ENDROOT
BRANCH   1   3
ATOM      2  C   UNL A   1     -28.016  -0.814  28.878  0.00  0.00    -0.004 A 
ATOM      3  C   UNL A   1     -27.064  -0.119  28.608  0.00  0.00    -0.018 A 
ATOM      4  C   UNL A   1     -25.792  -0.430  29.076  0.00  0.00    -0.004 A 
ATOM      5  C   UNL A   1     -25.576  -1.565  29.936  0.00  0.00    -0.000 A 
ATOM      6  C   UNL A   1     -26.735  -2.300  30.217  0.00  0.00    -0.000 A 
ATOM      7  C   UNL A   1     -27.918  -1.954  29.763  0.00  0.00    -0.000 A 
ENDBRANCH   1   3
BRANCH   1   8
ATOM      8  C   UNL A   1     -26.267   1.909  27.570  0.00  0.00    -0.018 A 
ATOM      9  C   UNL A   1     -26.316   3.110  26.831  0.00  0.00    -0.004 A 
ATOM     10  C   UNL A   1     -25.148   3.918  26.537  0.00  0.00    -0.000 A 
ATOM     11  C   UNL A   1     -23.912   3.439  26.949  0.00  0.00    -0.000 A 
ATOM     12  C   UNL A   1     -23.810   2.220  27.571  0.00  0.00    -0.000 A 
ATOM     13  C   UNL A   1     -24.898   1.461  27.898  0.00  0.00    -0.004 A 
ENDBRANCH   1   8
TORSDOF 2
