MODEL 3361
MODEL 1
REMARK VINA RESULT:    -6.312      0.000      0.000
REMARK INTER + INTRA:          -7.557
REMARK INTER:                  -7.050
REMARK INTRA:                  -0.508
REMARK UNBOUND:                -0.508
REMARK  Name = No_3361-gen_results/8p0m/2024-11-27-11-27-31/
REMARK  2 active torsions:
REMARK  status: ('A' for Active; 'I' for Inactive)
REMARK    1  A    between atoms: C_2  and  C_7
REMARK    2  A    between atoms: C_7  and  C_8
REMARK                            x       y       z     vdW  Elec       q    Type
REMARK                         _______ _______ _______ _____ _____    ______ ____
ROOT
ATOM      1  C   UNL A   1     -24.545  -1.184  29.736  0.00  0.00    +0.053 C 
ENDROOT
BRANCH   1   3
ATOM      2  C   UNL A   1     -25.821  -3.075  29.791  0.00  0.00    -0.004 A 
ATOM      3  C   UNL A   1     -24.779  -2.591  29.413  0.00  0.00    -0.018 A 
ATOM      4  C   UNL A   1     -23.829  -3.361  28.750  0.00  0.00    -0.004 A 
ATOM      5  C   UNL A   1     -24.037  -4.769  28.533  0.00  0.00    -0.000 A 
ATOM      6  C   UNL A   1     -25.258  -5.250  29.022  0.00  0.00    -0.000 A 
ATOM      7  C   UNL A   1     -26.115  -4.484  29.657  0.00  0.00    -0.000 A 
ENDBRANCH   1   3
BRANCH   1   8
ATOM      8  C   UNL A   1     -24.097  -0.379  28.731  0.00  0.00    -0.018 A 
ATOM      9  C   UNL A   1     -22.945   0.434  28.779  0.00  0.00    -0.004 A 
ATOM     10  C   UNL A   1     -22.547   1.325  27.706  0.00  0.00    -0.000 A 
ATOM     11  C   UNL A   1     -23.390   1.428  26.608  0.00  0.00    -0.000 A 
ATOM     12  C   UNL A   1     -24.577   0.740  26.574  0.00  0.00    -0.000 A 
ATOM     13  C   UNL A   1     -24.953  -0.138  27.551  0.00  0.00    -0.004 A 
ENDBRANCH   1   8
TORSDOF 2
ENDMDL
ENDMDL
