MODEL 3362
MODEL 1
REMARK VINA RESULT:    -5.736      0.000      0.000
REMARK INTER + INTRA:          -8.945
REMARK INTER:                  -8.083
REMARK INTRA:                  -0.862
REMARK UNBOUND:                -0.862
REMARK  Name = No_3362-gen_results/8p0m/2024-11-27-11-27-31/
REMARK  7 active torsions:
REMARK  status: ('A' for Active; 'I' for Inactive)
REMARK    1  A    between atoms: C_3  and  O_9
REMARK    2  A    between atoms: O_9  and  C_10
REMARK    3  A    between atoms: C_11  and  O_19
REMARK    4  A    between atoms: O_19  and  C_20
REMARK    5  A    between atoms: C_20  and  C_21
REMARK    6  A    between atoms: C_21  and  C_22
REMARK    7  A    between atoms: C_21  and  O_24
REMARK                            x       y       z     vdW  Elec       q    Type
REMARK                         _______ _______ _______ _____ _____    ______ ____
ROOT
ATOM      1  C   UNL A   1     -11.533   2.062  36.186  0.00  0.00    +0.181 A 
ATOM      2  C   UNL A   1     -11.398   1.597  35.047  0.00  0.00    +0.183 A 
ATOM      3  C   UNL A   1     -12.551   1.670  34.158  0.00  0.00    +0.095 A 
ATOM      4  C   UNL A   1     -13.703   2.311  34.565  0.00  0.00    +0.026 A 
ATOM      5  C   UNL A   1     -12.701   2.659  36.639  0.00  0.00    +0.052 A 
ATOM      6  C   UNL A   1     -13.782   2.740  35.825  0.00  0.00    +0.062 A 
ATOM      7 CL   UNL A   1     -15.242   3.470  36.335  0.00  0.00    -0.082 Cl
ATOM      8 CL   UNL A   1     -12.379   1.084  32.531  0.00  0.00    -0.079 Cl
ENDROOT
BRANCH   1   9
ATOM      9  O   UNL A   1     -10.415   1.848  37.043  0.00  0.00    -0.450 OA
BRANCH   9  12
ATOM     10  C   UNL A   1     -11.087  -0.545  37.554  0.00  0.00    +0.051 A 
ATOM     11  C   UNL A   1     -11.326  -1.200  38.344  0.00  0.00    +0.071 A 
ATOM     12  C   UNL A   1     -10.695   0.823  37.928  0.00  0.00    +0.157 A 
ATOM     13  C   UNL A   1     -10.517   1.177  39.297  0.00  0.00    +0.093 A 
ATOM     14  C   UNL A   1     -11.171  -1.103  39.822  0.00  0.00    +0.069 A 
ATOM     15  C   UNL A   1     -10.818   0.156  40.208  0.00  0.00    +0.027 A 
ATOM     16 CL   UNL A   1     -11.797  -2.895  37.903  0.00  0.00    -0.081 Cl
ATOM     17 CL   UNL A   1     -10.050   2.722  39.763  0.00  0.00    -0.079 Cl
ATOM     18 CL   UNL A   1     -11.463  -2.347  40.941  0.00  0.00    -0.081 Cl
ENDBRANCH   9  12
ENDBRANCH   1   9
BRANCH   2  19
ATOM     19  O   UNL A   1     -10.298   1.045  34.509  0.00  0.00    -0.469 OA
BRANCH  19  20
ATOM     20  C   UNL A   1      -9.313   2.019  34.009  0.00  0.00    +0.238 C 
BRANCH  20  21
ATOM     21  C   UNL A   1      -7.942   1.653  34.544  0.00  0.00    +0.192 C 
BRANCH  21  22
ATOM     22  C   UNL A   1      -7.017   2.544  33.896  0.00  0.00    +0.215 C 
ATOM     23  O   UNL A   1      -7.533   2.981  32.735  0.00  0.00    -0.218 OA
ENDBRANCH  21  22
BRANCH  21  24
ATOM     24  O   UNL A   1      -7.692   0.352  34.208  0.00  0.00    -0.347 OA
ATOM     25  C   UNL A   1      -7.111  -0.477  35.092  0.00  0.00    +0.174 C 
ENDBRANCH  21  24
ENDBRANCH  20  21
ENDBRANCH  19  20
ENDBRANCH   2  19
TORSDOF 7
ENDMDL
ENDMDL
