REMARK  Name = No_3363-gen_results/8p0m/2024-11-27-11-27-31/
REMARK  8 active torsions:
REMARK  status: ('A' for Active; 'I' for Inactive)
REMARK    1  A    between atoms: C_2  and  C_8
REMARK    2  A    between atoms: N_9  and  C_21
REMARK    3  A    between atoms: C_10  and  C_11
REMARK    4  A    between atoms: C_18  and  O_26
REMARK    5  A    between atoms: C_21  and  C_23
REMARK    6  A    between atoms: O_26  and  C_27
REMARK    7  A    between atoms: C_32  and  C_33
REMARK    8  A    between atoms: C_33  and  C_34
REMARK                            x       y       z     vdW  Elec       q    Type
REMARK                         _______ _______ _______ _____ _____    ______ ____
ROOT
ATOM      1  C   UNL A   1     -25.713  -0.215  29.410  0.00  0.00    +0.081 C 
ATOM      2  N   UNL A   1     -25.122   0.864  29.739  0.00  0.00    -0.263 NA
ATOM      3  C   UNL A   1     -25.215   1.463  30.765  0.00  0.00    +0.103 C 
ATOM      4  C   UNL A   1     -24.243   0.959  31.857  0.00  0.00    -0.011 C 
ATOM      5  C   UNL A   1     -23.488  -0.271  31.571  0.00  0.00    -0.029 C 
ATOM      6  C   UNL A   1     -25.309  -1.520  29.706  0.00  0.00    +0.025 C 
ATOM      7  C   UNL A   1     -24.262  -1.493  30.992  0.00  0.00    +0.028 C 
ENDROOT
BRANCH   1   9
ATOM      8  C   UNL A   1     -28.016  -0.814  28.878  0.00  0.00    -0.001 A 
ATOM      9  C   UNL A   1     -27.064  -0.119  28.608  0.00  0.00    -0.004 A 
ATOM     10  C   UNL A   1     -26.972   0.714  27.506  0.00  0.00    +0.041 A 
ATOM     11  C   UNL A   1     -28.105   0.774  26.642  0.00  0.00    +0.223 A 
ATOM     12  C   UNL A   1     -29.201   0.104  27.053  0.00  0.00    +0.179 A 
ATOM     13  C   UNL A   1     -29.210  -0.603  28.185  0.00  0.00    +0.033 A 
ATOM     14  F   UNL A   1     -30.283   0.214  26.296  0.00  0.00    -0.201 F 
ATOM     15  O   UNL A   1     -28.089   1.584  25.577  0.00  0.00    -0.284 OA
ENDBRANCH   1   9
BRANCH   3  16
ATOM     16  C   UNL A   1     -25.654   2.466  31.105  0.00  0.00    -0.003 A 
ATOM     17  C   UNL A   1     -25.812   3.037  32.472  0.00  0.00    +0.001 A 
ATOM     18  C   UNL A   1     -26.408   4.327  32.680  0.00  0.00    +0.037 A 
ATOM     19  C   UNL A   1     -26.604   3.259  30.320  0.00  0.00    +0.001 A 
ATOM     20  C   UNL A   1     -27.284   4.397  30.510  0.00  0.00    +0.037 A 
ATOM     21  C   UNL A   1     -27.198   4.942  31.779  0.00  0.00    +0.145 A 
BRANCH  21  22
ATOM     22  O   UNL A   1     -27.845   6.138  32.020  0.00  0.00    -0.454 OA
BRANCH  22  23
ATOM     23  C   UNL A   1     -28.827   6.469  31.872  0.00  0.00    +0.145 A 
ATOM     24  C   UNL A   1     -29.125   7.369  30.782  0.00  0.00    +0.037 A 
ATOM     25  C   UNL A   1     -30.284   7.414  30.142  0.00  0.00    -0.001 A 
ATOM     26  C   UNL A   1     -29.936   5.975  32.563  0.00  0.00    +0.037 A 
ATOM     27  C   UNL A   1     -31.253   6.124  32.026  0.00  0.00    -0.001 A 
ATOM     28  C   UNL A   1     -31.432   6.921  30.893  0.00  0.00    -0.018 A 
BRANCH  28  29
ATOM     29  C   UNL A   1     -32.794   7.117  30.383  0.00  0.00    +0.052 C 
BRANCH  29  30
ATOM     30  C   UNL A   1     -33.457   8.167  30.872  0.00  0.00    -0.021 C 
ATOM     31  C   UNL A   1     -33.067   8.918  31.758  0.00  0.00    -0.005 C 
ENDBRANCH  29  30
ENDBRANCH  28  29
ENDBRANCH  22  23
ENDBRANCH  21  22
ENDBRANCH   3  16
BRANCH   2  32
ATOM     32  C   UNL A   1     -23.940   1.155  28.871  0.00  0.00    +0.091 C 
ATOM     33  C   UNL A   1     -23.323   0.128  28.141  0.00  0.00    +0.020 C 
BRANCH  32  34
ATOM     34  C   UNL A   1     -23.633   2.562  28.684  0.00  0.00    +0.198 C 
ATOM     35  O   UNL A   1     -23.836   2.943  27.589  0.00  0.00    -0.219 OA
ENDBRANCH  32  34
ENDBRANCH   2  32
TORSDOF 8
