MODEL 3363
MODEL 1
REMARK VINA RESULT:    -8.642      0.000      0.000
REMARK INTER + INTRA:         -14.049
REMARK INTER:                 -12.684
REMARK INTRA:                  -1.365
REMARK UNBOUND:                -1.365
REMARK  Name = No_3363-gen_results/8p0m/2024-11-27-11-27-31/
REMARK  8 active torsions:
REMARK  status: ('A' for Active; 'I' for Inactive)
REMARK    1  A    between atoms: C_2  and  C_8
REMARK    2  A    between atoms: N_9  and  C_21
REMARK    3  A    between atoms: C_10  and  C_11
REMARK    4  A    between atoms: C_18  and  O_26
REMARK    5  A    between atoms: C_21  and  C_23
REMARK    6  A    between atoms: O_26  and  C_27
REMARK    7  A    between atoms: C_32  and  C_33
REMARK    8  A    between atoms: C_33  and  C_34
REMARK                            x       y       z     vdW  Elec       q    Type
REMARK                         _______ _______ _______ _____ _____    ______ ____
ROOT
ATOM      1  C   UNL A   1     -24.144  -0.905  30.101  0.00  0.00    +0.081 C 
ATOM      2  N   UNL A   1     -23.972  -0.015  29.206  0.00  0.00    -0.263 NA
ATOM      3  C   UNL A   1     -24.789   0.716  28.737  0.00  0.00    +0.103 C 
ATOM      4  C   UNL A   1     -24.986   2.014  29.554  0.00  0.00    -0.011 C 
ATOM      5  C   UNL A   1     -24.309   2.099  30.858  0.00  0.00    -0.029 C 
ATOM      6  C   UNL A   1     -24.139  -0.717  31.486  0.00  0.00    +0.025 C 
ATOM      7  C   UNL A   1     -24.418   0.883  31.825  0.00  0.00    +0.028 C 
ENDROOT
BRANCH   1   9
ATOM      8  C   UNL A   1     -23.699  -2.964  28.873  0.00  0.00    -0.001 A 
ATOM      9  C   UNL A   1     -24.426  -2.385  29.647  0.00  0.00    -0.004 A 
ATOM     10  C   UNL A   1     -25.643  -2.861  30.105  0.00  0.00    +0.041 A 
ATOM     11  C   UNL A   1     -26.050  -4.149  29.647  0.00  0.00    +0.223 A 
ATOM     12  C   UNL A   1     -25.149  -4.828  28.908  0.00  0.00    +0.179 A 
ATOM     13  C   UNL A   1     -23.961  -4.307  28.594  0.00  0.00    +0.033 A 
ATOM     14  F   UNL A   1     -25.487  -6.055  28.540  0.00  0.00    -0.201 F 
ATOM     15  O   UNL A   1     -27.201  -4.676  30.078  0.00  0.00    -0.284 OA
ENDBRANCH   1   9
BRANCH   3  16
ATOM     16  C   UNL A   1     -25.305   0.844  27.722  0.00  0.00    -0.003 A 
ATOM     17  C   UNL A   1     -26.466   1.690  27.329  0.00  0.00    +0.001 A 
ATOM     18  C   UNL A   1     -26.969   1.694  25.983  0.00  0.00    +0.037 A 
ATOM     19  C   UNL A   1     -25.253  -0.143  26.640  0.00  0.00    +0.001 A 
ATOM     20  C   UNL A   1     -25.796  -0.253  25.421  0.00  0.00    +0.037 A 
ATOM     21  C   UNL A   1     -26.731   0.713  25.092  0.00  0.00    +0.145 A 
BRANCH  21  22
ATOM     22  O   UNL A   1     -27.293   0.674  23.831  0.00  0.00    -0.454 OA
BRANCH  22  23
ATOM     23  C   UNL A   1     -28.278   0.714  23.479  0.00  0.00    +0.145 A 
ATOM     24  C   UNL A   1     -29.069  -0.494  23.418  0.00  0.00    +0.037 A 
ATOM     25  C   UNL A   1     -30.386  -0.536  23.554  0.00  0.00    -0.001 A 
ATOM     26  C   UNL A   1     -28.967   1.897  23.203  0.00  0.00    +0.037 A 
ATOM     27  C   UNL A   1     -30.396   1.914  23.165  0.00  0.00    -0.001 A 
ATOM     28  C   UNL A   1     -31.086   0.702  23.233  0.00  0.00    -0.018 A 
BRANCH  28  29
ATOM     29  C   UNL A   1     -32.550   0.723  23.134  0.00  0.00    +0.052 C 
BRANCH  29  30
ATOM     30  C   UNL A   1     -33.065   0.308  21.974  0.00  0.00    -0.021 C 
ATOM     31  C   UNL A   1     -33.126   0.959  20.938  0.00  0.00    -0.005 C 
ENDBRANCH  29  30
ENDBRANCH  28  29
ENDBRANCH  22  23
ENDBRANCH  21  22
ENDBRANCH   3  16
BRANCH   2  32
ATOM     32  C   UNL A   1     -22.533   0.352  29.035  0.00  0.00    +0.091 C 
ATOM     33  C   UNL A   1     -21.526  -0.413  29.642  0.00  0.00    +0.020 C 
BRANCH  32  34
ATOM     34  C   UNL A   1     -22.265   1.391  28.056  0.00  0.00    +0.198 C 
ATOM     35  O   UNL A   1     -21.229   1.264  27.512  0.00  0.00    -0.219 OA
ENDBRANCH  32  34
ENDBRANCH   2  32
TORSDOF 8
ENDMDL
ENDMDL
