REMARK  Name = outputs/IAG933/test6/raw/output_3364_IAG933_linker_design_.xyz
REMARK  11 active torsions:
REMARK  status: ('A' for Active; 'I' for Inactive)
REMARK    1  A    between atoms: C_1  and  C_2
REMARK    2  A    between atoms: C_1  and  C_8
REMARK    3  A    between atoms: C_1  and  N_37
REMARK    4  A    between atoms: C_21  and  O_22
REMARK    5  A    between atoms: O_22  and  C_23
REMARK    6  A    between atoms: C_23  and  C_24
REMARK    7  A    between atoms: C_28  and  S_44
REMARK    8  A    between atoms: C_30  and  N_37
REMARK    9  A    between atoms: C_31  and  S_44
REMARK   10  A    between atoms: C_34  and  C_35
REMARK   11  A    between atoms: C_42  and  C_43
REMARK                            x       y       z     vdW  Elec       q    Type
REMARK                         _______ _______ _______ _____ _____    ______ ____
ROOT
ATOM      1  C   UNL A   1     -25.688   1.614  26.461  0.00  0.00    +0.023 C 
ATOM      2  C   UNL A   1     -26.250   2.920  26.395  0.00  0.00    +0.071 C 
ATOM      3  C   UNL A   1     -25.642   4.093  27.123  0.00  0.00    +0.229 C 
ATOM      4  N   UNL A   1     -25.614   5.252  26.449  0.00  0.00    -0.235 NA
ATOM      5  C   UNL A   1     -25.026   6.479  26.963  0.00  0.00    +0.155 C 
ATOM      6  O   UNL A   1     -25.143   3.966  28.243  0.00  0.00    -0.414 OA
ATOM      7  C   UNL A   1     -27.438   3.091  25.645  0.00  0.00    +0.106 C 
ATOM      8  N   UNL A   1     -28.075   2.089  25.003  0.00  0.00    -0.208 NA
ATOM      9  C   UNL A   1     -27.543   0.849  25.079  0.00  0.00    +0.253 C 
ATOM     10  C   UNL A   1     -26.354   0.576  25.777  0.00  0.00    +0.190 C 
ATOM     11  F   UNL A   1     -25.860  -0.681  25.795  0.00  0.00    -0.200 F 
ATOM     12  C   UNL A   1     -24.739   1.054  28.710  0.00  0.00    +0.188 C 
ATOM     13  C   UNL A   1     -25.221   3.382  29.424  0.00  0.00    +0.265 C 
ATOM     14  C   UNL A   1     -24.492   1.345  27.314  0.00  0.00    +0.091 C 
ATOM     15  N   UNL A   1     -24.673   2.125  29.590  0.00  0.00    -0.215 NA
ENDROOT
BRANCH  14  18
ATOM     16  C   UNL A   1     -22.765   2.122  25.488  0.00  0.00    +0.210 C 
ATOM     17  O   UNL A   1     -21.543   2.403  25.694  0.00  0.00    -0.350 OA
ATOM     18  C   UNL A   1     -23.247   1.676  26.788  0.00  0.00    +0.049 C 
ATOM     19  N   UNL A   1     -21.198   2.147  26.972  0.00  0.00    -0.074 NA
ATOM     20  C   UNL A   1     -22.263   1.619  27.697  0.00  0.00    +0.162 C 
BRANCH  20  22
ATOM     21  O   UNL A   1     -22.227   0.191  29.776  0.00  0.00    -0.281 OA
ATOM     22  C   UNL A   1     -22.102   1.132  29.023  0.00  0.00    +0.256 C 
ENDBRANCH  20  22
ENDBRANCH  14  18
BRANCH   9  23
ATOM     23  O   UNL A   1     -28.193  -0.208  24.477  0.00  0.00    -0.456 OA
BRANCH  23  24
ATOM     24  C   UNL A   1     -29.460   0.005  23.866  0.00  0.00    +0.243 C 
BRANCH  24  25
ATOM     25  C   UNL A   1     -30.065  -1.377  23.573  0.00  0.00    +0.229 C 
ATOM     26  O   UNL A   1     -30.729  -1.878  24.721  0.00  0.00    -0.216 OA
ENDBRANCH  24  25
ENDBRANCH  23  24
ENDBRANCH   9  23
BRANCH  12  27
ATOM     27  N   UNL A   1     -24.957  -0.110  29.127  0.00  0.00    -0.191 NA
BRANCH  27  28
ATOM     28  C   UNL A   1     -24.855  -1.012  30.143  0.00  0.00    +0.113 C 
BRANCH  28  29
ATOM     29  C   UNL A   1     -24.973  -2.505  29.788  0.00  0.00    -0.005 C 
ATOM     30  C   UNL A   1     -23.906  -3.173  29.146  0.00  0.00    -0.003 C 
ATOM     31  C   UNL A   1     -23.989  -4.549  28.853  0.00  0.00    -0.000 C 
ATOM     32  C   UNL A   1     -25.137  -5.280  29.205  0.00  0.00    -0.000 C 
ATOM     33  C   UNL A   1     -26.232  -4.611  29.784  0.00  0.00    -0.000 C 
ATOM     34  C   UNL A   1     -26.155  -3.232  30.065  0.00  0.00    -0.003 C 
ENDBRANCH  28  29
BRANCH  28  35
ATOM     35  C   UNL A   1     -25.387  -0.679  31.571  0.00  0.00    +0.093 C 
ATOM     36  C   UNL A   1     -25.189   0.773  32.028  0.00  0.00    +0.021 C 
ATOM     37  C   UNL A   1     -25.336   0.684  33.544  0.00  0.00    +0.020 C 
ATOM     38  C   UNL A   1     -24.829  -0.715  33.905  0.00  0.00    +0.089 C 
ATOM     39  N   UNL A   1     -24.758  -1.481  32.646  0.00  0.00    -0.218 NA
ENDBRANCH  28  35
ENDBRANCH  27  28
ENDBRANCH  12  27
BRANCH  13  40
ATOM     40  S   UNL A   1     -26.204   4.199  30.775  0.00  0.00    +0.029 S 
BRANCH  40  41
ATOM     41  C   UNL A   1     -26.373   5.924  31.475  0.00  0.00    +0.300 C 
ATOM     42  C   UNL A   1     -27.551   7.590  32.806  0.00  0.00    +0.139 C 
ATOM     43  O   UNL A   1     -25.554   6.772  31.144  0.00  0.00    -0.261 OA
ATOM     44  N   UNL A   1     -27.352   6.198  32.343  0.00  0.00    -0.194 NA
ENDBRANCH  40  41
ENDBRANCH  13  40
TORSDOF 11
