MODEL 3365
MODEL 1
REMARK VINA RESULT:    -6.678      0.000      0.000
REMARK INTER + INTRA:         -15.655
REMARK INTER:                 -11.753
REMARK INTRA:                  -3.902
REMARK UNBOUND:                -3.902
REMARK  Name = No_3365-gen_results/8p0m/2024-11-27-11-27-31/
REMARK  13 active torsions:
REMARK  status: ('A' for Active; 'I' for Inactive)
REMARK    1  A    between atoms: C_1  and  C_3
REMARK    2  A    between atoms: C_3  and  C_4
REMARK    3  A    between atoms: C_4  and  C_5
REMARK    4  A    between atoms: C_5  and  C_15
REMARK    5  A    between atoms: C_8  and  C_11
REMARK    6  A    between atoms: C_11  and  C_13
REMARK    7  A    between atoms: C_13  and  C_28
REMARK    8  A    between atoms: C_14  and  C_16
REMARK    9  A    between atoms: C_17  and  O_32
REMARK   10  A    between atoms: C_21  and  C_25
REMARK   11  A    between atoms: C_29  and  C_30
REMARK   12  A    between atoms: O_32  and  C_33
REMARK   13  A    between atoms: C_33  and  C_34
REMARK                            x       y       z     vdW  Elec       q    Type
REMARK                         _______ _______ _______ _____ _____    ______ ____
ROOT
ATOM      1  C   UNL A   1     -27.778   1.798  24.958  0.00  0.00    +0.057 C 
ATOM      2  C   UNL A   1     -28.254   1.685  26.183  0.00  0.00    +0.003 C 
ENDROOT
BRANCH   2   3
ATOM      3  C   UNL A   1     -27.640   1.829  27.425  0.00  0.00    +0.034 A 
ATOM      4  C   UNL A   1     -27.311   2.535  28.151  0.00  0.00    +0.139 A 
ATOM      5  C   UNL A   1     -26.844   2.576  29.367  0.00  0.00    +0.037 A 
ATOM      6  C   UNL A   1     -26.982   1.301  30.053  0.00  0.00    +0.010 A 
ATOM      7  C   UNL A   1     -27.791   0.403  28.153  0.00  0.00    +0.010 A 
ATOM      8  C   UNL A   1     -27.359   0.266  29.390  0.00  0.00    +0.080 A 
BRANCH   8   9
ATOM      9  C   UNL A   1     -27.416  -1.066  30.071  0.00  0.00    +0.388 C 
ATOM     10  O   UNL A   1     -28.356  -1.873  29.807  0.00  0.00    -0.241 OA
ATOM     11  O   UNL A   1     -26.870  -1.192  31.211  0.00  0.00    -0.241 OA
ENDBRANCH   8   9
BRANCH   4  12
ATOM     12  O   UNL A   1     -27.179   3.914  27.527  0.00  0.00    -0.471 OA
BRANCH  12  13
ATOM     13  C   UNL A   1     -26.746   4.979  28.143  0.00  0.00    +0.232 C 
BRANCH  13  14
ATOM     14  C   UNL A   1     -25.641   5.583  27.672  0.00  0.00    +0.021 C 
ATOM     15  C   UNL A   1     -24.936   4.939  26.701  0.00  0.00    -0.001 C 
ENDBRANCH  13  14
ENDBRANCH  12  13
ENDBRANCH   4  12
ENDBRANCH   2   3
BRANCH   1  16
ATOM     16  C   UNL A   1     -28.496   1.790  23.769  0.00  0.00    +0.415 C 
ATOM     17  F   UNL A   1     -28.047   2.370  22.887  0.00  0.00    -0.166 F 
ATOM     18  F   UNL A   1     -28.628   0.479  23.362  0.00  0.00    -0.166 F 
ATOM     19  F   UNL A   1     -29.775   2.241  23.950  0.00  0.00    -0.166 F 
ENDBRANCH   1  16
BRANCH   1  20
ATOM     20  C   UNL A   1     -26.453   2.041  25.002  0.00  0.00    +0.099 C 
BRANCH  20  21
ATOM     21  C   UNL A   1     -25.454   0.984  25.260  0.00  0.00    +0.177 C 
ATOM     22  O   UNL A   1     -25.413   0.142  24.339  0.00  0.00    -0.291 OA
BRANCH  21  23
ATOM     23  C   UNL A   1     -24.472   1.134  26.295  0.00  0.00    +0.035 A 
ATOM     24  C   UNL A   1     -23.631   1.723  26.057  0.00  0.00    +0.003 A 
ATOM     25  C   UNL A   1     -22.413   1.876  27.041  0.00  0.00    -0.000 A 
ATOM     26  C   UNL A   1     -22.581   1.190  28.240  0.00  0.00    -0.004 A 
ATOM     27  C   UNL A   1     -23.507   0.204  28.364  0.00  0.00    -0.022 A 
ATOM     28  C   UNL A   1     -24.402   0.029  27.315  0.00  0.00    -0.001 A 
BRANCH  27  29
ATOM     29  C   UNL A   1     -23.545  -0.750  29.472  0.00  0.00    +0.027 C 
ATOM     30  C   UNL A   1     -22.684  -0.625  30.576  0.00  0.00    +0.005 C 
BRANCH  29  31
ATOM     31  C   UNL A   1     -23.401  -2.239  28.909  0.00  0.00    +0.030 C 
BRANCH  31  32
ATOM     32  C   UNL A   1     -24.161  -3.335  29.548  0.00  0.00    -0.030 C 
ATOM     33  C   UNL A   1     -24.218  -4.630  28.963  0.00  0.00    -0.031 C 
BRANCH  33  34
ATOM     34  C   UNL A   1     -25.411  -5.327  29.204  0.00  0.00    +0.026 C 
ATOM     35  C   UNL A   1     -26.254  -4.564  29.647  0.00  0.00    +0.005 C 
ENDBRANCH  33  34
ENDBRANCH  31  32
ENDBRANCH  29  31
ENDBRANCH  27  29
ENDBRANCH  21  23
ENDBRANCH  20  21
ENDBRANCH   1  20
TORSDOF 13
ENDMDL
ENDMDL
