MODEL 3366
MODEL 1
REMARK VINA RESULT:    -4.700      0.000      0.000
REMARK INTER + INTRA:          -5.007
REMARK INTER:                  -4.975
REMARK INTRA:                  -0.032
REMARK UNBOUND:                -0.032
REMARK  Name = No_3366-gen_results/8p0m/2024-11-27-11-27-31/
REMARK  1 active torsions:
REMARK  status: ('A' for Active; 'I' for Inactive)
REMARK    1  A    between atoms: C_7  and  S_8
REMARK                            x       y       z     vdW  Elec       q    Type
REMARK                         _______ _______ _______ _____ _____    ______ ____
ROOT
ATOM      1  F   UNL A   1     -24.954  -6.342  28.560  0.00  0.00    -0.204 F 
ATOM      2  C   UNL A   1     -25.032  -5.167  28.940  0.00  0.00    +0.140 A 
ATOM      3  C   UNL A   1     -26.118  -4.751  29.614  0.00  0.00    +0.031 A 
ATOM      4  C   UNL A   1     -23.918  -4.233  28.643  0.00  0.00    +0.031 A 
ATOM      5  C   UNL A   1     -24.055  -2.850  28.984  0.00  0.00    +0.022 A 
ATOM      6  C   UNL A   1     -26.229  -3.322  29.976  0.00  0.00    +0.022 A 
ATOM      7  C   UNL A   1     -25.219  -2.404  29.668  0.00  0.00    +0.129 A 
ENDROOT
BRANCH   7   8
ATOM      8  S   UNL A   1     -25.356  -0.754  30.030  0.00  0.00    +0.121 S 
ATOM      9  O   UNL A   1     -26.292  -0.249  30.804  0.00  0.00    -0.147 OA
ATOM     10  O   UNL A   1     -23.964  -0.480  30.695  0.00  0.00    -0.147 OA
ENDBRANCH   7   8
TORSDOF 1
ENDMDL
ENDMDL
