REMARK  Name = No_3366-gen_results/8p0m/2024-11-27-11-27-31/
REMARK  1 active torsions:
REMARK  status: ('A' for Active; 'I' for Inactive)
REMARK    1  A    between atoms: C_7  and  S_8
REMARK                            x       y       z     vdW  Elec       q    Type
REMARK                         _______ _______ _______ _____ _____    ______ ____
ROOT
ATOM      1  F   UNL A   1     -28.073  -1.254  28.532  0.00  0.00    -0.204 F 
ATOM      2  C   UNL A   1     -27.061  -0.629  28.872  0.00  0.00    +0.140 A 
ATOM      3  C   UNL A   1     -27.176   0.615  29.369  0.00  0.00    +0.031 A 
ATOM      4  C   UNL A   1     -25.730  -1.269  28.724  0.00  0.00    +0.031 A 
ATOM      5  C   UNL A   1     -24.553  -0.508  29.013  0.00  0.00    +0.022 A 
ATOM      6  C   UNL A   1     -25.947   1.375  29.681  0.00  0.00    +0.022 A 
ATOM      7  C   UNL A   1     -24.675   0.820  29.507  0.00  0.00    +0.129 A 
ENDROOT
BRANCH   7   8
ATOM      8  S   UNL A   1     -23.257   1.698  29.811  0.00  0.00    +0.121 S 
ATOM      9  O   UNL A   1     -22.767   2.605  28.994  0.00  0.00    -0.147 OA
ATOM     10  O   UNL A   1     -23.627   2.399  31.163  0.00  0.00    -0.147 OA
ENDBRANCH   7   8
TORSDOF 1
