MODEL 3367
MODEL 1
REMARK VINA RESULT:    -6.401      0.000      0.000
REMARK INTER + INTRA:          -6.998
REMARK INTER:                  -6.776
REMARK INTRA:                  -0.222
REMARK UNBOUND:                -0.222
REMARK  Name = No_3367-gen_results/8p0m/2024-11-27-11-27-31/
REMARK  1 active torsions:
REMARK  status: ('A' for Active; 'I' for Inactive)
REMARK    1  A    between atoms: N_3  and  C_8
REMARK                            x       y       z     vdW  Elec       q    Type
REMARK                         _______ _______ _______ _____ _____    ______ ____
ROOT
ATOM      1  C   UNL A   1     -23.840  -3.565  28.921  0.00  0.00    +0.041 C 
ATOM      2  C   UNL A   1     -24.654  -2.702  29.155  0.00  0.00    +0.037 C 
ATOM      3  N   UNL A   1     -24.335  -1.455  29.362  0.00  0.00    -0.254 NA
ATOM      4  C   UNL A   1     -24.328  -4.948  28.693  0.00  0.00    +0.006 C 
ATOM      5  C   UNL A   1     -25.312  -5.234  29.112  0.00  0.00    +0.001 C 
ATOM      6  C   UNL A   1     -26.337  -4.434  29.679  0.00  0.00    +0.006 C 
ATOM      7  C   UNL A   1     -25.971  -3.054  29.712  0.00  0.00    +0.041 C 
ENDROOT
BRANCH   3   8
ATOM      8  C   UNL A   1     -24.463  -0.519  28.443  0.00  0.00    +0.081 A 
ATOM      9  C   UNL A   1     -23.446   0.099  28.042  0.00  0.00    +0.019 A 
ATOM     10  C   UNL A   1     -23.640   1.142  26.984  0.00  0.00    +0.002 A 
ATOM     11  C   UNL A   1     -25.469  -0.783  27.370  0.00  0.00    +0.019 A 
ATOM     12  C   UNL A   1     -24.599   1.005  25.998  0.00  0.00    +0.000 A 
ATOM     13  C   UNL A   1     -25.266  -0.046  26.045  0.00  0.00    +0.002 A 
ENDBRANCH   3   8
TORSDOF 1
ENDMDL
ENDMDL
