MODEL 3368
MODEL 1
REMARK VINA RESULT:    -6.113      0.000      0.000
REMARK INTER + INTRA:          -8.685
REMARK INTER:                  -7.542
REMARK INTRA:                  -1.143
REMARK UNBOUND:                -1.143
REMARK  Name = No_3368-gen_results/8p0m/2024-11-27-11-27-31/
REMARK  4 active torsions:
REMARK  status: ('A' for Active; 'I' for Inactive)
REMARK    1  A    between atoms: C_4  and  C_7
REMARK    2  A    between atoms: C_7  and  C_8
REMARK    3  A    between atoms: C_8  and  C_9
REMARK    4  A    between atoms: C_9  and  C_10
REMARK                            x       y       z     vdW  Elec       q    Type
REMARK                         _______ _______ _______ _____ _____    ______ ____
ROOT
ATOM      1  C   UNL A   1     -22.703  -1.364  29.281  0.00  0.00    +0.009 C 
ENDROOT
BRANCH   1   2
ATOM      2  C   UNL A   1     -22.443  -0.244  30.122  0.00  0.00    +0.027 C 
BRANCH   2   6
ATOM      3  C   UNL A   1     -24.499  -0.859  33.317  0.00  0.00    -0.000 A 
ATOM      4  C   UNL A   1     -25.102   0.001  33.226  0.00  0.00    -0.000 A 
ATOM      5  C   UNL A   1     -23.507  -1.078  32.197  0.00  0.00    -0.004 A 
ATOM      6  C   UNL A   1     -23.348  -0.084  31.209  0.00  0.00    -0.022 A 
ATOM      7  C   UNL A   1     -25.116   1.187  32.339  0.00  0.00    -0.000 A 
ATOM      8  C   UNL A   1     -24.211   1.024  31.300  0.00  0.00    -0.004 A 
ENDBRANCH   2   6
ENDBRANCH   1   2
BRANCH   1   9
ATOM      9  C   UNL A   1     -23.864  -1.525  28.584  0.00  0.00    +0.027 C 
BRANCH   9  10
ATOM     10  C   UNL A   1     -24.736  -2.628  28.824  0.00  0.00    -0.022 A 
ATOM     11  C   UNL A   1     -24.218  -3.901  28.668  0.00  0.00    -0.004 A 
ATOM     12  C   UNL A   1     -24.942  -4.968  29.160  0.00  0.00    -0.000 A 
ATOM     13  C   UNL A   1     -26.252  -4.817  29.683  0.00  0.00    -0.000 A 
ATOM     14  C   UNL A   1     -26.698  -3.812  30.013  0.00  0.00    -0.000 A 
ATOM     15  C   UNL A   1     -25.936  -2.517  29.560  0.00  0.00    -0.004 A 
ENDBRANCH   9  10
ENDBRANCH   1   9
TORSDOF 4
ENDMDL
ENDMDL
