MODEL 3369
MODEL 1
REMARK VINA RESULT:    -6.630      0.000      0.000
REMARK INTER + INTRA:          -7.553
REMARK INTER:                  -7.405
REMARK INTRA:                  -0.148
REMARK UNBOUND:                -0.148
REMARK  Name = No_3369-gen_results/8p0m/2024-11-27-11-27-31/
REMARK  2 active torsions:
REMARK  status: ('A' for Active; 'I' for Inactive)
REMARK    1  A    between atoms: C_2  and  C_15
REMARK    2  A    between atoms: C_8  and  C_11
REMARK                            x       y       z     vdW  Elec       q    Type
REMARK                         _______ _______ _______ _____ _____    ______ ____
ROOT
ATOM      1  C   UNL A   1     -30.642 -10.594  28.225  0.00  0.00    +0.018 A 
ATOM      2  C   UNL A   1     -29.837 -11.243  28.852  0.00  0.00    +0.081 A 
ATOM      3  C   UNL A   1     -29.474 -10.959  30.168  0.00  0.00    +0.007 A 
ATOM      4  C   UNL A   1     -30.037  -9.792  30.820  0.00  0.00    +0.001 A 
ATOM      5  C   UNL A   1     -30.961  -9.077  30.024  0.00  0.00    +0.011 A 
ATOM      6  C   UNL A   1     -31.235  -9.418  28.790  0.00  0.00    +0.058 A 
ATOM      7  C   UNL A   1     -28.505 -11.718  31.002  0.00  0.00    +0.005 A 
ATOM      8  C   UNL A   1     -28.291 -11.483  32.275  0.00  0.00    +0.057 A 
ATOM      9  C   UNL A   1     -29.049 -10.366  32.864  0.00  0.00    +0.005 A 
ATOM     10  C   UNL A   1     -29.852  -9.551  32.186  0.00  0.00    +0.000 A 
ATOM     11 CL   UNL A   1     -32.296  -8.416  27.825  0.00  0.00    -0.082 Cl
ENDROOT
BRANCH   8  12
ATOM     12  C   UNL A   1     -27.398 -12.236  33.131  0.00  0.00    +0.284 C 
ATOM     13  N   UNL A   1     -27.208 -12.319  34.253  0.00  0.00    -0.084 NA
ATOM     14  O   UNL A   1     -26.395 -12.923  32.443  0.00  0.00    -0.267 OA
ENDBRANCH   8  12
BRANCH   2  15
ATOM     15  C   UNL A   1     -29.229 -12.377  28.090  0.00  0.00    +0.388 C 
ATOM     16  O   UNL A   1     -29.523 -13.489  28.342  0.00  0.00    -0.241 OA
ATOM     17  O   UNL A   1     -28.610 -12.062  26.967  0.00  0.00    -0.241 OA
ENDBRANCH   2  15
TORSDOF 2
ENDMDL
ENDMDL
