MODEL 3370
MODEL 1
REMARK VINA RESULT:    -4.937      0.000      0.000
REMARK INTER + INTRA:          -5.638
REMARK INTER:                  -5.514
REMARK INTRA:                  -0.124
REMARK UNBOUND:                -0.124
REMARK  Name = No_3370-gen_results/8p0m/2024-11-27-11-27-31/
REMARK  2 active torsions:
REMARK  status: ('A' for Active; 'I' for Inactive)
REMARK    1  A    between atoms: C_2  and  O_7
REMARK    2  A    between atoms: O_7  and  C_8
REMARK                            x       y       z     vdW  Elec       q    Type
REMARK                         _______ _______ _______ _____ _____    ______ ____
ROOT
ATOM      1  C   UNL A   1     -25.071  -2.552  29.702  0.00  0.00    +0.037 A 
ATOM      2  C   UNL A   1     -24.106  -3.041  29.161  0.00  0.00    +0.145 A 
ATOM      3  C   UNL A   1     -24.022  -4.344  28.791  0.00  0.00    +0.037 A 
ATOM      4  C   UNL A   1     -25.121  -5.185  29.052  0.00  0.00    +0.003 A 
ATOM      5  C   UNL A   1     -26.266  -3.330  29.912  0.00  0.00    +0.003 A 
ATOM      6  C   UNL A   1     -26.223  -4.652  29.585  0.00  0.00    +0.000 A 
ENDROOT
BRANCH   2   7
ATOM      7  O   UNL A   1     -22.978  -2.273  28.849  0.00  0.00    -0.450 OA
BRANCH   7   8
ATOM      8  C   UNL A   1     -22.663  -1.067  29.411  0.00  0.00    +0.180 C 
ATOM      9  C   UNL A   1     -21.935  -0.184  28.876  0.00  0.00    +0.044 C 
ENDBRANCH   7   8
ENDBRANCH   2   7
TORSDOF 2
ENDMDL
ENDMDL
