REMARK  Name = outputs/IAG933/test6/raw/output_3370_IAG933_linker_design_.xyz
REMARK  13 active torsions:
REMARK  status: ('A' for Active; 'I' for Inactive)
REMARK    1  A    between atoms: C_1  and  C_2
REMARK    2  A    between atoms: C_1  and  C_8
REMARK    3  A    between atoms: C_1  and  C_35
REMARK    4  A    between atoms: C_13  and  N_34
REMARK    5  A    between atoms: C_14  and  C_15
REMARK    6  A    between atoms: C_21  and  O_22
REMARK    7  A    between atoms: O_22  and  C_23
REMARK    8  A    between atoms: C_23  and  C_24
REMARK    9  A    between atoms: N_34  and  C_39
REMARK   10  A    between atoms: C_35  and  C_44
REMARK   11  A    between atoms: C_36  and  C_44
REMARK   12  A    between atoms: C_39  and  O_43
REMARK   13  A    between atoms: C_40  and  O_43
REMARK                            x       y       z     vdW  Elec       q    Type
REMARK                         _______ _______ _______ _____ _____    ______ ____
ROOT
ATOM      1  C   UNL A   1     -25.586  -0.258  29.023  0.00  0.00    +0.011 C 
ATOM      2  C   UNL A   1     -24.756   0.436  28.271  0.00  0.00    +0.202 C 
ENDROOT
BRANCH   1   3
ATOM      3  C   UNL A   1     -24.855  -1.012  30.143  0.00  0.00    +0.061 C 
BRANCH   3   4
ATOM      4  C   UNL A   1     -24.973  -2.505  29.788  0.00  0.00    -0.017 C 
ATOM      5  C   UNL A   1     -23.906  -3.173  29.146  0.00  0.00    -0.004 C 
ATOM      6  C   UNL A   1     -23.989  -4.549  28.853  0.00  0.00    -0.000 C 
ATOM      7  C   UNL A   1     -25.137  -5.280  29.205  0.00  0.00    -0.000 C 
ATOM      8  C   UNL A   1     -26.232  -4.611  29.784  0.00  0.00    -0.000 C 
ATOM      9  C   UNL A   1     -26.155  -3.232  30.065  0.00  0.00    -0.004 C 
ENDBRANCH   3   4
BRANCH   3  10
ATOM     10  C   UNL A   1     -25.387  -0.679  31.571  0.00  0.00    +0.081 C 
ATOM     11  C   UNL A   1     -25.189   0.773  32.028  0.00  0.00    +0.019 C 
ATOM     12  C   UNL A   1     -25.336   0.684  33.544  0.00  0.00    +0.020 C 
ATOM     13  C   UNL A   1     -24.829  -0.715  33.905  0.00  0.00    +0.089 C 
ATOM     14  N   UNL A   1     -24.758  -1.481  32.646  0.00  0.00    -0.219 NA
ENDBRANCH   3  10
ENDBRANCH   1   3
BRANCH   2  15
ATOM     15  N   UNL A   1     -25.061   1.141  27.428  0.00  0.00    -0.200 NA
BRANCH  15  16
ATOM     16  C   UNL A   1     -25.688   1.614  26.461  0.00  0.00    +0.165 C 
ATOM     17  C   UNL A   1     -26.250   2.920  26.395  0.00  0.00    +0.075 C 
ATOM     18  C   UNL A   1     -27.438   3.091  25.645  0.00  0.00    +0.104 C 
ATOM     19  N   UNL A   1     -28.075   2.089  25.003  0.00  0.00    -0.212 NA
ATOM     20  C   UNL A   1     -27.543   0.849  25.079  0.00  0.00    +0.236 C 
ATOM     21  C   UNL A   1     -26.354   0.576  25.777  0.00  0.00    +0.260 C 
ATOM     22  F   UNL A   1     -25.860  -0.681  25.795  0.00  0.00    -0.225 F 
BRANCH  17  23
ATOM     23  C   UNL A   1     -25.642   4.093  27.123  0.00  0.00    +0.264 C 
ATOM     24  N   UNL A   1     -25.614   5.252  26.449  0.00  0.00    -0.200 NA
ATOM     25  C   UNL A   1     -25.026   6.479  26.963  0.00  0.00    +0.139 C 
ATOM     26  O   UNL A   1     -25.143   3.966  28.243  0.00  0.00    -0.269 OA
ENDBRANCH  17  23
BRANCH  20  27
ATOM     27  O   UNL A   1     -28.193  -0.208  24.477  0.00  0.00    -0.459 OA
BRANCH  27  28
ATOM     28  C   UNL A   1     -29.460   0.005  23.866  0.00  0.00    +0.242 C 
BRANCH  28  29
ATOM     29  C   UNL A   1     -30.065  -1.377  23.573  0.00  0.00    +0.229 C 
ATOM     30  O   UNL A   1     -30.729  -1.878  24.721  0.00  0.00    -0.216 OA
ENDBRANCH  28  29
ENDBRANCH  27  28
ENDBRANCH  20  27
ENDBRANCH  15  16
ENDBRANCH   2  15
BRANCH   2  31
ATOM     31  O   UNL A   1     -23.303   0.403  28.332  0.00  0.00    -0.466 OA
BRANCH  31  33
ATOM     32  C   UNL A   1     -22.799   2.222  25.852  0.00  0.00    +0.047 C 
ATOM     33  C   UNL A   1     -22.737   1.561  27.356  0.00  0.00    +0.168 C 
ATOM     34  C   UNL A   1     -21.235   1.549  27.611  0.00  0.00    +0.047 C 
ENDBRANCH  31  33
ENDBRANCH   2  31
BRANCH   1  35
ATOM     35  C   UNL A   1     -27.208  -0.305  28.513  0.00  0.00    +0.028 C 
BRANCH  35  41
ATOM     36  C   UNL A   1     -32.662   1.524  29.942  0.00  0.00    +0.090 C 
ATOM     37  C   UNL A   1     -31.394  -0.216  27.897  0.00  0.00    +0.017 C 
ATOM     38  N   UNL A   1     -31.241   1.193  29.842  0.00  0.00    -0.272 NA
ATOM     39  C   UNL A   1     -31.053  -0.242  29.420  0.00  0.00    +0.058 C 
ATOM     40 CL   UNL A   1     -27.184   2.170  30.129  0.00  0.00    -0.114 Cl
ATOM     41  C   UNL A   1     -28.517   0.082  29.451  0.00  0.00    +0.022 C 
ATOM     42  C   UNL A   1     -29.657  -0.759  29.616  0.00  0.00    +0.018 C 
ATOM     43  C   UNL A   1     -30.129   1.959  30.404  0.00  0.00    +0.088 C 
ATOM     44  C   UNL A   1     -28.751   1.331  30.088  0.00  0.00    +0.096 C 
ENDBRANCH  35  41
ENDBRANCH   1  35
TORSDOF 13
