MODEL 3371
MODEL 1
REMARK VINA RESULT:    -5.019      0.000      0.000
REMARK INTER + INTRA:          -5.019
REMARK INTER:                  -5.019
REMARK INTRA:                   0.000
REMARK UNBOUND:                 0.000
REMARK  Name = No_3371-gen_results/8p0m/2024-11-27-11-27-31/
REMARK  0 active torsions:
REMARK  status: ('A' for Active; 'I' for Inactive)
REMARK                            x       y       z     vdW  Elec       q    Type
REMARK                         _______ _______ _______ _____ _____    ______ ____
ROOT
ATOM      1  C   UNL A   1     -10.483  -9.282  19.212  0.00  0.00    +0.042 A 
ATOM      2  C   UNL A   1      -9.737  -9.088  20.144  0.00  0.00    +0.003 A 
ATOM      3  C   UNL A   1      -8.442  -9.594  20.146  0.00  0.00    +0.000 A 
ATOM      4  C   UNL A   1      -7.962 -10.405  19.056  0.00  0.00    +0.003 A 
ATOM      5  C   UNL A   1      -8.897 -10.599  18.032  0.00  0.00    +0.042 A 
ATOM      6  C   UNL A   1     -10.116 -10.113  18.086  0.00  0.00    +0.196 A 
ATOM      7  O   UNL A   1     -10.976 -10.381  17.065  0.00  0.00    -0.287 OA
ENDROOT
TORSDOF 0
ENDMDL
ENDMDL
