REMARK  Name = outputs/IAG933/test6/raw/output_3372_IAG933_linker_design_.xyz
REMARK  13 active torsions:
REMARK  status: ('A' for Active; 'I' for Inactive)
REMARK    1  A    between atoms: C_1  and  C_2
REMARK    2  A    between atoms: C_1  and  C_8
REMARK    3  A    between atoms: C_1  and  N_37
REMARK    4  A    between atoms: C_13  and  C_36
REMARK    5  A    between atoms: C_14  and  C_15
REMARK    6  A    between atoms: C_21  and  O_22
REMARK    7  A    between atoms: O_22  and  C_23
REMARK    8  A    between atoms: C_23  and  C_24
REMARK    9  A    between atoms: C_31  and  C_33
REMARK   10  A    between atoms: C_31  and  N_38
REMARK   11  A    between atoms: O_34  and  C_40
REMARK   12  A    between atoms: O_34  and  C_41
REMARK   13  A    between atoms: N_37  and  C_41
REMARK                            x       y       z     vdW  Elec       q    Type
REMARK                         _______ _______ _______ _____ _____    ______ ____
ROOT
ATOM      1 CL   UNL A   1     -23.185   2.280  24.944  0.00  0.00    -0.061 Cl
ATOM      2  C   UNL A   1     -21.924   0.988  28.399  0.00  0.00    +0.340 C 
ATOM      3  N   UNL A   1     -21.973   1.569  27.204  0.00  0.00    -0.188 NA
ATOM      4  C   UNL A   1     -24.378   1.264  27.177  0.00  0.00    +0.113 C 
ATOM      5  N   UNL A   1     -25.353  -0.050  29.093  0.00  0.00    -0.163 N 
ATOM      6  N   UNL A   1     -23.029   0.511  28.965  0.00  0.00    -0.014 NA
ATOM      7  C   UNL A   1     -24.261   0.574  28.381  0.00  0.00    +0.330 C 
ATOM      8  C   UNL A   1     -23.158   1.653  26.647  0.00  0.00    +0.149 C 
ENDROOT
BRANCH   4   9
ATOM      9  C   UNL A   1     -25.688   1.614  26.461  0.00  0.00    +0.048 C 
ATOM     10  C   UNL A   1     -26.250   2.920  26.395  0.00  0.00    +0.077 C 
ATOM     11  C   UNL A   1     -27.438   3.091  25.645  0.00  0.00    +0.107 C 
ATOM     12  N   UNL A   1     -28.075   2.089  25.003  0.00  0.00    -0.208 NA
ATOM     13  C   UNL A   1     -27.543   0.849  25.079  0.00  0.00    +0.253 C 
ATOM     14  C   UNL A   1     -26.354   0.576  25.777  0.00  0.00    +0.193 C 
ATOM     15  F   UNL A   1     -25.860  -0.681  25.795  0.00  0.00    -0.199 F 
BRANCH  10  16
ATOM     16  C   UNL A   1     -25.642   4.093  27.123  0.00  0.00    +0.266 C 
ATOM     17  N   UNL A   1     -25.614   5.252  26.449  0.00  0.00    -0.200 NA
ATOM     18  C   UNL A   1     -25.026   6.479  26.963  0.00  0.00    +0.139 C 
ATOM     19  O   UNL A   1     -25.143   3.966  28.243  0.00  0.00    -0.268 OA
ENDBRANCH  10  16
BRANCH  13  20
ATOM     20  O   UNL A   1     -28.193  -0.208  24.477  0.00  0.00    -0.456 OA
BRANCH  20  21
ATOM     21  C   UNL A   1     -29.460   0.005  23.866  0.00  0.00    +0.243 C 
BRANCH  21  22
ATOM     22  C   UNL A   1     -30.065  -1.377  23.573  0.00  0.00    +0.229 C 
ATOM     23  O   UNL A   1     -30.729  -1.878  24.721  0.00  0.00    -0.216 OA
ENDBRANCH  21  22
ENDBRANCH  20  21
ENDBRANCH  13  20
ENDBRANCH   4   9
BRANCH   5  24
ATOM     24  C   UNL A   1     -24.855  -1.012  30.143  0.00  0.00    +0.201 C 
BRANCH  24  25
ATOM     25  C   UNL A   1     -24.973  -2.505  29.788  0.00  0.00    +0.021 C 
ATOM     26  C   UNL A   1     -23.906  -3.173  29.146  0.00  0.00    -0.000 C 
ATOM     27  C   UNL A   1     -23.989  -4.549  28.853  0.00  0.00    -0.000 C 
ATOM     28  C   UNL A   1     -25.137  -5.280  29.205  0.00  0.00    -0.000 C 
ATOM     29  C   UNL A   1     -26.232  -4.611  29.784  0.00  0.00    -0.000 C 
ATOM     30  C   UNL A   1     -26.155  -3.232  30.065  0.00  0.00    -0.000 C 
ENDBRANCH  24  25
BRANCH  24  31
ATOM     31  C   UNL A   1     -25.387  -0.679  31.571  0.00  0.00    +0.120 C 
ATOM     32  C   UNL A   1     -25.189   0.773  32.028  0.00  0.00    +0.023 C 
ATOM     33  C   UNL A   1     -25.336   0.684  33.544  0.00  0.00    +0.020 C 
ATOM     34  C   UNL A   1     -24.829  -0.715  33.905  0.00  0.00    +0.089 C 
ATOM     35  N   UNL A   1     -24.758  -1.481  32.646  0.00  0.00    -0.215 NA
ENDBRANCH  24  31
ENDBRANCH   5  24
BRANCH   5  36
ATOM     36  C   UNL A   1     -26.779  -0.123  28.716  0.00  0.00    +0.359 C 
BRANCH  36  37
ATOM     37  O   UNL A   1     -27.338   1.182  28.638  0.00  0.00    -0.314 OA
BRANCH  37  42
ATOM     38  C   UNL A   1     -29.021   2.859  28.734  0.00  0.00    +0.102 C 
ATOM     39  C   UNL A   1     -30.508   1.466  27.587  0.00  0.00    +0.075 C 
ATOM     40  N   UNL A   1     -30.438   2.738  28.320  0.00  0.00    -0.269 NA
ATOM     41  C   UNL A   1     -29.628   0.505  28.394  0.00  0.00    +0.048 C 
ATOM     42  C   UNL A   1     -28.639   1.416  29.160  0.00  0.00    +0.137 C 
BRANCH  40  43
ATOM     43  C   UNL A   1     -30.915   3.838  27.555  0.00  0.00    +0.093 C 
BRANCH  43  44
ATOM     44  C   UNL A   1     -32.276   3.753  27.646  0.00  0.00    +0.127 C 
ATOM     45  N   UNL A   1     -32.754   4.503  28.762  0.00  0.00    -0.130 NA
ENDBRANCH  43  44
ENDBRANCH  40  43
ENDBRANCH  37  42
ENDBRANCH  36  37
ENDBRANCH   5  36
TORSDOF 13
