MODEL 3372
MODEL 1
REMARK VINA RESULT:    -6.957      0.000      0.000
REMARK INTER + INTRA:          -7.726
REMARK INTER:                  -7.364
REMARK INTRA:                  -0.362
REMARK UNBOUND:                -0.362
REMARK  Name = No_3372-gen_results/8p0m/2024-11-27-11-27-31/
REMARK  1 active torsions:
REMARK  status: ('A' for Active; 'I' for Inactive)
REMARK    1  A    between atoms: C_2  and  C_8
REMARK                            x       y       z     vdW  Elec       q    Type
REMARK                         _______ _______ _______ _____ _____    ______ ____
ROOT
ATOM      1  C   UNL A   1     -22.600  -1.163  29.317  0.00  0.00    +0.002 A 
ATOM      2  C   UNL A   1     -23.673  -1.379  28.804  0.00  0.00    +0.000 A 
ATOM      3  C   UNL A   1     -24.302  -0.496  27.948  0.00  0.00    +0.002 A 
ATOM      4  C   UNL A   1     -23.627   0.715  27.624  0.00  0.00    +0.030 A 
ATOM      5  C   UNL A   1     -22.360   0.832  28.086  0.00  0.00    +0.140 A 
ATOM      6  C   UNL A   1     -21.823  -0.085  28.868  0.00  0.00    +0.030 A 
ATOM      7  F   UNL A   1     -21.714   1.945  27.741  0.00  0.00    -0.204 F 
ENDROOT
BRANCH   2   8
ATOM      8  C   UNL A   1     -24.570  -2.609  29.179  0.00  0.00    +0.000 A 
ATOM      9  C   UNL A   1     -25.600  -2.603  29.511  0.00  0.00    +0.000 A 
ATOM     10  C   UNL A   1     -26.457  -3.749  29.872  0.00  0.00    +0.000 A 
ATOM     11  C   UNL A   1     -26.052  -4.852  29.533  0.00  0.00    +0.000 A 
ATOM     12  C   UNL A   1     -24.777  -5.075  28.973  0.00  0.00    +0.000 A 
ATOM     13  C   UNL A   1     -23.944  -3.905  28.727  0.00  0.00    +0.000 A 
ENDBRANCH   2   8
TORSDOF 1
ENDMDL
ENDMDL
