REMARK  Name = outputs/IAG933/test6/raw/output_3373_IAG933_linker_design_.xyz
REMARK  12 active torsions:
REMARK  status: ('A' for Active; 'I' for Inactive)
REMARK    1  A    between atoms: C_1  and  C_2
REMARK    2  A    between atoms: C_1  and  C_8
REMARK    3  A    between atoms: C_1  and  N_39
REMARK    4  A    between atoms: C_13  and  N_31
REMARK    5  A    between atoms: C_14  and  C_15
REMARK    6  A    between atoms: C_21  and  O_22
REMARK    7  A    between atoms: O_22  and  C_23
REMARK    8  A    between atoms: C_23  and  C_24
REMARK    9  A    between atoms: C_30  and  O_37
REMARK   10  A    between atoms: N_31  and  C_33
REMARK   11  A    between atoms: C_33  and  C_36
REMARK   12  A    between atoms: C_36  and  O_37
REMARK                            x       y       z     vdW  Elec       q    Type
REMARK                         _______ _______ _______ _____ _____    ______ ____
ROOT
ATOM      1  O   UNL A   1     -21.984   2.018  27.078  0.00  0.00    -0.319 OA
ENDROOT
BRANCH   1   3
ATOM      2  C   UNL A   1     -23.280   0.921  29.276  0.00  0.00    +0.253 C 
ATOM      3  C   UNL A   1     -22.372   1.037  28.059  0.00  0.00    +0.194 C 
ATOM      4  C   UNL A   1     -21.012   0.528  28.484  0.00  0.00    +0.041 C 
ATOM      5  O   UNL A   1     -23.389   1.808  30.101  0.00  0.00    -0.272 OA
ATOM      6  C   UNL A   1     -22.584  -1.054  29.944  0.00  0.00    +0.094 C 
ATOM      7  C   UNL A   1     -21.446  -0.902  28.930  0.00  0.00    +0.025 C 
ATOM      8  N   UNL A   1     -23.734  -0.287  29.588  0.00  0.00    -0.274 N 
BRANCH   8   9
ATOM      9  C   UNL A   1     -24.855  -1.012  30.143  0.00  0.00    +0.114 C 
BRANCH   9  10
ATOM     10  C   UNL A   1     -24.973  -2.505  29.788  0.00  0.00    -0.003 C 
ATOM     11  C   UNL A   1     -23.906  -3.173  29.146  0.00  0.00    -0.003 C 
ATOM     12  C   UNL A   1     -23.989  -4.549  28.853  0.00  0.00    -0.000 C 
ATOM     13  C   UNL A   1     -25.137  -5.280  29.205  0.00  0.00    -0.000 C 
ATOM     14  C   UNL A   1     -26.232  -4.611  29.784  0.00  0.00    -0.000 C 
ATOM     15  C   UNL A   1     -26.155  -3.232  30.065  0.00  0.00    -0.003 C 
ENDBRANCH   9  10
BRANCH   9  16
ATOM     16  C   UNL A   1     -25.387  -0.679  31.571  0.00  0.00    +0.095 C 
ATOM     17  C   UNL A   1     -25.189   0.773  32.028  0.00  0.00    +0.021 C 
ATOM     18  C   UNL A   1     -25.336   0.684  33.544  0.00  0.00    +0.020 C 
ATOM     19  C   UNL A   1     -24.829  -0.715  33.905  0.00  0.00    +0.089 C 
ATOM     20  N   UNL A   1     -24.758  -1.481  32.646  0.00  0.00    -0.217 NA
ENDBRANCH   9  16
ENDBRANCH   8   9
ENDBRANCH   1   3
BRANCH   1  22
ATOM     21  F   UNL A   1     -21.797   2.361  24.786  0.00  0.00    -0.202 F 
ATOM     22  C   UNL A   1     -22.616   2.146  25.757  0.00  0.00    +0.301 C 
BRANCH  22  23
ATOM     23  C   UNL A   1     -23.716   1.888  26.061  0.00  0.00    +0.179 C 
BRANCH  23  24
ATOM     24  N   UNL A   1     -24.512   1.249  26.851  0.00  0.00    -0.229 NA
BRANCH  24  25
ATOM     25  C   UNL A   1     -25.688   1.614  26.461  0.00  0.00    +0.103 C 
ATOM     26  C   UNL A   1     -26.250   2.920  26.395  0.00  0.00    +0.091 C 
ATOM     27  C   UNL A   1     -27.438   3.091  25.645  0.00  0.00    +0.108 C 
ATOM     28  N   UNL A   1     -28.075   2.089  25.003  0.00  0.00    -0.208 NA
ATOM     29  C   UNL A   1     -27.543   0.849  25.079  0.00  0.00    +0.255 C 
ATOM     30  C   UNL A   1     -26.354   0.576  25.777  0.00  0.00    +0.208 C 
ATOM     31  F   UNL A   1     -25.860  -0.681  25.795  0.00  0.00    -0.198 F 
BRANCH  26  32
ATOM     32  C   UNL A   1     -25.642   4.093  27.123  0.00  0.00    +0.268 C 
ATOM     33  N   UNL A   1     -25.614   5.252  26.449  0.00  0.00    -0.200 NA
ATOM     34  C   UNL A   1     -25.026   6.479  26.963  0.00  0.00    +0.139 C 
ATOM     35  O   UNL A   1     -25.143   3.966  28.243  0.00  0.00    -0.268 OA
ENDBRANCH  26  32
BRANCH  29  36
ATOM     36  O   UNL A   1     -28.193  -0.208  24.477  0.00  0.00    -0.456 OA
BRANCH  36  37
ATOM     37  C   UNL A   1     -29.460   0.005  23.866  0.00  0.00    +0.243 C 
BRANCH  37  38
ATOM     38  C   UNL A   1     -30.065  -1.377  23.573  0.00  0.00    +0.229 C 
ATOM     39  O   UNL A   1     -30.729  -1.878  24.721  0.00  0.00    -0.216 OA
ENDBRANCH  37  38
ENDBRANCH  36  37
ENDBRANCH  29  36
ENDBRANCH  24  25
ENDBRANCH  23  24
ENDBRANCH  22  23
ENDBRANCH   1  22
TORSDOF 12
