MODEL 3374
MODEL 1
REMARK VINA RESULT:    -8.216      0.000      0.000
REMARK INTER + INTRA:         -11.363
REMARK INTER:                 -10.138
REMARK INTRA:                  -1.226
REMARK UNBOUND:                -1.226
REMARK  Name = No_3374-gen_results/8p0m/2024-11-27-11-27-31/
REMARK  4 active torsions:
REMARK  status: ('A' for Active; 'I' for Inactive)
REMARK    1  A    between atoms: C_1  and  C_2
REMARK    2  A    between atoms: C_1  and  C_8
REMARK    3  A    between atoms: C_12  and  C_19
REMARK    4  A    between atoms: C_19  and  C_20
REMARK                            x       y       z     vdW  Elec       q    Type
REMARK                         _______ _______ _______ _____ _____    ______ ____
ROOT
ATOM      1  C   UNL A   1     -24.211   0.674  26.719  0.00  0.00    -0.018 A 
ATOM      2  C   UNL A   1     -23.399   1.765  27.114  0.00  0.00    -0.004 A 
ATOM      3  C   UNL A   1     -22.589   1.639  28.223  0.00  0.00    -0.001 A 
ATOM      4  C   UNL A   1     -22.703   0.443  28.987  0.00  0.00    -0.004 A 
ATOM      5  C   UNL A   1     -23.492  -0.574  28.567  0.00  0.00    -0.018 A 
ATOM      6  C   UNL A   1     -24.213  -0.519  27.389  0.00  0.00    -0.008 A 
ENDROOT
BRANCH   1   7
ATOM      7  C   UNL A   1     -24.795   0.752  25.370  0.00  0.00    +0.053 C 
BRANCH   7   8
ATOM      8  C   UNL A   1     -26.003   0.705  25.344  0.00  0.00    -0.018 A 
ATOM      9  C   UNL A   1     -26.811   1.260  26.317  0.00  0.00    -0.004 A 
ATOM     10  C   UNL A   1     -28.258   1.164  26.372  0.00  0.00    +0.001 A 
ATOM     11  C   UNL A   1     -28.931   0.458  25.350  0.00  0.00    +0.014 A 
ATOM     12  C   UNL A   1     -28.099  -0.137  24.336  0.00  0.00    -0.004 A 
ATOM     13  C   UNL A   1     -26.726  -0.064  24.325  0.00  0.00    -0.007 A 
ATOM     14  C   UNL A   1     -30.351   0.250  25.326  0.00  0.00    +0.098 C 
ATOM     15  N   UNL A   1     -31.163   0.939  26.004  0.00  0.00    -0.151 NA
ATOM     16  C   UNL A   1     -30.929  -0.898  24.592  0.00  0.00    +0.136 C 
ATOM     17  N   UNL A   1     -30.245  -1.627  23.795  0.00  0.00    -0.207 NA
ATOM     18  C   UNL A   1     -28.812  -1.395  23.650  0.00  0.00    +0.116 C 
ENDBRANCH   7   8
ENDBRANCH   1   7
BRANCH   5  19
ATOM     19  C   UNL A   1     -23.563  -1.850  29.378  0.00  0.00    +0.053 C 
BRANCH  19  20
ATOM     20  C   UNL A   1     -24.291  -2.654  29.351  0.00  0.00    -0.018 A 
ATOM     21  C   UNL A   1     -24.014  -4.004  28.817  0.00  0.00    -0.004 A 
ATOM     22  C   UNL A   1     -24.970  -5.048  29.032  0.00  0.00    -0.000 A 
ATOM     23  C   UNL A   1     -26.196  -4.657  29.545  0.00  0.00    -0.000 A 
ATOM     24  C   UNL A   1     -26.557  -3.472  30.006  0.00  0.00    -0.000 A 
ATOM     25  C   UNL A   1     -25.630  -2.469  30.004  0.00  0.00    -0.004 A 
ENDBRANCH  19  20
ENDBRANCH   5  19
TORSDOF 4
ENDMDL
ENDMDL
