REMARK  Name = No_3375-gen_results/8p0m/2024-11-27-11-27-31/
REMARK  1 active torsions:
REMARK  status: ('A' for Active; 'I' for Inactive)
REMARK    1  A    between atoms: C_5  and  C_6
REMARK                            x       y       z     vdW  Elec       q    Type
REMARK                         _______ _______ _______ _____ _____    ______ ____
ROOT
ATOM      1  C   UNL A   1     -28.016  -0.814  28.878  0.00  0.00    +0.001 A 
ATOM      2  C   UNL A   1     -27.064  -0.119  28.608  0.00  0.00    +0.011 A 
ATOM      3  C   UNL A   1     -26.972   0.714  27.506  0.00  0.00    +0.058 A 
ATOM      4  C   UNL A   1     -28.105   0.774  26.642  0.00  0.00    +0.016 A 
ATOM      5  C   UNL A   1     -29.204   0.118  27.048  0.00  0.00    +0.058 A 
ATOM      6  C   UNL A   1     -29.182  -0.676  28.117  0.00  0.00    +0.005 A 
ATOM      7 CL   UNL A   1     -25.482   1.531  27.072  0.00  0.00    -0.082 Cl
ENDROOT
BRANCH   5   8
ATOM      8  C   UNL A   1     -30.349   0.257  26.220  0.00  0.00    +0.284 C 
ATOM      9  O   UNL A   1     -31.339  -0.235  26.500  0.00  0.00    -0.267 OA
ATOM     10  N   UNL A   1     -30.219   0.870  24.942  0.00  0.00    -0.084 NA
ENDBRANCH   5   8
TORSDOF 1
