MODEL 3375
MODEL 1
REMARK VINA RESULT:    -5.351      0.000      0.000
REMARK INTER + INTRA:          -5.711
REMARK INTER:                  -5.664
REMARK INTRA:                  -0.047
REMARK UNBOUND:                -0.047
REMARK  Name = No_3375-gen_results/8p0m/2024-11-27-11-27-31/
REMARK  1 active torsions:
REMARK  status: ('A' for Active; 'I' for Inactive)
REMARK    1  A    between atoms: C_5  and  C_6
REMARK                            x       y       z     vdW  Elec       q    Type
REMARK                         _______ _______ _______ _____ _____    ______ ____
ROOT
ATOM      1  C   UNL A   1     -29.826  -9.941  31.734  0.00  0.00    +0.001 A 
ATOM      2  C   UNL A   1     -29.931 -10.336  30.596  0.00  0.00    +0.011 A 
ATOM      3  C   UNL A   1     -29.145 -11.317  30.016  0.00  0.00    +0.058 A 
ATOM      4  C   UNL A   1     -28.155 -11.926  30.842  0.00  0.00    +0.016 A 
ATOM      5  C   UNL A   1     -28.163 -11.584  32.140  0.00  0.00    +0.058 A 
ATOM      6  C   UNL A   1     -28.949 -10.610  32.595  0.00  0.00    +0.005 A 
ATOM      7 CL   UNL A   1     -29.223 -11.688  28.304  0.00  0.00    -0.082 Cl
ENDROOT
BRANCH   5   8
ATOM      8  C   UNL A   1     -27.227 -12.262  32.965  0.00  0.00    +0.284 C 
ATOM      9  O   UNL A   1     -26.403 -12.906  32.510  0.00  0.00    -0.267 OA
ATOM     10  N   UNL A   1     -27.420 -12.281  34.375  0.00  0.00    -0.084 NA
ENDBRANCH   5   8
TORSDOF 1
ENDMDL
ENDMDL
