MODEL 3376
MODEL 1
REMARK VINA RESULT:    -8.987      0.000      0.000
REMARK INTER + INTRA:         -11.833
REMARK INTER:                 -11.088
REMARK INTRA:                  -0.745
REMARK UNBOUND:                -0.745
REMARK  Name = No_3376-gen_results/8p0m/2024-11-27-11-27-31/
REMARK  4 active torsions:
REMARK  status: ('A' for Active; 'I' for Inactive)
REMARK    1  A    between atoms: C_2  and  C_3
REMARK    2  A    between atoms: N_4  and  C_15
REMARK    3  A    between atoms: C_28  and  C_31
REMARK    4  A    between atoms: C_32  and  C_33
REMARK                            x       y       z     vdW  Elec       q    Type
REMARK                         _______ _______ _______ _____ _____    ______ ____
ROOT
ATOM      1  C   UNL A   1     -27.309   2.815  26.122  0.00  0.00    +0.036 C 
ATOM      2  C   UNL A   1     -26.403   3.681  26.386  0.00  0.00    +0.011 C 
ATOM      3  C   UNL A   1     -25.260   3.511  26.452  0.00  0.00    -0.002 C 
ATOM      4  C   UNL A   1     -24.513   2.552  26.578  0.00  0.00    -0.003 C 
ATOM      5  C   UNL A   1     -23.079   2.377  26.596  0.00  0.00    +0.047 C 
ATOM      6  C   UNL A   1     -27.416   1.514  26.746  0.00  0.00    +0.069 C 
ATOM      7  C   UNL A   1     -25.092   1.180  26.814  0.00  0.00    +0.063 C 
ATOM      8  C   UNL A   1     -26.335   0.805  26.803  0.00  0.00    -0.004 C 
ATOM      9  C   UNL A   1     -22.408   2.404  25.276  0.00  0.00    +0.009 C 
ATOM     10  C   UNL A   1     -22.512   1.244  27.471  0.00  0.00    -0.003 A 
ATOM     11  C   UNL A   1     -21.340   1.156  27.760  0.00  0.00    -0.003 A 
ATOM     12  C   UNL A   1     -20.908   0.009  28.520  0.00  0.00    -0.000 A 
ATOM     13  C   UNL A   1     -21.827  -0.848  29.079  0.00  0.00    +0.001 A 
ATOM     14  C   UNL A   1     -23.150  -0.638  28.847  0.00  0.00    +0.015 A 
ATOM     15  C   UNL A   1     -23.505   0.436  28.034  0.00  0.00    +0.067 A 
ATOM     16  N   UNL A   1     -24.449   0.099  27.166  0.00  0.00    -0.213 NA
ENDROOT
BRANCH   1  19
ATOM     17  O   UNL A   1     -30.193   4.312  24.611  0.00  0.00    -0.270 OA
ATOM     18  C   UNL A   1     -29.442   3.991  25.424  0.00  0.00    +0.253 C 
ATOM     19  N   UNL A   1     -28.260   3.152  25.154  0.00  0.00    -0.257 N 
ATOM     20  C   UNL A   1     -28.136   2.633  23.850  0.00  0.00    +0.120 C 
BRANCH  18  21
ATOM     21  C   UNL A   1     -29.514   4.489  26.709  0.00  0.00    +0.057 A 
ATOM     22  C   UNL A   1     -29.074   5.730  26.924  0.00  0.00    +0.022 A 
ATOM     23  C   UNL A   1     -30.044   3.693  27.783  0.00  0.00    +0.025 A 
ATOM     24  C   UNL A   1     -28.538   6.672  26.035  0.00  0.00    +0.002 A 
ATOM     25  C   UNL A   1     -28.191   7.950  26.347  0.00  0.00    +0.000 A 
ATOM     26  C   UNL A   1     -28.086   8.228  27.734  0.00  0.00    +0.002 A 
ATOM     27  C   UNL A   1     -28.372   7.335  28.744  0.00  0.00    +0.019 A 
ATOM     28  C   UNL A   1     -28.863   6.118  28.365  0.00  0.00    +0.081 A 
ATOM     29  N   UNL A   1     -29.212   5.254  29.294  0.00  0.00    -0.244 NA
ATOM     30  C   UNL A   1     -29.779   4.067  29.106  0.00  0.00    +0.099 A 
ENDBRANCH  18  21
ENDBRANCH   1  19
BRANCH  14  31
ATOM     31  C   UNL A   1     -24.104  -1.533  29.521  0.00  0.00    +0.001 C 
ATOM     32  C   UNL A   1     -24.835  -2.393  28.872  0.00  0.00    -0.000 C 
BRANCH  32  33
ATOM     33  C   UNL A   1     -25.615  -3.406  29.588  0.00  0.00    -0.005 C 
ATOM     34  C   UNL A   1     -25.300  -4.755  29.323  0.00  0.00    -0.026 C 
ATOM     35  C   UNL A   1     -24.182  -5.051  28.560  0.00  0.00    +0.031 C 
ENDBRANCH  32  33
ENDBRANCH  14  31
TORSDOF 4
ENDMDL
ENDMDL
