REMARK  Name = No_3376-gen_results/8p0m/2024-11-27-11-27-31/
REMARK  4 active torsions:
REMARK  status: ('A' for Active; 'I' for Inactive)
REMARK    1  A    between atoms: C_2  and  C_3
REMARK    2  A    between atoms: N_4  and  C_15
REMARK    3  A    between atoms: C_28  and  C_31
REMARK    4  A    between atoms: C_32  and  C_33
REMARK                            x       y       z     vdW  Elec       q    Type
REMARK                         _______ _______ _______ _____ _____    ______ ____
ROOT
ATOM      1  C   UNL A   1     -26.848   1.538  30.209  0.00  0.00    +0.036 C 
ATOM      2  C   UNL A   1     -26.006   1.392  31.163  0.00  0.00    +0.011 C 
ATOM      3  C   UNL A   1     -25.818   2.105  32.056  0.00  0.00    -0.002 C 
ATOM      4  C   UNL A   1     -26.063   3.272  32.324  0.00  0.00    -0.003 C 
ATOM      5  C   UNL A   1     -25.861   4.112  33.482  0.00  0.00    +0.047 C 
ATOM      6  C   UNL A   1     -27.017   2.748  29.434  0.00  0.00    +0.069 C 
ATOM      7  C   UNL A   1     -26.684   4.164  31.279  0.00  0.00    +0.063 C 
ATOM      8  C   UNL A   1     -27.126   3.853  30.098  0.00  0.00    -0.004 C 
ATOM      9  C   UNL A   1     -26.820   3.920  34.594  0.00  0.00    +0.009 C 
ATOM     10  C   UNL A   1     -25.605   5.610  33.237  0.00  0.00    -0.003 A 
ATOM     11  C   UNL A   1     -25.182   6.356  34.092  0.00  0.00    -0.003 A 
ATOM     12  C   UNL A   1     -25.055   7.757  33.774  0.00  0.00    -0.000 A 
ATOM     13  C   UNL A   1     -25.207   8.199  32.480  0.00  0.00    +0.001 A 
ATOM     14  C   UNL A   1     -25.548   7.304  31.514  0.00  0.00    +0.015 A 
ATOM     15  C   UNL A   1     -25.742   5.979  31.895  0.00  0.00    +0.067 A 
ATOM     16  N   UNL A   1     -26.823   5.462  31.327  0.00  0.00    -0.213 NA
ENDROOT
BRANCH   1  19
ATOM     17  O   UNL A   1     -28.123  -1.335  28.487  0.00  0.00    -0.270 OA
ATOM     18  C   UNL A   1     -27.481  -0.404  28.709  0.00  0.00    +0.253 C 
ATOM     19  N   UNL A   1     -27.666   0.447  29.899  0.00  0.00    -0.257 N 
ATOM     20  C   UNL A   1     -28.769   0.152  30.724  0.00  0.00    +0.120 C 
BRANCH  18  21
ATOM     21  C   UNL A   1     -26.380  -0.087  27.939  0.00  0.00    +0.057 A 
ATOM     22  C   UNL A   1     -25.177  -0.439  28.395  0.00  0.00    +0.022 A 
ATOM     23  C   UNL A   1     -26.526   0.604  26.687  0.00  0.00    +0.025 A 
ATOM     24  C   UNL A   1     -24.810  -1.118  29.565  0.00  0.00    +0.002 A 
ATOM     25  C   UNL A   1     -23.547  -1.500  29.898  0.00  0.00    +0.000 A 
ATOM     26  C   UNL A   1     -22.511  -0.891  29.145  0.00  0.00    +0.002 A 
ATOM     27  C   UNL A   1     -22.703  -0.023  28.092  0.00  0.00    +0.019 A 
ATOM     28  C   UNL A   1     -23.996   0.199  27.709  0.00  0.00    +0.081 A 
ATOM     29  N   UNL A   1     -24.229   0.968  26.668  0.00  0.00    -0.244 NA
ATOM     30  C   UNL A   1     -25.409   1.223  26.113  0.00  0.00    +0.099 A 
ENDBRANCH  18  21
ENDBRANCH   1  19
BRANCH  14  31
ATOM     31  C   UNL A   1     -25.630   7.802  30.132  0.00  0.00    +0.001 C 
ATOM     32  C   UNL A   1     -24.656   8.453  29.564  0.00  0.00    -0.000 C 
BRANCH  32  33
ATOM     33  C   UNL A   1     -24.688   8.750  28.130  0.00  0.00    -0.005 C 
ATOM     34  C   UNL A   1     -25.647   8.060  27.359  0.00  0.00    -0.026 C 
ATOM     35  C   UNL A   1     -26.605   7.293  28.001  0.00  0.00    +0.031 C 
ENDBRANCH  32  33
ENDBRANCH  14  31
TORSDOF 4
