MODEL 3377
MODEL 1
REMARK VINA RESULT:    -6.511      0.000      0.000
REMARK INTER + INTRA:          -6.511
REMARK INTER:                  -6.511
REMARK INTRA:                   0.000
REMARK UNBOUND:                 0.000
REMARK  Name = No_3377-gen_results/8p0m/2024-11-27-11-27-31/
REMARK  0 active torsions:
REMARK  status: ('A' for Active; 'I' for Inactive)
REMARK                            x       y       z     vdW  Elec       q    Type
REMARK                         _______ _______ _______ _____ _____    ______ ____
ROOT
ATOM      1  C   UNL A   1     -31.135  -9.758  29.000  0.00  0.00    +0.003 A 
ATOM      2  C   UNL A   1     -30.283 -10.287  29.675  0.00  0.00    +0.035 A 
ATOM      3  C   UNL A   1     -30.061  -9.979  31.017  0.00  0.00    +0.195 C 
ATOM      4  C   UNL A   1     -29.041 -10.563  31.909  0.00  0.00    +0.035 A 
ATOM      5  C   UNL A   1     -28.346 -11.701  31.397  0.00  0.00    -0.015 A 
ATOM      6  C   UNL A   1     -27.395 -12.329  32.200  0.00  0.00    -0.004 A 
ATOM      7  C   UNL A   1     -27.263 -11.922  33.533  0.00  0.00    -0.000 A 
ATOM      8  C   UNL A   1     -27.944 -10.840  34.038  0.00  0.00    +0.000 A 
ATOM      9  C   UNL A   1     -28.879 -10.183  33.209  0.00  0.00    +0.003 A 
ATOM     10  C   UNL A   1     -31.055  -9.837  27.577  0.00  0.00    +0.000 A 
ATOM     11  C   UNL A   1     -30.326 -10.874  27.027  0.00  0.00    -0.000 A 
ATOM     12  C   UNL A   1     -29.498 -11.624  27.823  0.00  0.00    -0.004 A 
ATOM     13  C   UNL A   1     -29.370 -11.348  29.167  0.00  0.00    -0.015 A 
ATOM     14  C   UNL A   1     -28.483 -12.030  30.029  0.00  0.00    +0.053 C 
ATOM     15  O   UNL A   1     -30.857  -9.110  31.606  0.00  0.00    -0.287 OA
ENDROOT
TORSDOF 0
ENDMDL
ENDMDL
