MODEL 3378
MODEL 1
REMARK VINA RESULT:    -5.843      0.000      0.000
REMARK INTER + INTRA:          -7.042
REMARK INTER:                  -6.868
REMARK INTRA:                  -0.174
REMARK UNBOUND:                -0.174
REMARK  Name = No_3378-gen_results/8p0m/2024-11-27-11-27-31/
REMARK  4 active torsions:
REMARK  status: ('A' for Active; 'I' for Inactive)
REMARK    1  A    between atoms: C_1  and  C_2
REMARK    2  A    between atoms: C_3  and  C_4
REMARK    3  A    between atoms: C_5  and  C_6
REMARK    4  A    between atoms: C_7  and  C_8
REMARK                            x       y       z     vdW  Elec       q    Type
REMARK                         _______ _______ _______ _____ _____    ______ ____
ROOT
ATOM      1  C   UNL A   1     -23.526  -1.950  29.347  0.00  0.00    +0.002 C 
ATOM      2  C   UNL A   1     -23.530  -0.735  28.625  0.00  0.00    +0.003 C 
ENDROOT
BRANCH   1   4
ATOM      3  C   UNL A   1     -24.277  -4.391  29.163  0.00  0.00    +0.184 C 
ATOM      4  C   UNL A   1     -24.548  -2.956  29.002  0.00  0.00    +0.031 C 
ATOM      5  F   UNL A   1     -23.595  -4.647  28.118  0.00  0.00    -0.203 F 
BRANCH   3   6
ATOM      6  C   UNL A   1     -25.130  -4.996  29.029  0.00  0.00    +0.368 C 
ATOM      7  F   UNL A   1     -25.002  -6.177  28.470  0.00  0.00    -0.191 F 
ATOM      8  F   UNL A   1     -26.387  -4.837  29.477  0.00  0.00    -0.191 F 
ENDBRANCH   3   6
ENDBRANCH   1   4
BRANCH   2   9
ATOM      9  C   UNL A   1     -24.650  -0.450  27.775  0.00  0.00    +0.033 C 
ATOM     10  C   UNL A   1     -24.503   0.277  26.667  0.00  0.00    +0.175 C 
ATOM     11  F   UNL A   1     -25.159   0.945  26.256  0.00  0.00    -0.201 F 
BRANCH  10  12
ATOM     12  C   UNL A   1     -25.800   0.340  25.976  0.00  0.00    +0.201 C 
ATOM     13  O   UNL A   1     -26.678   1.294  25.982  0.00  0.00    -0.289 OA
ATOM     14  C   UNL A   1     -25.922  -0.286  24.652  0.00  0.00    +0.080 C 
ENDBRANCH  10  12
ENDBRANCH   2   9
TORSDOF 4
ENDMDL
ENDMDL
