MODEL 3379
MODEL 1
REMARK VINA RESULT:    -5.168      0.000      0.000
REMARK INTER + INTRA:          -5.602
REMARK INTER:                  -5.470
REMARK INTRA:                  -0.132
REMARK UNBOUND:                -0.132
REMARK  Name = No_3379-gen_results/8p0m/2024-11-27-11-27-31/
REMARK  1 active torsions:
REMARK  status: ('A' for Active; 'I' for Inactive)
REMARK    1  A    between atoms: C_5  and  N_7
REMARK                            x       y       z     vdW  Elec       q    Type
REMARK                         _______ _______ _______ _____ _____    ______ ____
ROOT
ATOM      1  C   UNL A   1     -26.367  -3.433  29.891  0.00  0.00    +0.002 A 
ATOM      2  C   UNL A   1     -26.261  -4.619  29.677  0.00  0.00    +0.000 A 
ATOM      3  C   UNL A   1     -25.154  -5.192  29.083  0.00  0.00    +0.002 A 
ATOM      4  C   UNL A   1     -24.065  -4.342  28.740  0.00  0.00    +0.019 A 
ATOM      5  C   UNL A   1     -24.161  -3.057  29.152  0.00  0.00    +0.081 A 
ATOM      6  C   UNL A   1     -25.244  -2.603  29.753  0.00  0.00    +0.019 A 
ENDROOT
BRANCH   5   7
ATOM      7  N   UNL A   1     -23.076  -2.243  28.844  0.00  0.00    -0.248 NA
ATOM      8  C   UNL A   1     -22.945  -1.126  29.454  0.00  0.00    +0.073 C 
ATOM      9  C   UNL A   1     -22.066  -0.188  29.008  0.00  0.00    +0.053 C 
ENDBRANCH   5   7
TORSDOF 1
ENDMDL
ENDMDL
