REMARK  Name = outputs/IAG933/test6/raw/output_3379_IAG933_linker_design_.xyz
REMARK  12 active torsions:
REMARK  status: ('A' for Active; 'I' for Inactive)
REMARK    1  A    between atoms: C_1  and  C_2
REMARK    2  A    between atoms: C_1  and  C_8
REMARK    3  A    between atoms: C_1  and  C_49
REMARK    4  A    between atoms: C_13  and  C_42
REMARK    5  A    between atoms: C_14  and  C_15
REMARK    6  A    between atoms: C_21  and  O_22
REMARK    7  A    between atoms: O_22  and  C_23
REMARK    8  A    between atoms: C_23  and  C_24
REMARK    9  A    between atoms: C_31  and  C_50
REMARK   10  A    between atoms: N_37  and  C_47
REMARK   11  A    between atoms: C_39  and  C_50
REMARK   12  A    between atoms: C_41  and  C_45
REMARK                            x       y       z     vdW  Elec       q    Type
REMARK                         _______ _______ _______ _____ _____    ______ ____
ROOT
ATOM      1  C   UNL A   1     -26.031   0.564  28.756  0.00  0.00    +0.018 C 
ATOM      2  N   UNL A   1     -23.707   0.255  28.755  0.00  0.00    -0.221 NA
ATOM      3  C   UNL A   1     -23.950   1.228  27.913  0.00  0.00    +0.073 C 
ATOM      4  C   UNL A   1     -25.225   1.229  27.709  0.00  0.00    +0.025 C 
ATOM      5  C   UNL A   1     -25.097  -0.116  29.170  0.00  0.00    +0.078 C 
ENDROOT
BRANCH   4   6
ATOM      6  C   UNL A   1     -25.688   1.614  26.461  0.00  0.00    +0.071 C 
ATOM      7  C   UNL A   1     -26.250   2.920  26.395  0.00  0.00    +0.055 C 
ATOM      8  C   UNL A   1     -27.438   3.091  25.645  0.00  0.00    +0.102 C 
ATOM      9  N   UNL A   1     -28.075   2.089  25.003  0.00  0.00    -0.212 NA
ATOM     10  C   UNL A   1     -27.543   0.849  25.079  0.00  0.00    +0.234 C 
ATOM     11  C   UNL A   1     -26.354   0.576  25.777  0.00  0.00    +0.240 C 
ATOM     12  F   UNL A   1     -25.860  -0.681  25.795  0.00  0.00    -0.227 F 
BRANCH   7  13
ATOM     13  C   UNL A   1     -25.642   4.093  27.123  0.00  0.00    +0.262 C 
ATOM     14  N   UNL A   1     -25.614   5.252  26.449  0.00  0.00    -0.200 NA
ATOM     15  C   UNL A   1     -25.026   6.479  26.963  0.00  0.00    +0.139 C 
ATOM     16  O   UNL A   1     -25.143   3.966  28.243  0.00  0.00    -0.269 OA
ENDBRANCH   7  13
BRANCH  10  17
ATOM     17  O   UNL A   1     -28.193  -0.208  24.477  0.00  0.00    -0.459 OA
BRANCH  17  18
ATOM     18  C   UNL A   1     -29.460   0.005  23.866  0.00  0.00    +0.242 C 
BRANCH  18  19
ATOM     19  C   UNL A   1     -30.065  -1.377  23.573  0.00  0.00    +0.229 C 
ATOM     20  O   UNL A   1     -30.729  -1.878  24.721  0.00  0.00    -0.216 OA
ENDBRANCH  18  19
ENDBRANCH  17  18
ENDBRANCH  10  17
ENDBRANCH   4   6
BRANCH   3  23
ATOM     21  C   UNL A   1     -21.457   1.543  27.636  0.00  0.00    +0.001 C 
ATOM     22  C   UNL A   1     -22.923   2.183  25.740  0.00  0.00    +0.001 C 
ATOM     23  C   UNL A   1     -22.918   2.018  27.313  0.00  0.00    +0.016 C 
ENDBRANCH   3  23
BRANCH   5  24
ATOM     24  C   UNL A   1     -24.855  -1.012  30.143  0.00  0.00    +0.054 C 
BRANCH  24  25
ATOM     25  C   UNL A   1     -24.973  -2.505  29.788  0.00  0.00    -0.020 C 
ATOM     26  C   UNL A   1     -23.906  -3.173  29.146  0.00  0.00    -0.004 C 
ATOM     27  C   UNL A   1     -23.989  -4.549  28.853  0.00  0.00    -0.000 C 
ATOM     28  C   UNL A   1     -25.137  -5.280  29.205  0.00  0.00    -0.000 C 
ATOM     29  C   UNL A   1     -26.232  -4.611  29.784  0.00  0.00    -0.000 C 
ATOM     30  C   UNL A   1     -26.155  -3.232  30.065  0.00  0.00    -0.004 C 
ENDBRANCH  24  25
BRANCH  24  31
ATOM     31  C   UNL A   1     -25.387  -0.679  31.571  0.00  0.00    +0.078 C 
ATOM     32  C   UNL A   1     -25.189   0.773  32.028  0.00  0.00    +0.019 C 
ATOM     33  C   UNL A   1     -25.336   0.684  33.544  0.00  0.00    +0.020 C 
ATOM     34  C   UNL A   1     -24.829  -0.715  33.905  0.00  0.00    +0.089 C 
ATOM     35  N   UNL A   1     -24.758  -1.481  32.646  0.00  0.00    -0.219 NA
ENDBRANCH  24  31
ENDBRANCH   5  24
BRANCH   1  36
ATOM     36  C   UNL A   1     -27.439   0.537  29.630  0.00  0.00    +0.007 C 
BRANCH  36  40
ATOM     37  C   UNL A   1     -31.347   3.223  26.858  0.00  0.00    +0.002 C 
ATOM     38  C   UNL A   1     -30.248   2.292  27.392  0.00  0.00    +0.023 C 
ATOM     39  C   UNL A   1     -29.273   2.053  29.528  0.00  0.00    +0.154 C 
ATOM     40  C   UNL A   1     -28.602   0.907  29.302  0.00  0.00    +0.062 C 
ATOM     41  O   UNL A   1     -28.852   3.042  30.447  0.00  0.00    -0.223 OA
ATOM     42  C   UNL A   1     -29.512  -0.158  28.344  0.00  0.00    +0.172 C 
ATOM     43  C   UNL A   1     -29.480   2.933  28.299  0.00  0.00    +0.035 C 
ATOM     44  C   UNL A   1     -30.461   0.654  27.687  0.00  0.00    +0.106 C 
ATOM     45  O   UNL A   1     -29.915  -1.260  29.090  0.00  0.00    -0.221 OA
BRANCH  44  49
ATOM     46  C   UNL A   1     -32.986   1.366  25.582  0.00  0.00    +0.095 C 
ATOM     47  C   UNL A   1     -32.840   0.919  27.000  0.00  0.00    +0.226 C 
ATOM     48  C   UNL A   1     -31.711  -0.725  26.634  0.00  0.00    +0.115 C 
ATOM     49  N   UNL A   1     -31.717   0.300  27.533  0.00  0.00    -0.277 N 
ATOM     50  O   UNL A   1     -33.585   1.392  27.856  0.00  0.00    -0.275 OA
ENDBRANCH  44  49
ENDBRANCH  36  40
ENDBRANCH   1  36
TORSDOF 12
