MODEL 337
MODEL 1
REMARK VINA RESULT:    -5.325      0.000      0.000
REMARK INTER + INTRA:          -5.701
REMARK INTER:                  -5.636
REMARK INTRA:                  -0.064
REMARK UNBOUND:                -0.064
REMARK  Name = No_337-gen_results/8p0m/2024-11-27-11-27-31/
REMARK  1 active torsions:
REMARK  status: ('A' for Active; 'I' for Inactive)
REMARK    1  A    between atoms: C_2  and  C_7
REMARK                            x       y       z     vdW  Elec       q    Type
REMARK                         _______ _______ _______ _____ _____    ______ ____
ROOT
ATOM      1  C   UNL A   1     -24.015  -3.935  28.750  0.00  0.00    +0.005 A 
ATOM      2  C   UNL A   1     -24.363  -2.995  29.076  0.00  0.00    +0.055 A 
ATOM      3  C   UNL A   1     -24.923  -5.106  29.055  0.00  0.00    +0.000 A 
ATOM      4  C   UNL A   1     -26.199  -4.865  29.606  0.00  0.00    +0.000 A 
ATOM      5  C   UNL A   1     -25.635  -2.477  29.627  0.00  0.00    +0.005 A 
ATOM      6  C   UNL A   1     -26.498  -3.525  29.915  0.00  0.00    +0.000 A 
ENDROOT
BRANCH   2   7
ATOM      7  C   UNL A   1     -23.553  -1.622  28.772  0.00  0.00    +0.265 C 
ATOM      8  O   UNL A   1     -24.178  -0.801  28.301  0.00  0.00    -0.268 OA
ATOM      9  N   UNL A   1     -22.255  -1.449  29.211  0.00  0.00    -0.200 NA
ATOM     10  C   UNL A   1     -21.647  -0.168  29.037  0.00  0.00    +0.139 C 
ENDBRANCH   2   7
TORSDOF 1
ENDMDL
ENDMDL
