REMARK  Name = outputs/IAG933/test6/raw/output_3381_IAG933_linker_design_.xyz
REMARK  9 active torsions:
REMARK  status: ('A' for Active; 'I' for Inactive)
REMARK    1  A    between atoms: C_1  and  C_2
REMARK    2  A    between atoms: C_1  and  C_8
REMARK    3  A    between atoms: C_1  and  N_42
REMARK    4  A    between atoms: C_13  and  C_28
REMARK    5  A    between atoms: C_14  and  C_15
REMARK    6  A    between atoms: C_21  and  O_22
REMARK    7  A    between atoms: O_22  and  C_23
REMARK    8  A    between atoms: C_23  and  C_24
REMARK    9  A    between atoms: C_37  and  N_42
REMARK                            x       y       z     vdW  Elec       q    Type
REMARK                         _______ _______ _______ _____ _____    ______ ____
ROOT
ATOM      1  C   UNL A   1     -24.411   1.415  27.035  0.00  0.00    -0.000 C 
ATOM      2  C   UNL A   1     -23.232   1.804  26.492  0.00  0.00    -0.023 C 
ATOM      3  C   UNL A   1     -22.992   1.048  28.669  0.00  0.00    +0.089 C 
ATOM      4  C   UNL A   1     -22.297   1.683  27.485  0.00  0.00    +0.011 C 
ATOM      5  C   UNL A   1     -24.382   0.769  28.449  0.00  0.00    +0.139 C 
ATOM      6  C   UNL A   1     -22.970   2.341  25.073  0.00  0.00    +0.031 C 
ATOM      7  N   UNL A   1     -22.197   0.745  29.715  0.00  0.00    -0.131 NA
ENDROOT
BRANCH   5  15
ATOM      8  C   UNL A   1     -28.831   3.637  30.772  0.00  0.00    +0.023 C 
ATOM      9  N   UNL A   1     -27.309   1.918  30.227  0.00  0.00    -0.264 N 
ATOM     10  O   UNL A   1     -27.587  -0.037  29.048  0.00  0.00    -0.252 OA
ATOM     11  C   UNL A   1     -28.646   2.114  30.809  0.00  0.00    +0.095 C 
ATOM     12  C   UNL A   1     -26.490   3.091  30.660  0.00  0.00    +0.095 C 
ATOM     13  C   UNL A   1     -26.756   0.651  29.481  0.00  0.00    +0.308 C 
ATOM     14  C   UNL A   1     -27.428   4.257  30.955  0.00  0.00    +0.023 C 
ATOM     15  N   UNL A   1     -25.339   0.140  29.313  0.00  0.00    -0.253 N 
BRANCH  15  16
ATOM     16  C   UNL A   1     -24.855  -1.012  30.143  0.00  0.00    +0.116 C 
BRANCH  16  17
ATOM     17  C   UNL A   1     -24.973  -2.505  29.788  0.00  0.00    -0.003 C 
ATOM     18  C   UNL A   1     -23.906  -3.173  29.146  0.00  0.00    -0.003 C 
ATOM     19  C   UNL A   1     -23.989  -4.549  28.853  0.00  0.00    -0.000 C 
ATOM     20  C   UNL A   1     -25.137  -5.280  29.205  0.00  0.00    -0.000 C 
ATOM     21  C   UNL A   1     -26.232  -4.611  29.784  0.00  0.00    -0.000 C 
ATOM     22  C   UNL A   1     -26.155  -3.232  30.065  0.00  0.00    -0.003 C 
ENDBRANCH  16  17
BRANCH  16  23
ATOM     23  C   UNL A   1     -25.387  -0.679  31.571  0.00  0.00    +0.095 C 
ATOM     24  C   UNL A   1     -25.189   0.773  32.028  0.00  0.00    +0.021 C 
ATOM     25  C   UNL A   1     -25.336   0.684  33.544  0.00  0.00    +0.020 C 
ATOM     26  C   UNL A   1     -24.829  -0.715  33.905  0.00  0.00    +0.089 C 
ATOM     27  N   UNL A   1     -24.758  -1.481  32.646  0.00  0.00    -0.217 NA
ENDBRANCH  16  23
ENDBRANCH  15  16
ENDBRANCH   5  15
BRANCH   1  28
ATOM     28  C   UNL A   1     -25.688   1.614  26.461  0.00  0.00    +0.036 C 
ATOM     29  C   UNL A   1     -26.250   2.920  26.395  0.00  0.00    +0.076 C 
ATOM     30  C   UNL A   1     -27.438   3.091  25.645  0.00  0.00    +0.107 C 
ATOM     31  N   UNL A   1     -28.075   2.089  25.003  0.00  0.00    -0.208 NA
ATOM     32  C   UNL A   1     -27.543   0.849  25.079  0.00  0.00    +0.253 C 
ATOM     33  C   UNL A   1     -26.354   0.576  25.777  0.00  0.00    +0.193 C 
ATOM     34  F   UNL A   1     -25.860  -0.681  25.795  0.00  0.00    -0.199 F 
BRANCH  29  35
ATOM     35  C   UNL A   1     -25.642   4.093  27.123  0.00  0.00    +0.266 C 
ATOM     36  N   UNL A   1     -25.614   5.252  26.449  0.00  0.00    -0.200 NA
ATOM     37  C   UNL A   1     -25.026   6.479  26.963  0.00  0.00    +0.139 C 
ATOM     38  O   UNL A   1     -25.143   3.966  28.243  0.00  0.00    -0.268 OA
ENDBRANCH  29  35
BRANCH  32  39
ATOM     39  O   UNL A   1     -28.193  -0.208  24.477  0.00  0.00    -0.456 OA
BRANCH  39  40
ATOM     40  C   UNL A   1     -29.460   0.005  23.866  0.00  0.00    +0.243 C 
BRANCH  40  41
ATOM     41  C   UNL A   1     -30.065  -1.377  23.573  0.00  0.00    +0.229 C 
ATOM     42  O   UNL A   1     -30.729  -1.878  24.721  0.00  0.00    -0.216 OA
ENDBRANCH  40  41
ENDBRANCH  39  40
ENDBRANCH  32  39
ENDBRANCH   1  28
TORSDOF 9
