MODEL 3381
MODEL 1
REMARK VINA RESULT:    -6.556      0.000      0.000
REMARK INTER + INTRA:          -9.120
REMARK INTER:                  -8.472
REMARK INTRA:                  -0.648
REMARK UNBOUND:                -0.648
REMARK  Name = No_3381-gen_results/8p0m/2024-11-27-11-27-31/
REMARK  5 active torsions:
REMARK  status: ('A' for Active; 'I' for Inactive)
REMARK    1  A    between atoms: C_1  and  C_2
REMARK    2  A    between atoms: C_1  and  N_8
REMARK    3  A    between atoms: C_5  and  C_12
REMARK    4  A    between atoms: N_8  and  C_9
REMARK    5  A    between atoms: C_9  and  C_10
REMARK                            x       y       z     vdW  Elec       q    Type
REMARK                         _______ _______ _______ _____ _____    ______ ____
ROOT
ATOM      1  C   UNL A   1     -24.978   1.335  25.962  0.00  0.00    -0.005 A 
ATOM      2  C   UNL A   1     -26.065   2.139  25.845  0.00  0.00    -0.003 A 
ATOM      3  C   UNL A   1     -27.309   1.773  25.131  0.00  0.00    +0.001 A 
ATOM      4  C   UNL A   1     -27.342   0.483  24.505  0.00  0.00    +0.018 A 
ATOM      5  C   UNL A   1     -26.164  -0.294  24.588  0.00  0.00    +0.001 A 
ATOM      6  C   UNL A   1     -25.046   0.112  25.269  0.00  0.00    -0.003 A 
ENDROOT
BRANCH   4   7
ATOM      7  C   UNL A   1     -28.482   0.028  23.779  0.00  0.00    +0.085 A 
ATOM      8  N   UNL A   1     -28.947  -1.031  23.553  0.00  0.00    -0.224 NA
ATOM      9  C   UNL A   1     -29.384   1.216  23.433  0.00  0.00    +0.040 A 
ATOM     10  C   UNL A   1     -30.236  -1.455  23.774  0.00  0.00    +0.199 A 
ATOM     11  N   UNL A   1     -31.091  -0.499  23.701  0.00  0.00    -0.222 NA
ATOM     12  C   UNL A   1     -30.735   0.837  23.669  0.00  0.00    +0.102 A 
ENDBRANCH   4   7
BRANCH   1  13
ATOM     13  C   UNL A   1     -23.967   1.648  26.547  0.00  0.00    +0.118 C 
BRANCH  13  14
ATOM     14  N   UNL A   1     -23.719   1.180  27.833  0.00  0.00    -0.174 NA
BRANCH  14  15
ATOM     15  C   UNL A   1     -22.899   0.118  28.181  0.00  0.00    +0.312 C 
ATOM     16  F   UNL A   1     -21.646   0.372  28.049  0.00  0.00    -0.207 F 
BRANCH  15  17
ATOM     17  C   UNL A   1     -23.014  -0.446  29.293  0.00  0.00    +0.280 C 
ATOM     18  N   UNL A   1     -23.762  -1.503  29.318  0.00  0.00    -0.254 N 
ATOM     19  C   UNL A   1     -23.513  -2.549  29.027  0.00  0.00    +0.063 C 
ATOM     20  C   UNL A   1     -24.426  -3.679  29.185  0.00  0.00    -0.008 C 
ATOM     21  C   UNL A   1     -25.213  -1.447  29.163  0.00  0.00    +0.103 C 
ATOM     22  C   UNL A   1     -25.661  -2.919  29.218  0.00  0.00    +0.049 C 
ATOM     23  O   UNL A   1     -22.353  -0.197  30.375  0.00  0.00    -0.270 OA
ENDBRANCH  15  17
ENDBRANCH  14  15
ENDBRANCH  13  14
ENDBRANCH   1  13
TORSDOF 5
ENDMDL
ENDMDL
