REMARK  Name = outputs/IAG933/test6/raw/output_3382_IAG933_linker_design_.xyz
REMARK  10 active torsions:
REMARK  status: ('A' for Active; 'I' for Inactive)
REMARK    1  A    between atoms: C_1  and  C_2
REMARK    2  A    between atoms: C_13  and  N_32
REMARK    3  A    between atoms: C_14  and  C_15
REMARK    4  A    between atoms: C_21  and  O_22
REMARK    5  A    between atoms: O_22  and  C_23
REMARK    6  A    between atoms: C_23  and  C_24
REMARK    7  A    between atoms: N_28  and  C_42
REMARK    8  A    between atoms: N_32  and  N_33
REMARK    9  A    between atoms: N_32  and  C_37
REMARK   10  A    between atoms: C_37  and  C_43
REMARK                            x       y       z     vdW  Elec       q    Type
REMARK                         _______ _______ _______ _____ _____    ______ ____
ROOT
ATOM      1  C   UNL A   1     -24.855  -1.012  30.143  0.00  0.00    +0.010 C 
ATOM      2  C   UNL A   1     -25.387  -0.679  31.571  0.00  0.00    +0.100 C 
ATOM      3  C   UNL A   1     -25.189   0.773  32.028  0.00  0.00    +0.066 C 
ATOM      4  C   UNL A   1     -25.336   0.684  33.544  0.00  0.00    +0.024 C 
ATOM      5  C   UNL A   1     -24.829  -0.715  33.905  0.00  0.00    +0.089 C 
ATOM      6  N   UNL A   1     -24.758  -1.481  32.646  0.00  0.00    -0.215 NA
ATOM      7  C   UNL A   1     -25.580   1.733  29.786  0.00  0.00    +0.158 C 
ATOM      8  N   UNL A   1     -24.716   1.132  28.651  0.00  0.00    -0.232 N 
ATOM      9  O   UNL A   1     -23.746   2.403  31.072  0.00  0.00    -0.207 OA
ATOM     10  C   UNL A   1     -24.578  -0.327  28.815  0.00  0.00    +0.077 C 
ATOM     11  C   UNL A   1     -25.049   2.064  31.313  0.00  0.00    +0.196 C 
ENDROOT
BRANCH   1  12
ATOM     12  C   UNL A   1     -24.973  -2.505  29.788  0.00  0.00    -0.001 C 
ATOM     13  C   UNL A   1     -23.906  -3.173  29.146  0.00  0.00    -0.000 C 
ATOM     14  C   UNL A   1     -23.989  -4.549  28.853  0.00  0.00    -0.000 C 
ATOM     15  C   UNL A   1     -25.137  -5.280  29.205  0.00  0.00    -0.000 C 
ATOM     16  C   UNL A   1     -26.232  -4.611  29.784  0.00  0.00    -0.000 C 
ATOM     17  C   UNL A   1     -26.155  -3.232  30.065  0.00  0.00    -0.000 C 
ENDBRANCH   1  12
BRANCH  11  18
ATOM     18  N   UNL A   1     -25.634   3.199  31.957  0.00  0.00    -0.251 NA
ATOM     19  C   UNL A   1     -24.950   4.184  32.831  0.00  0.00    +0.074 C 
ATOM     20  C   UNL A   1     -25.958   5.264  33.234  0.00  0.00    +0.019 C 
ATOM     21  C   UNL A   1     -27.760   2.846  32.729  0.00  0.00    +0.017 C 
ATOM     22  C   UNL A   1     -27.153   5.146  32.303  0.00  0.00    +0.018 C 
ATOM     23  C   UNL A   1     -26.953   3.707  31.799  0.00  0.00    +0.060 C 
ENDBRANCH  11  18
BRANCH   8  24
ATOM     24  N   UNL A   1     -24.605   1.407  27.208  0.00  0.00    -0.224 N 
BRANCH  24  25
ATOM     25  C   UNL A   1     -25.688   1.614  26.461  0.00  0.00    +0.104 C 
ATOM     26  C   UNL A   1     -26.250   2.920  26.395  0.00  0.00    +0.091 C 
ATOM     27  C   UNL A   1     -27.438   3.091  25.645  0.00  0.00    +0.108 C 
ATOM     28  N   UNL A   1     -28.075   2.089  25.003  0.00  0.00    -0.208 NA
ATOM     29  C   UNL A   1     -27.543   0.849  25.079  0.00  0.00    +0.255 C 
ATOM     30  C   UNL A   1     -26.354   0.576  25.777  0.00  0.00    +0.208 C 
ATOM     31  F   UNL A   1     -25.860  -0.681  25.795  0.00  0.00    -0.198 F 
BRANCH  26  32
ATOM     32  C   UNL A   1     -25.642   4.093  27.123  0.00  0.00    +0.268 C 
ATOM     33  N   UNL A   1     -25.614   5.252  26.449  0.00  0.00    -0.200 NA
ATOM     34  C   UNL A   1     -25.026   6.479  26.963  0.00  0.00    +0.139 C 
ATOM     35  O   UNL A   1     -25.143   3.966  28.243  0.00  0.00    -0.268 OA
ENDBRANCH  26  32
BRANCH  29  36
ATOM     36  O   UNL A   1     -28.193  -0.208  24.477  0.00  0.00    -0.456 OA
BRANCH  36  37
ATOM     37  C   UNL A   1     -29.460   0.005  23.866  0.00  0.00    +0.243 C 
BRANCH  37  38
ATOM     38  C   UNL A   1     -30.065  -1.377  23.573  0.00  0.00    +0.229 C 
ATOM     39  O   UNL A   1     -30.729  -1.878  24.721  0.00  0.00    -0.216 OA
ENDBRANCH  37  38
ENDBRANCH  36  37
ENDBRANCH  29  36
ENDBRANCH  24  25
BRANCH  24  40
ATOM     40  C   UNL A   1     -23.289   1.766  26.619  0.00  0.00    +0.212 C 
BRANCH  40  43
ATOM     41  O   UNL A   1     -22.108   0.706  28.360  0.00  0.00    -0.257 OA
ATOM     42  F   UNL A   1     -21.045   1.958  27.142  0.00  0.00    -0.162 F 
ATOM     43  C   UNL A   1     -22.018   1.632  27.491  0.00  0.00    +0.332 C 
ENDBRANCH  40  43
ENDBRANCH  24  40
ENDBRANCH   8  24
TORSDOF 10
