MODEL 3386
MODEL 1
REMARK VINA RESULT:    -6.458      0.000      0.000
REMARK INTER + INTRA:          -7.685
REMARK INTER:                  -7.213
REMARK INTRA:                  -0.472
REMARK UNBOUND:                -0.472
REMARK  Name = No_3386-gen_results/8p0m/2024-11-27-11-27-31/
REMARK  2 active torsions:
REMARK  status: ('A' for Active; 'I' for Inactive)
REMARK    1  A    between atoms: C_1  and  C_2
REMARK    2  A    between atoms: C_8  and  C_9
REMARK                            x       y       z     vdW  Elec       q    Type
REMARK                         _______ _______ _______ _____ _____    ______ ____
ROOT
ATOM      1  C   UNL A   1     -24.278  -1.768  28.553  0.00  0.00    +0.000 C 
ATOM      2  C   UNL A   1     -24.879  -0.649  27.745  0.00  0.00    +0.000 C 
ENDROOT
BRANCH   1   3
ATOM      3  C   UNL A   1     -24.981  -2.635  29.019  0.00  0.00    +0.000 A 
ATOM      4  C   UNL A   1     -26.209  -2.330  29.596  0.00  0.00    +0.000 A 
ATOM      5  C   UNL A   1     -27.158  -3.301  30.211  0.00  0.00    +0.000 A 
ATOM      6  C   UNL A   1     -26.834  -4.680  30.046  0.00  0.00    +0.000 A 
ATOM      7  C   UNL A   1     -25.613  -4.969  29.405  0.00  0.00    +0.000 A 
ATOM      8  C   UNL A   1     -24.772  -4.045  28.917  0.00  0.00    +0.000 A 
ENDBRANCH   1   3
BRANCH   2   9
ATOM      9  C   UNL A   1     -24.059   0.414  27.278  0.00  0.00    +0.000 A 
ATOM     10  C   UNL A   1     -22.959   0.721  27.973  0.00  0.00    +0.000 A 
ATOM     11  C   UNL A   1     -22.110   1.655  27.373  0.00  0.00    +0.000 A 
ATOM     12  C   UNL A   1     -22.440   2.301  26.188  0.00  0.00    +0.000 A 
ATOM     13  C   UNL A   1     -23.548   1.942  25.542  0.00  0.00    +0.000 A 
ATOM     14  C   UNL A   1     -24.364   0.937  26.048  0.00  0.00    +0.000 A 
ENDBRANCH   2   9
TORSDOF 2
ENDMDL
ENDMDL
