MODEL 3387
MODEL 1
REMARK VINA RESULT:    -4.333      0.000      0.000
REMARK INTER + INTRA:          -4.333
REMARK INTER:                  -4.333
REMARK INTRA:                   0.000
REMARK UNBOUND:                 0.000
REMARK  Name = No_3387-gen_results/8p0m/2024-11-27-11-27-31/
REMARK  0 active torsions:
REMARK  status: ('A' for Active; 'I' for Inactive)
REMARK                            x       y       z     vdW  Elec       q    Type
REMARK                         _______ _______ _______ _____ _____    ______ ____
ROOT
ATOM      1  C   UNL A   1     -24.981  -5.328  29.040  0.00  0.00    +0.000 A 
ATOM      2  C   UNL A   1     -24.217  -4.677  28.721  0.00  0.00    +0.000 A 
ATOM      3  C   UNL A   1     -26.146  -4.633  29.603  0.00  0.00    +0.000 A 
ATOM      4  C   UNL A   1     -26.146  -3.323  29.851  0.00  0.00    +0.000 A 
ATOM      5  C   UNL A   1     -23.987  -3.264  28.897  0.00  0.00    +0.000 A 
ATOM      6  C   UNL A   1     -25.070  -2.639  29.443  0.00  0.00    +0.000 A 
ENDROOT
TORSDOF 0
ENDMDL
ENDMDL
