REMARK  Name = No_3388-gen_results/8p0m/2024-11-27-11-27-31/
REMARK  1 active torsions:
REMARK  status: ('A' for Active; 'I' for Inactive)
REMARK    1  A    between atoms: C_7  and  C_8
REMARK                            x       y       z     vdW  Elec       q    Type
REMARK                         _______ _______ _______ _____ _____    ______ ____
ROOT
ATOM      1  F   UNL A   1     -28.073  -1.254  28.532  0.00  0.00    -0.202 F 
ATOM      2  C   UNL A   1     -27.359  -0.379  28.722  0.00  0.00    +0.168 A 
ATOM      3  C   UNL A   1     -26.332  -0.644  29.452  0.00  0.00    +0.179 A 
ATOM      4  C   UNL A   1     -25.256   0.320  29.782  0.00  0.00    +0.098 A 
ATOM      5  C   UNL A   1     -25.424   1.627  29.203  0.00  0.00    +0.070 A 
ATOM      6  C   UNL A   1     -26.526   1.825  28.403  0.00  0.00    +0.015 A 
ATOM      7  C   UNL A   1     -27.451   0.860  28.136  0.00  0.00    +0.031 A 
ATOM      8 CL   UNL A   1     -24.252   2.802  29.560  0.00  0.00    -0.081 Cl
ATOM      9  F   UNL A   1     -26.084  -1.828  30.022  0.00  0.00    -0.201 F 
ATOM     10 CL   UNL A   1     -23.940  -0.015  30.847  0.00  0.00    -0.079 Cl
ENDROOT
BRANCH   7  11
ATOM     11  C   UNL A   1     -28.540   1.202  27.245  0.00  0.00    +0.003 A 
ATOM     12  C   UNL A   1     -28.442   2.010  26.254  0.00  0.00    +0.000 A 
ATOM     13  C   UNL A   1     -29.491   2.223  25.346  0.00  0.00    +0.001 A 
ATOM     14  C   UNL A   1     -30.623   1.422  25.399  0.00  0.00    +0.011 A 
ATOM     15  C   UNL A   1     -30.679   0.478  26.402  0.00  0.00    +0.058 A 
ATOM     16  C   UNL A   1     -29.679   0.326  27.283  0.00  0.00    +0.011 A 
ATOM     17 CL   UNL A   1     -32.093  -0.486  26.503  0.00  0.00    -0.082 Cl
ENDBRANCH   7  11
TORSDOF 1
