MODEL 3388
MODEL 1
REMARK VINA RESULT:    -7.138      0.000      0.000
REMARK INTER + INTRA:          -7.877
REMARK INTER:                  -7.555
REMARK INTRA:                  -0.322
REMARK UNBOUND:                -0.322
REMARK  Name = No_3388-gen_results/8p0m/2024-11-27-11-27-31/
REMARK  1 active torsions:
REMARK  status: ('A' for Active; 'I' for Inactive)
REMARK    1  A    between atoms: C_7  and  C_8
REMARK                            x       y       z     vdW  Elec       q    Type
REMARK                         _______ _______ _______ _____ _____    ______ ____
ROOT
ATOM      1  F   UNL A   1     -25.752  -0.158  30.267  0.00  0.00    -0.202 F 
ATOM      2  C   UNL A   1     -25.500  -1.235  29.970  0.00  0.00    +0.168 A 
ATOM      3  C   UNL A   1     -26.418  -2.108  30.201  0.00  0.00    +0.179 A 
ATOM      4  C   UNL A   1     -26.328  -3.545  29.851  0.00  0.00    +0.098 A 
ATOM      5  C   UNL A   1     -25.105  -3.926  29.196  0.00  0.00    +0.070 A 
ATOM      6  C   UNL A   1     -24.186  -2.932  28.948  0.00  0.00    +0.015 A 
ATOM      7  C   UNL A   1     -24.375  -1.625  29.286  0.00  0.00    +0.031 A 
ATOM      8 CL   UNL A   1     -24.906  -5.563  28.792  0.00  0.00    -0.081 Cl
ATOM      9  F   UNL A   1     -27.589  -1.848  30.792  0.00  0.00    -0.201 F 
ATOM     10 CL   UNL A   1     -27.519  -4.725  30.261  0.00  0.00    -0.079 Cl
ENDROOT
BRANCH   7  11
ATOM     11  C   UNL A   1     -23.336  -0.682  28.928  0.00  0.00    +0.003 A 
ATOM     12  C   UNL A   1     -22.092  -0.833  29.201  0.00  0.00    +0.000 A 
ATOM     13  C   UNL A   1     -21.104   0.048  28.733  0.00  0.00    +0.001 A 
ATOM     14  C   UNL A   1     -21.434   1.025  27.805  0.00  0.00    +0.011 A 
ATOM     15  C   UNL A   1     -22.757   1.115  27.430  0.00  0.00    +0.058 A 
ATOM     16  C   UNL A   1     -23.688   0.287  27.927  0.00  0.00    +0.011 A 
ATOM     17 CL   UNL A   1     -23.183   2.349  26.318  0.00  0.00    -0.082 Cl
ENDBRANCH   7  11
TORSDOF 1
ENDMDL
ENDMDL
