MODEL 3389
MODEL 1
REMARK VINA RESULT:    -4.520      0.000      0.000
REMARK INTER + INTRA:          -4.520
REMARK INTER:                  -4.520
REMARK INTRA:                   0.000
REMARK UNBOUND:                 0.000
REMARK  Name = No_3389-gen_results/8p0m/2024-11-27-11-27-31/
REMARK  0 active torsions:
REMARK  status: ('A' for Active; 'I' for Inactive)
REMARK                            x       y       z     vdW  Elec       q    Type
REMARK                         _______ _______ _______ _____ _____    ______ ____
ROOT
ATOM      1  C   UNL A   1      -9.537  -9.271  19.935  0.00  0.00    +0.011 A 
ATOM      2  C   UNL A   1     -10.239  -9.369  19.155  0.00  0.00    +0.001 A 
ATOM      3  C   UNL A   1      -8.252  -9.922  19.651  0.00  0.00    +0.058 A 
ATOM      4  C   UNL A   1      -8.068 -10.711  18.592  0.00  0.00    +0.011 A 
ATOM      5  C   UNL A   1     -10.275 -10.168  17.954  0.00  0.00    +0.000 A 
ATOM      6  C   UNL A   1      -9.081 -10.784  17.721  0.00  0.00    +0.001 A 
ATOM      7 CL   UNL A   1      -6.994  -9.692  20.851  0.00  0.00    -0.082 Cl
ENDROOT
TORSDOF 0
ENDMDL
ENDMDL
