MODEL 338
MODEL 1
REMARK VINA RESULT:    -7.569      0.000      0.000
REMARK INTER + INTRA:         -12.706
REMARK INTER:                 -11.108
REMARK INTRA:                  -1.598
REMARK UNBOUND:                -1.598
REMARK  Name = No_338-gen_results/8p0m/2024-11-27-11-27-31/
REMARK  8 active torsions:
REMARK  status: ('A' for Active; 'I' for Inactive)
REMARK    1  A    between atoms: C_1  and  C_7
REMARK    2  A    between atoms: C_7  and  N_8
REMARK    3  A    between atoms: C_12  and  C_14
REMARK    4  A    between atoms: C_17  and  C_25
REMARK    5  A    between atoms: C_23  and  C_29
REMARK    6  A    between atoms: N_27  and  C_28
REMARK    7  A    between atoms: C_29  and  C_30
REMARK    8  A    between atoms: C_33  and  C_34
REMARK                            x       y       z     vdW  Elec       q    Type
REMARK                         _______ _______ _______ _____ _____    ______ ____
ROOT
ATOM      1  C   UNL A   1     -10.821   0.564  38.523  0.00  0.00    -0.002 A 
ATOM      2  C   UNL A   1     -11.377   0.610  37.450  0.00  0.00    -0.003 A 
ATOM      3  C   UNL A   1     -10.707   0.636  36.242  0.00  0.00    -0.004 A 
ATOM      4  C   UNL A   1      -9.286   0.566  36.266  0.00  0.00    -0.000 A 
ATOM      5  C   UNL A   1      -8.721   0.344  37.476  0.00  0.00    -0.000 A 
ATOM      6  C   UNL A   1      -9.445   0.293  38.577  0.00  0.00    -0.003 A 
ATOM      7  C   UNL A   1      -8.566   0.582  34.977  0.00  0.00    -0.000 A 
ATOM      8  C   UNL A   1      -9.011   1.265  34.013  0.00  0.00    -0.000 A 
ATOM      9  C   UNL A   1     -11.287   1.027  34.974  0.00  0.00    -0.013 A 
ATOM     10  C   UNL A   1     -10.531   1.370  33.849  0.00  0.00    -0.004 A 
ENDROOT
BRANCH   7  11
ATOM     11  C   UNL A   1      -7.307  -0.114  34.909  0.00  0.00    +0.000 A 
ATOM     12  C   UNL A   1      -7.254  -1.404  34.620  0.00  0.00    +0.000 A 
ATOM     13  C   UNL A   1      -6.007  -2.105  34.516  0.00  0.00    +0.005 A 
ATOM     14  C   UNL A   1      -4.849  -1.392  34.772  0.00  0.00    +0.055 A 
ATOM     15  C   UNL A   1      -4.885  -0.043  35.094  0.00  0.00    +0.005 A 
ATOM     16  C   UNL A   1      -6.093   0.618  35.166  0.00  0.00    +0.000 A 
BRANCH  14  17
ATOM     17  C   UNL A   1      -3.531  -2.067  34.686  0.00  0.00    +0.269 C 
ATOM     18  O   UNL A   1      -2.831  -2.289  35.621  0.00  0.00    -0.268 OA
ATOM     19  N   UNL A   1      -2.969  -2.089  33.465  0.00  0.00    -0.174 NA
BRANCH  19  20
ATOM     20  C   UNL A   1      -1.640  -2.664  33.257  0.00  0.00    +0.089 C 
ATOM     21  C   UNL A   1      -0.935  -2.025  32.501  0.00  0.00    +0.018 C 
BRANCH  21  22
ATOM     22  C   UNL A   1      -1.383  -0.972  31.649  0.00  0.00    +0.001 C 
ATOM     23  C   UNL A   1      -1.022  -1.041  30.306  0.00  0.00    +0.000 C 
ENDBRANCH  21  22
ENDBRANCH  19  20
ENDBRANCH  14  17
ENDBRANCH   7  11
BRANCH   1  24
ATOM     24  C   UNL A   1     -11.633   0.528  39.793  0.00  0.00    +0.122 C 
BRANCH  24  25
ATOM     25  N   UNL A   1     -11.333  -0.360  40.665  0.00  0.00    -0.259 N 
ATOM     26  C   UNL A   1     -11.646  -1.703  40.411  0.00  0.00    +0.324 C 
ATOM     27  O   UNL A   1     -12.574  -2.058  39.744  0.00  0.00    -0.251 OA
ATOM     28  N   UNL A   1     -10.892  -2.613  41.151  0.00  0.00    -0.188 NA
ATOM     29  C   UNL A   1     -10.393  -0.094  41.742  0.00  0.00    +0.097 C 
ATOM     30  C   UNL A   1      -9.772  -2.428  41.952  0.00  0.00    +0.118 C 
ATOM     31  C   UNL A   1      -9.562  -1.053  42.245  0.00  0.00    +0.045 C 
ENDBRANCH  24  25
ENDBRANCH   1  24
BRANCH   9  32
ATOM     32  C   UNL A   1     -12.760   1.396  34.891  0.00  0.00    +0.115 C 
BRANCH  32  33
ATOM     33  C   UNL A   1     -13.045   2.760  34.550  0.00  0.00    +0.265 C 
ATOM     34  N   UNL A   1     -13.767   2.922  33.444  0.00  0.00    -0.087 NA
ATOM     35  O   UNL A   1     -12.715   3.675  35.350  0.00  0.00    -0.271 OA
ENDBRANCH  32  33
ENDBRANCH   9  32
TORSDOF 8
ENDMDL
ENDMDL
