MODEL 3390
MODEL 1
REMARK VINA RESULT:    -6.279      0.000      0.000
REMARK INTER + INTRA:          -9.582
REMARK INTER:                  -8.481
REMARK INTRA:                  -1.101
REMARK UNBOUND:                -1.101
REMARK  Name = No_3390-gen_results/8p0m/2024-11-27-11-27-31/
REMARK  6 active torsions:
REMARK  status: ('A' for Active; 'I' for Inactive)
REMARK    1  A    between atoms: C_4  and  C_7
REMARK    2  A    between atoms: C_7  and  C_8
REMARK    3  A    between atoms: C_8  and  C_11
REMARK    4  A    between atoms: C_9  and  C_10
REMARK    5  A    between atoms: C_11  and  C_12
REMARK    6  A    between atoms: C_14  and  C_15
REMARK                            x       y       z     vdW  Elec       q    Type
REMARK                         _______ _______ _______ _____ _____    ______ ____
ROOT
ATOM      1  C   UNL A   1     -23.398  -0.107  30.115  0.00  0.00    -0.040 C 
ATOM      2  C   UNL A   1     -24.182   0.888  30.715  0.00  0.00    -0.034 C 
ENDROOT
BRANCH   2   3
ATOM      3  C   UNL A   1     -25.207   0.589  31.566  0.00  0.00    +0.025 C 
ATOM      4  C   UNL A   1     -25.345   1.472  32.636  0.00  0.00    +0.005 C 
ENDBRANCH   2   3
BRANCH   1   5
ATOM      5  C   UNL A   1     -22.458   0.187  29.103  0.00  0.00    +0.051 C 
BRANCH   5   9
ATOM      6  C   UNL A   1     -22.873   2.228  25.863  0.00  0.00    +0.029 A 
ATOM      7  C   UNL A   1     -23.807   1.842  25.565  0.00  0.00    +0.002 A 
ATOM      8  C   UNL A   1     -22.335   1.736  27.142  0.00  0.00    +0.136 A 
ATOM      9  C   UNL A   1     -22.993   0.689  27.850  0.00  0.00    +0.009 A 
ATOM     10  C   UNL A   1     -24.172   0.244  27.307  0.00  0.00    -0.002 A 
ATOM     11  C   UNL A   1     -24.633   0.749  26.143  0.00  0.00    -0.000 A 
ATOM     12  F   UNL A   1     -21.181   2.193  27.671  0.00  0.00    -0.204 F 
ENDBRANCH   5   9
ENDBRANCH   1   5
BRANCH   1  13
ATOM     13  C   UNL A   1     -23.558  -1.424  30.650  0.00  0.00    +0.048 C 
BRANCH  13  14
ATOM     14  C   UNL A   1     -24.316  -2.417  29.902  0.00  0.00    -0.022 C 
ATOM     15  C   UNL A   1     -23.770  -3.002  29.106  0.00  0.00    -0.004 C 
BRANCH  15  16
ATOM     16  C   UNL A   1     -24.279  -4.364  28.628  0.00  0.00    -0.000 C 
ATOM     17  C   UNL A   1     -25.207  -5.060  29.218  0.00  0.00    -0.000 C 
ENDBRANCH  15  16
ENDBRANCH  13  14
ENDBRANCH   1  13
TORSDOF 6
ENDMDL
ENDMDL
