MODEL 3391
MODEL 1
REMARK VINA RESULT:    -5.439      0.000      0.000
REMARK INTER + INTRA:          -6.214
REMARK INTER:                  -6.075
REMARK INTRA:                  -0.139
REMARK UNBOUND:                -0.139
REMARK  Name = No_3391-gen_results/8p0m/2024-11-27-11-27-31/
REMARK  2 active torsions:
REMARK  status: ('A' for Active; 'I' for Inactive)
REMARK    1  A    between atoms: C_2  and  C_11
REMARK    2  A    between atoms: C_11  and  N_12
REMARK                            x       y       z     vdW  Elec       q    Type
REMARK                         _______ _______ _______ _____ _____    ______ ____
ROOT
ATOM      1  C   UNL A   1     -25.016  -2.410  29.052  0.00  0.00    +0.016 A 
ATOM      2  C   UNL A   1     -24.768  -1.453  29.417  0.00  0.00    +0.084 A 
ATOM      3  C   UNL A   1     -23.848  -3.265  28.812  0.00  0.00    +0.001 A 
ATOM      4  C   UNL A   1     -24.010  -4.697  28.493  0.00  0.00    +0.000 A 
ATOM      5  C   UNL A   1     -25.127  -5.369  29.039  0.00  0.00    +0.000 A 
ATOM      6  C   UNL A   1     -26.146  -4.621  29.682  0.00  0.00    +0.000 A 
ATOM      7  C   UNL A   1     -26.048  -3.279  29.775  0.00  0.00    +0.003 A 
ATOM      8  N   UNL A   1     -25.879  -0.514  29.637  0.00  0.00    -0.246 NA
ATOM      9  C   UNL A   1     -27.038  -1.063  30.134  0.00  0.00    +0.099 A 
ATOM     10  C   UNL A   1     -27.233  -2.497  30.215  0.00  0.00    +0.021 A 
ENDROOT
BRANCH   2  11
ATOM     11  C   UNL A   1     -23.671  -0.530  28.870  0.00  0.00    +0.171 C 
BRANCH  11  12
ATOM     12  N   UNL A   1     -23.781   0.189  28.031  0.00  0.00    -0.261 NA
ATOM     13  C   UNL A   1     -23.525   0.817  27.288  0.00  0.00    +0.114 C 
ENDBRANCH  11  12
ENDBRANCH   2  11
TORSDOF 2
ENDMDL
ENDMDL
