REMARK  Name = outputs/IAG933/test6/raw/output_3392_IAG933_linker_design_.xyz
REMARK  14 active torsions:
REMARK  status: ('A' for Active; 'I' for Inactive)
REMARK    1  A    between atoms: C_1  and  C_2
REMARK    2  A    between atoms: C_1  and  C_8
REMARK    3  A    between atoms: C_9  and  C_35
REMARK    4  A    between atoms: C_13  and  C_36
REMARK    5  A    between atoms: C_14  and  C_15
REMARK    6  A    between atoms: C_21  and  O_22
REMARK    7  A    between atoms: O_22  and  C_23
REMARK    8  A    between atoms: C_23  and  C_24
REMARK    9  A    between atoms: C_30  and  C_33
REMARK   10  A    between atoms: C_30  and  C_35
REMARK   11  A    between atoms: C_33  and  C_42
REMARK   12  A    between atoms: C_35  and  N_45
REMARK   13  A    between atoms: C_38  and  C_44
REMARK   14  A    between atoms: N_45  and  C_46
REMARK                            x       y       z     vdW  Elec       q    Type
REMARK                         _______ _______ _______ _____ _____    ______ ____
ROOT
ATOM      1  C   UNL A   1     -22.106   1.720  27.671  0.00  0.00    +0.141 C 
ATOM      2  F   UNL A   1     -20.978   2.328  27.357  0.00  0.00    -0.204 F 
ATOM      3  C   UNL A   1     -22.134   1.294  28.959  0.00  0.00    +0.031 C 
ATOM      4  C   UNL A   1     -24.544   1.559  27.396  0.00  0.00    +0.021 C 
ATOM      5  C   UNL A   1     -23.358   1.293  29.581  0.00  0.00    +0.018 C 
ATOM      6  C   UNL A   1     -23.221   1.657  26.814  0.00  0.00    +0.072 C 
ATOM      7  C   UNL A   1     -24.597   1.559  28.859  0.00  0.00    +0.065 C 
ENDROOT
BRANCH   4   8
ATOM      8  C   UNL A   1     -25.688   1.614  26.461  0.00  0.00    +0.039 C 
ATOM      9  C   UNL A   1     -26.250   2.920  26.395  0.00  0.00    +0.077 C 
ATOM     10  C   UNL A   1     -27.438   3.091  25.645  0.00  0.00    +0.107 C 
ATOM     11  N   UNL A   1     -28.075   2.089  25.003  0.00  0.00    -0.208 NA
ATOM     12  C   UNL A   1     -27.543   0.849  25.079  0.00  0.00    +0.253 C 
ATOM     13  C   UNL A   1     -26.354   0.576  25.777  0.00  0.00    +0.193 C 
ATOM     14  F   UNL A   1     -25.860  -0.681  25.795  0.00  0.00    -0.199 F 
BRANCH   9  15
ATOM     15  C   UNL A   1     -25.642   4.093  27.123  0.00  0.00    +0.266 C 
ATOM     16  N   UNL A   1     -25.614   5.252  26.449  0.00  0.00    -0.200 NA
ATOM     17  C   UNL A   1     -25.026   6.479  26.963  0.00  0.00    +0.139 C 
ATOM     18  O   UNL A   1     -25.143   3.966  28.243  0.00  0.00    -0.268 OA
ENDBRANCH   9  15
BRANCH  12  19
ATOM     19  O   UNL A   1     -28.193  -0.208  24.477  0.00  0.00    -0.456 OA
BRANCH  19  20
ATOM     20  C   UNL A   1     -29.460   0.005  23.866  0.00  0.00    +0.243 C 
BRANCH  20  21
ATOM     21  C   UNL A   1     -30.065  -1.377  23.573  0.00  0.00    +0.229 C 
ATOM     22  O   UNL A   1     -30.729  -1.878  24.721  0.00  0.00    -0.216 OA
ENDBRANCH  20  21
ENDBRANCH  19  20
ENDBRANCH  12  19
ENDBRANCH   4   8
BRANCH   6  23
ATOM     23  C   UNL A   1     -23.024   1.742  25.399  0.00  0.00    +0.343 C 
ATOM     24  F   UNL A   1     -21.977   2.211  25.099  0.00  0.00    -0.193 F 
ATOM     25  F   UNL A   1     -23.706   0.935  24.671  0.00  0.00    -0.193 F 
ENDBRANCH   6  23
BRANCH   7  26
ATOM     26  N   UNL A   1     -25.568   1.829  29.784  0.00  0.00    -0.239 NA
BRANCH  26  27
ATOM     27  C   UNL A   1     -25.643   2.006  31.282  0.00  0.00    +0.094 C 
BRANCH  27  29
ATOM     28  C   UNL A   1     -25.387  -0.679  31.571  0.00  0.00    +0.079 C 
ATOM     29  C   UNL A   1     -25.189   0.773  32.028  0.00  0.00    +0.038 C 
ATOM     30  C   UNL A   1     -25.336   0.684  33.544  0.00  0.00    +0.022 C 
ATOM     31  C   UNL A   1     -24.829  -0.715  33.905  0.00  0.00    +0.089 C 
ATOM     32  N   UNL A   1     -24.758  -1.481  32.646  0.00  0.00    -0.219 NA
BRANCH  28  33
ATOM     33  C   UNL A   1     -24.855  -1.012  30.143  0.00  0.00    +0.044 C 
BRANCH  33  34
ATOM     34  C   UNL A   1     -24.973  -2.505  29.788  0.00  0.00    -0.021 C 
ATOM     35  C   UNL A   1     -23.906  -3.173  29.146  0.00  0.00    -0.004 C 
ATOM     36  C   UNL A   1     -23.989  -4.549  28.853  0.00  0.00    -0.000 C 
ATOM     37  C   UNL A   1     -25.137  -5.280  29.205  0.00  0.00    -0.000 C 
ATOM     38  C   UNL A   1     -26.232  -4.611  29.784  0.00  0.00    -0.000 C 
ATOM     39  C   UNL A   1     -26.155  -3.232  30.065  0.00  0.00    -0.004 C 
ENDBRANCH  33  34
ENDBRANCH  28  33
ENDBRANCH  27  29
BRANCH  27  40
ATOM     40  C   UNL A   1     -27.102   2.367  31.601  0.00  0.00    +0.026 C 
BRANCH  40  41
ATOM     41  C   UNL A   1     -27.593   2.921  30.249  0.00  0.00    +0.028 C 
BRANCH  41  46
ATOM     42  C   UNL A   1     -27.537   0.408  29.009  0.00  0.00    -0.005 C 
ATOM     43  C   UNL A   1     -29.588  -0.353  27.977  0.00  0.00    -0.000 C 
ATOM     44  C   UNL A   1     -29.457   2.044  28.845  0.00  0.00    -0.026 C 
ATOM     45  C   UNL A   1     -30.174   0.989  28.103  0.00  0.00    -0.005 C 
ATOM     46  C   UNL A   1     -28.182   1.748  29.404  0.00  0.00    -0.026 C 
ATOM     47  C   UNL A   1     -28.302  -0.693  28.486  0.00  0.00    -0.000 C 
ATOM     48  C   UNL A   1     -30.114   3.423  28.994  0.00  0.00    +0.031 C 
ENDBRANCH  41  46
ENDBRANCH  40  41
ENDBRANCH  27  40
ENDBRANCH  26  27
ENDBRANCH   7  26
TORSDOF 14
