MODEL 3393
MODEL 1
REMARK VINA RESULT:    -6.508      0.000      0.000
REMARK INTER + INTRA:         -13.170
REMARK INTER:                 -10.313
REMARK INTRA:                  -2.858
REMARK UNBOUND:                -2.858
REMARK  Name = No_3393-gen_results/8p0m/2024-11-27-11-27-31/
REMARK  10 active torsions:
REMARK  status: ('A' for Active; 'I' for Inactive)
REMARK    1  A    between atoms: C_1  and  C_2
REMARK    2  A    between atoms: C_1  and  C_8
REMARK    3  A    between atoms: C_5  and  C_10
REMARK    4  A    between atoms: N_11  and  C_20
REMARK    5  A    between atoms: C_20  and  C_21
REMARK    6  A    between atoms: C_22  and  C_23
REMARK    7  A    between atoms: C_24  and  C_25
REMARK    8  A    between atoms: C_25  and  C_26
REMARK    9  A    between atoms: C_26  and  C_27
REMARK   10  A    between atoms: C_27  and  C_28
REMARK                            x       y       z     vdW  Elec       q    Type
REMARK                         _______ _______ _______ _____ _____    ______ ____
ROOT
ATOM      1  C   UNL A   1     -26.901   0.736  24.666  0.00  0.00    -0.013 A 
ATOM      2  C   UNL A   1     -25.645   0.230  24.759  0.00  0.00    -0.004 A 
ATOM      3  C   UNL A   1     -24.571   0.793  25.609  0.00  0.00    +0.004 A 
ATOM      4  C   UNL A   1     -24.891   1.970  26.363  0.00  0.00    +0.055 A 
ATOM      5  C   UNL A   1     -26.185   2.508  26.183  0.00  0.00    +0.004 A 
ATOM      6  C   UNL A   1     -27.131   1.929  25.376  0.00  0.00    -0.004 A 
ENDROOT
BRANCH   4   7
ATOM      7  C   UNL A   1     -23.944   2.615  27.208  0.00  0.00    +0.265 C 
ATOM      8  N   UNL A   1     -22.800   2.182  27.552  0.00  0.00    -0.197 NA
ATOM      9  O   UNL A   1     -24.237   3.845  27.520  0.00  0.00    -0.268 OA
BRANCH   8  10
ATOM     10  C   UNL A   1     -22.566   1.334  28.724  0.00  0.00    +0.141 C 
BRANCH  10  11
ATOM     11  C   UNL A   1     -21.811   0.121  28.516  0.00  0.00    -0.003 C 
ATOM     12  C   UNL A   1     -22.436  -0.982  29.205  0.00  0.00    -0.003 C 
BRANCH  12  13
ATOM     13  C   UNL A   1     -23.256  -1.838  29.066  0.00  0.00    -0.005 C 
ATOM     14  C   UNL A   1     -24.211  -2.368  29.981  0.00  0.00    -0.026 C 
BRANCH  14  15
ATOM     15  C   UNL A   1     -24.584  -1.554  31.044  0.00  0.00    +0.026 C 
BRANCH  15  16
ATOM     16  C   UNL A   1     -25.914  -0.974  30.907  0.00  0.00    +0.013 C 
BRANCH  16  17
ATOM     17  C   UNL A   1     -26.661  -1.435  29.732  0.00  0.00    +0.104 C 
BRANCH  17  18
ATOM     18  C   UNL A   1     -26.668  -0.411  28.667  0.00  0.00    +0.398 C 
ATOM     19  F   UNL A   1     -26.136  -0.823  27.757  0.00  0.00    -0.170 F 
ATOM     20  F   UNL A   1     -27.882   0.044  28.332  0.00  0.00    -0.170 F 
ATOM     21  F   UNL A   1     -26.038   0.704  29.220  0.00  0.00    -0.170 F 
ENDBRANCH  17  18
ENDBRANCH  16  17
ENDBRANCH  15  16
ENDBRANCH  14  15
ENDBRANCH  12  13
ENDBRANCH  10  11
ENDBRANCH   8  10
ENDBRANCH   4   7
BRANCH   1  22
ATOM     22  C   UNL A   1     -27.768   0.267  23.967  0.00  0.00    +0.112 C 
BRANCH  22  23
ATOM     23  C   UNL A   1     -29.226   0.274  24.484  0.00  0.00    +0.230 C 
ATOM     24  N   UNL A   1     -30.241   0.817  23.749  0.00  0.00    -0.279 N 
ATOM     25  C   UNL A   1     -31.293   0.126  23.417  0.00  0.00    +0.095 C 
ATOM     26  C   UNL A   1     -30.205   2.165  23.399  0.00  0.00    +0.095 C 
ATOM     27  C   UNL A   1     -30.996   2.559  22.390  0.00  0.00    +0.038 C 
ATOM     28  C   UNL A   1     -32.149   0.427  22.328  0.00  0.00    +0.038 C 
ATOM     29  C   UNL A   1     -32.089   1.756  21.940  0.00  0.00    +0.083 C 
ATOM     30  O   UNL A   1     -29.449  -0.255  25.632  0.00  0.00    -0.275 OA
ATOM     31 CL   UNL A   1     -33.180   2.312  20.741  0.00  0.00    -0.115 Cl
ENDBRANCH  22  23
ENDBRANCH   1  22
TORSDOF 10
ENDMDL
ENDMDL
