REMARK  Name = outputs/IAG933/test6/raw/output_3393_IAG933_linker_design_.xyz
REMARK  16 active torsions:
REMARK  status: ('A' for Active; 'I' for Inactive)
REMARK    1  A    between atoms: C_1  and  C_2
REMARK    2  A    between atoms: C_1  and  C_8
REMARK    3  A    between atoms: C_1  and  N_44
REMARK    4  A    between atoms: C_14  and  C_15
REMARK    5  A    between atoms: C_21  and  O_22
REMARK    6  A    between atoms: O_22  and  C_23
REMARK    7  A    between atoms: C_23  and  C_24
REMARK    8  A    between atoms: C_28  and  O_37
REMARK    9  A    between atoms: C_29  and  C_47
REMARK   10  A    between atoms: C_33  and  O_43
REMARK   11  A    between atoms: C_33  and  C_53
REMARK   12  A    between atoms: C_36  and  C_42
REMARK   13  A    between atoms: C_42  and  C_45
REMARK   14  A    between atoms: C_42  and  O_56
REMARK   15  A    between atoms: N_44  and  C_45
REMARK   16  A    between atoms: N_44  and  C_47
REMARK                            x       y       z     vdW  Elec       q    Type
REMARK                         _______ _______ _______ _____ _____    ______ ____
ROOT
ATOM      1  N   UNL A   1     -24.806   0.190  29.228  0.00  0.00    -0.267 NA
ENDROOT
BRANCH   1   2
ATOM      2  C   UNL A   1     -24.855  -1.012  30.143  0.00  0.00    +0.096 C 
BRANCH   2   3
ATOM      3  C   UNL A   1     -24.973  -2.505  29.788  0.00  0.00    -0.006 C 
ATOM      4  C   UNL A   1     -23.906  -3.173  29.146  0.00  0.00    -0.003 C 
ATOM      5  C   UNL A   1     -23.989  -4.549  28.853  0.00  0.00    -0.000 C 
ATOM      6  C   UNL A   1     -25.137  -5.280  29.205  0.00  0.00    -0.000 C 
ATOM      7  C   UNL A   1     -26.232  -4.611  29.784  0.00  0.00    -0.000 C 
ATOM      8  C   UNL A   1     -26.155  -3.232  30.065  0.00  0.00    -0.003 C 
ENDBRANCH   2   3
BRANCH   2   9
ATOM      9  C   UNL A   1     -25.387  -0.679  31.571  0.00  0.00    +0.092 C 
ATOM     10  C   UNL A   1     -25.189   0.773  32.028  0.00  0.00    +0.021 C 
ATOM     11  C   UNL A   1     -25.336   0.684  33.544  0.00  0.00    +0.020 C 
ATOM     12  C   UNL A   1     -24.829  -0.715  33.905  0.00  0.00    +0.089 C 
ATOM     13  N   UNL A   1     -24.758  -1.481  32.646  0.00  0.00    -0.218 NA
ENDBRANCH   2   9
ENDBRANCH   1   2
BRANCH   1  14
ATOM     14  C   UNL A   1     -23.403   0.718  28.864  0.00  0.00    +0.107 C 
BRANCH  14  15
ATOM     15  C   UNL A   1     -23.316   1.014  27.363  0.00  0.00    +0.153 C 
BRANCH  15  23
ATOM     16  C   UNL A   1     -25.688   1.614  26.461  0.00  0.00    +0.023 C 
ATOM     17  C   UNL A   1     -26.250   2.920  26.395  0.00  0.00    +0.073 C 
ATOM     18  C   UNL A   1     -27.438   3.091  25.645  0.00  0.00    +0.106 C 
ATOM     19  N   UNL A   1     -28.075   2.089  25.003  0.00  0.00    -0.211 NA
ATOM     20  C   UNL A   1     -27.543   0.849  25.079  0.00  0.00    +0.238 C 
ATOM     21  C   UNL A   1     -26.354   0.576  25.777  0.00  0.00    +0.258 C 
ATOM     22  F   UNL A   1     -25.860  -0.681  25.795  0.00  0.00    -0.222 F 
ATOM     23  C   UNL A   1     -24.488   1.671  27.000  0.00  0.00    +0.003 C 
BRANCH  17  24
ATOM     24  C   UNL A   1     -25.642   4.093  27.123  0.00  0.00    +0.266 C 
ATOM     25  N   UNL A   1     -25.614   5.252  26.449  0.00  0.00    -0.200 NA
ATOM     26  C   UNL A   1     -25.026   6.479  26.963  0.00  0.00    +0.139 C 
ATOM     27  O   UNL A   1     -25.143   3.966  28.243  0.00  0.00    -0.268 OA
ENDBRANCH  17  24
BRANCH  20  28
ATOM     28  O   UNL A   1     -28.193  -0.208  24.477  0.00  0.00    -0.458 OA
BRANCH  28  29
ATOM     29  C   UNL A   1     -29.460   0.005  23.866  0.00  0.00    +0.242 C 
BRANCH  29  30
ATOM     30  C   UNL A   1     -30.065  -1.377  23.573  0.00  0.00    +0.229 C 
ATOM     31  O   UNL A   1     -30.729  -1.878  24.721  0.00  0.00    -0.216 OA
ENDBRANCH  29  30
ENDBRANCH  28  29
ENDBRANCH  20  28
ENDBRANCH  15  23
BRANCH  15  33
ATOM     32  C   UNL A   1     -21.086   1.629  27.619  0.00  0.00    +0.174 C 
ATOM     33  O   UNL A   1     -22.352   1.952  26.990  0.00  0.00    -0.348 OA
ENDBRANCH  15  33
ENDBRANCH  14  15
ENDBRANCH   1  14
BRANCH   1  34
ATOM     34  C   UNL A   1     -26.020   0.977  28.955  0.00  0.00    +0.078 C 
BRANCH  34  36
ATOM     35  C   UNL A   1     -31.725  -0.057  29.299  0.00  0.00    +0.318 C 
ATOM     36  C   UNL A   1     -27.364   1.232  29.158  0.00  0.00    +0.079 C 
ATOM     37  O   UNL A   1     -27.956   1.879  31.642  0.00  0.00    -0.223 OA
ATOM     38  C   UNL A   1     -28.368   1.421  30.412  0.00  0.00    +0.156 C 
ATOM     39  O   UNL A   1     -32.075  -1.333  29.700  0.00  0.00    -0.347 OA
ATOM     40  C   UNL A   1     -30.181  -4.511  31.697  0.00  0.00    +0.016 C 
ATOM     41  C   UNL A   1     -28.160   0.110  28.299  0.00  0.00    +0.186 C 
ATOM     42  C   UNL A   1     -29.200  -0.689  31.748  0.00  0.00    +0.043 C 
ATOM     43  O   UNL A   1     -30.805  -0.159  26.976  0.00  0.00    -0.220 OA
ATOM     44  N   UNL A   1     -31.917  -1.597  30.963  0.00  0.00    -0.047 NA
ATOM     45  C   UNL A   1     -29.711  -0.079  28.055  0.00  0.00    +0.188 C 
ATOM     46  C   UNL A   1     -29.327   0.072  33.291  0.00  0.00    +0.004 C 
ATOM     47  O   UNL A   1     -30.513  -2.241  32.702  0.00  0.00    -0.465 OA
ATOM     48  C   UNL A   1     -31.381  -2.501  31.782  0.00  0.00    +0.238 C 
ATOM     49  C   UNL A   1     -31.440  -3.813  31.310  0.00  0.00    +0.109 C 
ATOM     50  C   UNL A   1     -29.358   0.283  30.589  0.00  0.00    +0.043 C 
ATOM     51  O   UNL A   1     -27.637  -1.187  28.683  0.00  0.00    -0.220 OA
ATOM     52  C   UNL A   1     -30.370   0.320  29.410  0.00  0.00    +0.108 C 
ATOM     53  C   UNL A   1     -29.140  -2.236  32.084  0.00  0.00    +0.167 C 
ATOM     54  C   UNL A   1     -28.858  -3.889  32.056  0.00  0.00    +0.044 C 
BRANCH  35  55
ATOM     55  O   UNL A   1     -32.679   0.840  28.905  0.00  0.00    -0.316 OA
ATOM     56  C   UNL A   1     -34.111   0.460  28.898  0.00  0.00    +0.178 C 
ENDBRANCH  35  55
BRANCH  49  57
ATOM     57  C   UNL A   1     -32.914  -3.927  30.876  0.00  0.00    +0.151 C 
BRANCH  57  59
ATOM     58  C   UNL A   1     -33.681  -2.883  33.062  0.00  0.00    +0.174 C 
ATOM     59  O   UNL A   1     -33.802  -3.059  31.671  0.00  0.00    -0.351 OA
ENDBRANCH  57  59
ENDBRANCH  49  57
ENDBRANCH  34  36
ENDBRANCH   1  34
TORSDOF 16
