MODEL 3394
MODEL 1
REMARK VINA RESULT:    -5.072      0.000      0.000
REMARK INTER + INTRA:          -8.437
REMARK INTER:                  -7.444
REMARK INTRA:                  -0.993
REMARK UNBOUND:                -0.993
REMARK  Name = No_3394-gen_results/8p0m/2024-11-27-11-27-31/
REMARK  8 active torsions:
REMARK  status: ('A' for Active; 'I' for Inactive)
REMARK    1  A    between atoms: C_1  and  C_2
REMARK    2  A    between atoms: C_1  and  C_4
REMARK    3  A    between atoms: C_2  and  C_9
REMARK    4  A    between atoms: C_5  and  C_6
REMARK    5  A    between atoms: C_6  and  N_7
REMARK    6  A    between atoms: N_7  and  C_8
REMARK    7  A    between atoms: C_11  and  C_12
REMARK    8  A    between atoms: C_13  and  C_15
REMARK                            x       y       z     vdW  Elec       q    Type
REMARK                         _______ _______ _______ _____ _____    ______ ____
ROOT
ATOM      1  C   UNL A   1     -23.306   1.696  26.429  0.00  0.00    +0.106 C 
ATOM      2 CL   UNL A   1     -23.457   2.937  25.556  0.00  0.00    -0.110 Cl
ENDROOT
BRANCH   1   3
ATOM      3  C   UNL A   1     -24.288   0.735  26.099  0.00  0.00    -0.010 C 
ATOM      4  C   UNL A   1     -25.116   0.849  25.283  0.00  0.00    -0.004 C 
BRANCH   4   5
ATOM      5  C   UNL A   1     -26.117  -0.147  24.888  0.00  0.00    -0.005 C 
ATOM      6  C   UNL A   1     -27.332   0.245  24.479  0.00  0.00    -0.022 C 
ATOM      7  C   UNL A   1     -28.328  -0.573  23.996  0.00  0.00    +0.031 C 
BRANCH   6   8
ATOM      8  C   UNL A   1     -27.559   1.668  24.362  0.00  0.00    -0.004 C 
ATOM      9  C   UNL A   1     -28.624   2.148  23.546  0.00  0.00    -0.000 C 
ENDBRANCH   6   8
ENDBRANCH   4   5
ENDBRANCH   1   3
BRANCH   1  10
ATOM     10  C   UNL A   1     -22.595   1.640  27.406  0.00  0.00    +0.046 C 
BRANCH  10  11
ATOM     11  C   UNL A   1     -23.287   1.512  28.572  0.00  0.00    -0.028 C 
ATOM     12  C   UNL A   1     -22.837   0.653  29.561  0.00  0.00    -0.012 C 
BRANCH  12  13
ATOM     13  C   UNL A   1     -21.948  -0.405  29.123  0.00  0.00    +0.114 C 
BRANCH  13  14
ATOM     14  N   UNL A   1     -22.431  -1.526  28.919  0.00  0.00    -0.213 NA
BRANCH  14  15
ATOM     15  C   UNL A   1     -23.698  -1.872  29.381  0.00  0.00    +0.089 C 
ATOM     16  C   UNL A   1     -24.714  -2.251  28.595  0.00  0.00    +0.020 C 
ENDBRANCH  14  15
ENDBRANCH  13  14
ENDBRANCH  12  13
ENDBRANCH  10  11
ENDBRANCH   1  10
TORSDOF 8
ENDMDL
ENDMDL
