REMARK  Name = outputs/IAG933/test6/raw/output_3394_IAG933_linker_design_.xyz
REMARK  8 active torsions:
REMARK  status: ('A' for Active; 'I' for Inactive)
REMARK    1  A    between atoms: C_1  and  C_2
REMARK    2  A    between atoms: C_13  and  C_41
REMARK    3  A    between atoms: C_14  and  C_15
REMARK    4  A    between atoms: C_21  and  O_22
REMARK    5  A    between atoms: O_22  and  C_23
REMARK    6  A    between atoms: C_23  and  C_24
REMARK    7  A    between atoms: C_33  and  N_36
REMARK    8  A    between atoms: C_34  and  C_45
REMARK                            x       y       z     vdW  Elec       q    Type
REMARK                         _______ _______ _______ _____ _____    ______ ____
ROOT
ATOM      1  C   UNL A   1     -24.855  -1.012  30.143  0.00  0.00    +0.098 C 
ATOM      2  C   UNL A   1     -25.387  -0.679  31.571  0.00  0.00    +0.095 C 
ATOM      3  C   UNL A   1     -25.189   0.773  32.028  0.00  0.00    +0.052 C 
ATOM      4  C   UNL A   1     -25.336   0.684  33.544  0.00  0.00    +0.023 C 
ATOM      5  C   UNL A   1     -24.829  -0.715  33.905  0.00  0.00    +0.089 C 
ATOM      6  N   UNL A   1     -24.758  -1.481  32.646  0.00  0.00    -0.218 NA
ATOM      7  C   UNL A   1     -24.475   1.780  29.014  0.00  0.00    +0.036 C 
ATOM      8  N   UNL A   1     -23.997  -0.154  29.855  0.00  0.00    -0.256 NA
ATOM      9  C   UNL A   1     -22.672   0.144  29.720  0.00  0.00    +0.076 C 
ATOM     10  C   UNL A   1     -23.284   1.787  25.832  0.00  0.00    +0.279 C 
ATOM     11  C   UNL A   1     -24.599   1.215  30.492  0.00  0.00    +0.130 C 
ATOM     12  C   UNL A   1     -23.884   1.257  28.063  0.00  0.00    +0.013 C 
ATOM     13  C   UNL A   1     -22.527   0.849  28.584  0.00  0.00    +0.049 C 
ATOM     14  O   UNL A   1     -21.946   2.073  26.382  0.00  0.00    -0.324 OA
ATOM     15  C   UNL A   1     -24.213   1.430  26.729  0.00  0.00    +0.069 C 
ATOM     16  F   UNL A   1     -23.411   1.787  24.473  0.00  0.00    -0.204 F 
ATOM     17  C   UNL A   1     -21.636   1.098  27.496  0.00  0.00    +0.183 C 
ENDROOT
BRANCH  15  18
ATOM     18  C   UNL A   1     -25.688   1.614  26.461  0.00  0.00    +0.075 C 
ATOM     19  C   UNL A   1     -26.250   2.920  26.395  0.00  0.00    +0.055 C 
ATOM     20  C   UNL A   1     -27.438   3.091  25.645  0.00  0.00    +0.102 C 
ATOM     21  N   UNL A   1     -28.075   2.089  25.003  0.00  0.00    -0.212 NA
ATOM     22  C   UNL A   1     -27.543   0.849  25.079  0.00  0.00    +0.234 C 
ATOM     23  C   UNL A   1     -26.354   0.576  25.777  0.00  0.00    +0.240 C 
ATOM     24  F   UNL A   1     -25.860  -0.681  25.795  0.00  0.00    -0.227 F 
BRANCH  19  25
ATOM     25  C   UNL A   1     -25.642   4.093  27.123  0.00  0.00    +0.262 C 
ATOM     26  N   UNL A   1     -25.614   5.252  26.449  0.00  0.00    -0.200 NA
ATOM     27  C   UNL A   1     -25.026   6.479  26.963  0.00  0.00    +0.139 C 
ATOM     28  O   UNL A   1     -25.143   3.966  28.243  0.00  0.00    -0.269 OA
ENDBRANCH  19  25
BRANCH  22  29
ATOM     29  O   UNL A   1     -28.193  -0.208  24.477  0.00  0.00    -0.459 OA
BRANCH  29  30
ATOM     30  C   UNL A   1     -29.460   0.005  23.866  0.00  0.00    +0.242 C 
BRANCH  30  31
ATOM     31  C   UNL A   1     -30.065  -1.377  23.573  0.00  0.00    +0.229 C 
ATOM     32  O   UNL A   1     -30.729  -1.878  24.721  0.00  0.00    -0.216 OA
ENDBRANCH  30  31
ENDBRANCH  29  30
ENDBRANCH  22  29
ENDBRANCH  15  18
BRANCH   1  33
ATOM     33  C   UNL A   1     -24.973  -2.505  29.788  0.00  0.00    -0.006 C 
ATOM     34  C   UNL A   1     -23.906  -3.173  29.146  0.00  0.00    -0.003 C 
ATOM     35  C   UNL A   1     -23.989  -4.549  28.853  0.00  0.00    -0.000 C 
ATOM     36  C   UNL A   1     -25.137  -5.280  29.205  0.00  0.00    -0.000 C 
ATOM     37  C   UNL A   1     -26.232  -4.611  29.784  0.00  0.00    -0.000 C 
ATOM     38  C   UNL A   1     -26.155  -3.232  30.065  0.00  0.00    -0.003 C 
ENDBRANCH   1  33
BRANCH  11  40
ATOM     39  O   UNL A   1     -23.709   3.847  32.752  0.00  0.00    -0.221 OA
ATOM     40  N   UNL A   1     -23.686   2.412  31.098  0.00  0.00    -0.154 NA
ATOM     41  C   UNL A   1     -24.506   3.405  31.893  0.00  0.00    +0.464 C 
ATOM     42  O   UNL A   1     -25.798   3.531  31.777  0.00  0.00    -0.221 OA
ENDBRANCH  11  40
BRANCH  17  43
ATOM     43  C   UNL A   1     -20.355   1.734  28.188  0.00  0.00    +0.336 C 
ATOM     44  F   UNL A   1     -19.790   2.608  27.698  0.00  0.00    -0.198 F 
ATOM     45  O   UNL A   1     -19.974   0.493  28.844  0.00  0.00    -0.181 OA
ENDBRANCH  17  43
TORSDOF 8
