MODEL 3395
MODEL 1
REMARK VINA RESULT:    -7.463      0.000      0.000
REMARK INTER + INTRA:          -9.958
REMARK INTER:                  -9.209
REMARK INTRA:                  -0.749
REMARK UNBOUND:                -0.749
REMARK  Name = No_3395-gen_results/8p0m/2024-11-27-11-27-31/
REMARK  4 active torsions:
REMARK  status: ('A' for Active; 'I' for Inactive)
REMARK    1  A    between atoms: C_6  and  O_17
REMARK    2  A    between atoms: C_9  and  C_11
REMARK    3  A    between atoms: O_17  and  C_18
REMARK    4  A    between atoms: C_18  and  C_19
REMARK                            x       y       z     vdW  Elec       q    Type
REMARK                         _______ _______ _______ _____ _____    ______ ____
ROOT
ATOM      1  C   UNL A   1     -24.043  -0.026  27.653  0.00  0.00    +0.034 A 
ATOM      2  C   UNL A   1     -23.278   0.889  27.455  0.00  0.00    +0.003 A 
ATOM      3  C   UNL A   1     -22.019   0.913  28.045  0.00  0.00    +0.000 A 
ATOM      4  C   UNL A   1     -21.604  -0.129  28.948  0.00  0.00    +0.003 A 
ATOM      5  C   UNL A   1     -22.559  -1.136  29.139  0.00  0.00    +0.037 A 
ATOM      6  C   UNL A   1     -23.743  -1.103  28.570  0.00  0.00    +0.139 A 
ATOM      7  C   UNL A   1     -23.548   2.059  26.576  0.00  0.00    +0.000 A 
ATOM      8  C   UNL A   1     -24.329   2.282  25.956  0.00  0.00    +0.000 A 
ATOM      9  C   UNL A   1     -25.504   1.301  25.921  0.00  0.00    +0.000 A 
ATOM     10  C   UNL A   1     -25.665   0.306  26.733  0.00  0.00    +0.003 A 
ENDROOT
BRANCH   9  11
ATOM     11  C   UNL A   1     -26.725   1.572  25.097  0.00  0.00    +0.000 A 
ATOM     12  C   UNL A   1     -27.202   2.668  25.085  0.00  0.00    +0.000 A 
ATOM     13  C   UNL A   1     -28.334   2.963  24.331  0.00  0.00    +0.000 A 
ATOM     14  C   UNL A   1     -28.914   1.858  23.577  0.00  0.00    +0.000 A 
ATOM     15  C   UNL A   1     -28.380   0.602  23.610  0.00  0.00    +0.000 A 
ATOM     16  C   UNL A   1     -27.220   0.398  24.326  0.00  0.00    +0.000 A 
ENDBRANCH   9  11
BRANCH   6  17
ATOM     17  O   UNL A   1     -24.691  -2.053  28.783  0.00  0.00    -0.464 OA
BRANCH  17  18
ATOM     18  C   UNL A   1     -24.230  -3.167  29.579  0.00  0.00    +0.319 C 
BRANCH  18  19
ATOM     19  C   UNL A   1     -24.549  -4.412  28.977  0.00  0.00    +0.408 C 
ATOM     20  O   UNL A   1     -23.856  -4.851  28.228  0.00  0.00    -0.241 OA
ATOM     21  O   UNL A   1     -25.682  -4.941  29.331  0.00  0.00    -0.241 OA
ENDBRANCH  18  19
ENDBRANCH  17  18
ENDBRANCH   6  17
TORSDOF 4
ENDMDL
ENDMDL
