MODEL 3396
MODEL 1
REMARK VINA RESULT:    -7.250      0.000      0.000
REMARK INTER + INTRA:         -10.732
REMARK INTER:                  -9.794
REMARK INTRA:                  -0.938
REMARK UNBOUND:                -0.938
REMARK  Name = No_3396-gen_results/8p0m/2024-11-27-11-27-31/
REMARK  6 active torsions:
REMARK  status: ('A' for Active; 'I' for Inactive)
REMARK    1  A    between atoms: C_2  and  O_7
REMARK    2  A    between atoms: C_4  and  C_14
REMARK    3  A    between atoms: O_7  and  C_8
REMARK    4  A    between atoms: C_9  and  O_21
REMARK    5  A    between atoms: O_21  and  C_22
REMARK    6  A    between atoms: C_22  and  C_23
REMARK                            x       y       z     vdW  Elec       q    Type
REMARK                         _______ _______ _______ _____ _____    ______ ____
ROOT
ATOM      1  C   UNL A   1     -31.672 -11.597  26.698  0.00  0.00    +0.037 A 
ATOM      2  C   UNL A   1     -30.892 -12.007  26.120  0.00  0.00    +0.145 A 
ATOM      3  C   UNL A   1     -31.322 -11.292  28.137  0.00  0.00    +0.003 A 
ATOM      4  C   UNL A   1     -29.986 -11.429  28.568  0.00  0.00    +0.000 A 
ATOM      5  C   UNL A   1     -29.438 -12.214  26.309  0.00  0.00    +0.037 A 
ATOM      6  C   UNL A   1     -29.078 -11.937  27.620  0.00  0.00    +0.003 A 
ENDROOT
BRANCH   4   7
ATOM      7  C   UNL A   1     -29.614 -11.131  29.921  0.00  0.00    +0.002 A 
ATOM      8  C   UNL A   1     -29.982 -10.421  30.603  0.00  0.00    +0.000 A 
ATOM      9  C   UNL A   1     -29.492 -10.056  31.984  0.00  0.00    +0.002 A 
ATOM     10  C   UNL A   1     -28.513 -10.927  32.416  0.00  0.00    +0.030 A 
ATOM     11  C   UNL A   1     -28.531 -11.979  30.525  0.00  0.00    +0.030 A 
ATOM     12  C   UNL A   1     -27.996 -11.826  31.679  0.00  0.00    +0.140 A 
ATOM     13  F   UNL A   1     -27.042 -12.640  32.129  0.00  0.00    -0.204 F 
ENDBRANCH   4   7
BRANCH   2  14
ATOM     14  O   UNL A   1     -31.227 -12.307  24.720  0.00  0.00    -0.450 OA
BRANCH  14  15
ATOM     15  C   UNL A   1     -30.908 -13.474  24.288  0.00  0.00    +0.180 A 
ATOM     16  C   UNL A   1     -30.257 -13.731  23.180  0.00  0.00    +0.183 A 
ATOM     17  C   UNL A   1     -29.995 -14.995  22.611  0.00  0.00    +0.041 A 
ATOM     18  C   UNL A   1     -30.463 -16.091  23.371  0.00  0.00    +0.003 A 
ATOM     19  C   UNL A   1     -31.177 -15.896  24.524  0.00  0.00    +0.003 A 
ATOM     20  C   UNL A   1     -31.454 -14.612  24.990  0.00  0.00    +0.041 A 
BRANCH  16  21
ATOM     21  O   UNL A   1     -29.814 -12.686  22.421  0.00  0.00    -0.413 OA
BRANCH  21  22
ATOM     22  C   UNL A   1     -30.353 -12.274  21.263  0.00  0.00    +0.427 C 
ATOM     23  O   UNL A   1     -31.605 -12.235  21.275  0.00  0.00    -0.237 OA
BRANCH  22  24
ATOM     24  C   UNL A   1     -29.555 -11.568  20.468  0.00  0.00    +0.463 C 
ATOM     25  O   UNL A   1     -29.920 -10.602  19.962  0.00  0.00    -0.233 OA
ATOM     26  O   UNL A   1     -28.439 -12.103  20.062  0.00  0.00    -0.233 OA
ENDBRANCH  22  24
ENDBRANCH  21  22
ENDBRANCH  16  21
ENDBRANCH  14  15
ENDBRANCH   2  14
TORSDOF 6
ENDMDL
ENDMDL
