REMARK  Name = outputs/IAG933/test6/raw/output_3396_IAG933_linker_design_.xyz
REMARK  10 active torsions:
REMARK  status: ('A' for Active; 'I' for Inactive)
REMARK    1  A    between atoms: C_1  and  C_2
REMARK    2  A    between atoms: C_1  and  C_8
REMARK    3  A    between atoms: C_1  and  N_34
REMARK    4  A    between atoms: C_13  and  C_43
REMARK    5  A    between atoms: C_14  and  C_15
REMARK    6  A    between atoms: C_21  and  O_22
REMARK    7  A    between atoms: O_22  and  C_23
REMARK    8  A    between atoms: C_23  and  C_24
REMARK    9  A    between atoms: C_33  and  N_34
REMARK   10  A    between atoms: N_34  and  C_49
REMARK                            x       y       z     vdW  Elec       q    Type
REMARK                         _______ _______ _______ _____ _____    ______ ____
ROOT
ATOM      1  N   UNL A   1     -25.240  -0.060  29.014  0.00  0.00    -0.307 N 
ENDROOT
BRANCH   1   5
ATOM      2  O   UNL A   1     -30.686   3.151  32.989  0.00  0.00    -0.347 OA
ATOM      3  C   UNL A   1     -27.531   1.160  29.869  0.00  0.00    +0.023 C 
ATOM      4  C   UNL A   1     -32.041   1.206  32.291  0.00  0.00    +0.130 C 
ATOM      5  C   UNL A   1     -26.744   0.328  28.845  0.00  0.00    +0.059 C 
ATOM      6  C   UNL A   1     -27.948   2.092  30.988  0.00  0.00    +0.027 C 
ATOM      7  C   UNL A   1     -29.849   0.252  29.693  0.00  0.00    +0.043 C 
ATOM      8  N   UNL A   1     -31.209   0.213  31.659  0.00  0.00    -0.260 N 
ATOM      9  C   UNL A   1     -32.647  -1.907  31.119  0.00  0.00    +0.095 C 
ATOM     10  C   UNL A   1     -31.816   2.720  32.187  0.00  0.00    +0.164 C 
ATOM     11  C   UNL A   1     -29.352   2.656  32.809  0.00  0.00    +0.165 C 
ATOM     12  C   UNL A   1     -31.487  -1.108  31.760  0.00  0.00    +0.230 C 
ATOM     13  C   UNL A   1     -30.100   0.767  30.989  0.00  0.00    +0.026 C 
ATOM     14  C   UNL A   1     -27.826  -0.481  28.141  0.00  0.00    +0.020 C 
ATOM     15  C   UNL A   1     -28.469   0.295  29.189  0.00  0.00    +0.024 C 
ATOM     16  C   UNL A   1     -29.194   1.803  31.567  0.00  0.00    -0.005 C 
ATOM     17  O   UNL A   1     -30.726  -1.726  32.458  0.00  0.00    -0.275 OA
ENDBRANCH   1   5
BRANCH   1  23
ATOM     18  C   UNL A   1     -23.201   1.968  26.490  0.00  0.00    +0.014 C 
ATOM     19  F   UNL A   1     -21.025   1.923  27.186  0.00  0.00    -0.228 F 
ATOM     20  C   UNL A   1     -22.258   1.572  27.347  0.00  0.00    +0.206 C 
ATOM     21  C   UNL A   1     -22.789   0.750  28.392  0.00  0.00    +0.028 C 
ATOM     22  C   UNL A   1     -24.524   1.369  27.062  0.00  0.00    +0.014 C 
ATOM     23  C   UNL A   1     -24.226   0.602  28.230  0.00  0.00    +0.046 C 
BRANCH  22  24
ATOM     24  C   UNL A   1     -25.688   1.614  26.461  0.00  0.00    +0.039 C 
ATOM     25  C   UNL A   1     -26.250   2.920  26.395  0.00  0.00    +0.077 C 
ATOM     26  C   UNL A   1     -27.438   3.091  25.645  0.00  0.00    +0.107 C 
ATOM     27  N   UNL A   1     -28.075   2.089  25.003  0.00  0.00    -0.208 NA
ATOM     28  C   UNL A   1     -27.543   0.849  25.079  0.00  0.00    +0.253 C 
ATOM     29  C   UNL A   1     -26.354   0.576  25.777  0.00  0.00    +0.193 C 
ATOM     30  F   UNL A   1     -25.860  -0.681  25.795  0.00  0.00    -0.199 F 
BRANCH  25  31
ATOM     31  C   UNL A   1     -25.642   4.093  27.123  0.00  0.00    +0.266 C 
ATOM     32  N   UNL A   1     -25.614   5.252  26.449  0.00  0.00    -0.200 NA
ATOM     33  C   UNL A   1     -25.026   6.479  26.963  0.00  0.00    +0.139 C 
ATOM     34  O   UNL A   1     -25.143   3.966  28.243  0.00  0.00    -0.268 OA
ENDBRANCH  25  31
BRANCH  28  35
ATOM     35  O   UNL A   1     -28.193  -0.208  24.477  0.00  0.00    -0.456 OA
BRANCH  35  36
ATOM     36  C   UNL A   1     -29.460   0.005  23.866  0.00  0.00    +0.243 C 
BRANCH  36  37
ATOM     37  C   UNL A   1     -30.065  -1.377  23.573  0.00  0.00    +0.229 C 
ATOM     38  O   UNL A   1     -30.729  -1.878  24.721  0.00  0.00    -0.216 OA
ENDBRANCH  36  37
ENDBRANCH  35  36
ENDBRANCH  28  35
ENDBRANCH  22  24
ENDBRANCH   1  23
BRANCH   1  39
ATOM     39  C   UNL A   1     -24.855  -1.012  30.143  0.00  0.00    +0.111 C 
BRANCH  39  40
ATOM     40  C   UNL A   1     -24.973  -2.505  29.788  0.00  0.00    -0.003 C 
ATOM     41  C   UNL A   1     -23.906  -3.173  29.146  0.00  0.00    -0.003 C 
ATOM     42  C   UNL A   1     -23.989  -4.549  28.853  0.00  0.00    -0.000 C 
ATOM     43  C   UNL A   1     -25.137  -5.280  29.205  0.00  0.00    -0.000 C 
ATOM     44  C   UNL A   1     -26.232  -4.611  29.784  0.00  0.00    -0.000 C 
ATOM     45  C   UNL A   1     -26.155  -3.232  30.065  0.00  0.00    -0.003 C 
ENDBRANCH  39  40
BRANCH  39  46
ATOM     46  C   UNL A   1     -25.387  -0.679  31.571  0.00  0.00    +0.095 C 
ATOM     47  C   UNL A   1     -25.189   0.773  32.028  0.00  0.00    +0.021 C 
ATOM     48  C   UNL A   1     -25.336   0.684  33.544  0.00  0.00    +0.020 C 
ATOM     49  C   UNL A   1     -24.829  -0.715  33.905  0.00  0.00    +0.089 C 
ATOM     50  N   UNL A   1     -24.758  -1.481  32.646  0.00  0.00    -0.217 NA
ENDBRANCH  39  46
ENDBRANCH   1  39
TORSDOF 10
