REMARK  Name = outputs/IAG933/test6/raw/output_3397_IAG933_linker_design_.xyz
REMARK  9 active torsions:
REMARK  status: ('A' for Active; 'I' for Inactive)
REMARK    1  A    between atoms: C_1  and  C_2
REMARK    2  A    between atoms: C_1  and  C_8
REMARK    3  A    between atoms: C_1  and  O_42
REMARK    4  A    between atoms: C_21  and  O_22
REMARK    5  A    between atoms: O_22  and  C_23
REMARK    6  A    between atoms: C_23  and  C_24
REMARK    7  A    between atoms: O_32  and  C_43
REMARK    8  A    between atoms: C_33  and  C_43
REMARK    9  A    between atoms: C_41  and  O_42
REMARK                            x       y       z     vdW  Elec       q    Type
REMARK                         _______ _______ _______ _____ _____    ______ ____
ROOT
ATOM      1  C   UNL A   1     -25.688   1.614  26.461  0.00  0.00    +0.058 C 
ATOM      2  C   UNL A   1     -26.250   2.920  26.395  0.00  0.00    +0.074 C 
ATOM      3  C   UNL A   1     -25.642   4.093  27.123  0.00  0.00    +0.222 C 
ATOM      4  N   UNL A   1     -25.614   5.252  26.449  0.00  0.00    -0.236 NA
ATOM      5  C   UNL A   1     -25.026   6.479  26.963  0.00  0.00    +0.155 C 
ATOM      6  O   UNL A   1     -25.143   3.966  28.243  0.00  0.00    -0.454 OA
ATOM      7  C   UNL A   1     -27.438   3.091  25.645  0.00  0.00    +0.107 C 
ATOM      8  N   UNL A   1     -28.075   2.089  25.003  0.00  0.00    -0.208 NA
ATOM      9  C   UNL A   1     -27.543   0.849  25.079  0.00  0.00    +0.253 C 
ATOM     10  C   UNL A   1     -26.354   0.576  25.777  0.00  0.00    +0.193 C 
ATOM     11  F   UNL A   1     -25.860  -0.681  25.795  0.00  0.00    -0.200 F 
ATOM     12  O   UNL A   1     -23.839   2.345  30.503  0.00  0.00    -0.289 OA
ATOM     13  C   UNL A   1     -24.514   1.342  27.111  0.00  0.00    +0.228 C 
ATOM     14  O   UNL A   1     -23.600   1.649  26.198  0.00  0.00    -0.448 OA
ATOM     15  C   UNL A   1     -25.727   3.103  29.217  0.00  0.00    +0.256 C 
ATOM     16  C   UNL A   1     -22.368   1.815  26.505  0.00  0.00    +0.310 C 
ATOM     17  F   UNL A   1     -22.314   0.247  29.646  0.00  0.00    -0.227 F 
ATOM     18  C   UNL A   1     -22.798   0.857  28.618  0.00  0.00    +0.251 C 
ATOM     19  C   UNL A   1     -24.523   2.157  29.511  0.00  0.00    +0.224 C 
ATOM     20  F   UNL A   1     -20.625   1.670  27.839  0.00  0.00    -0.200 F 
ATOM     21  F   UNL A   1     -21.555   2.456  25.622  0.00  0.00    -0.161 F 
ATOM     22  C   UNL A   1     -21.904   1.428  27.667  0.00  0.00    +0.216 C 
ATOM     23  C   UNL A   1     -24.258   1.084  28.557  0.00  0.00    +0.224 C 
ENDROOT
BRANCH   9  24
ATOM     24  O   UNL A   1     -28.193  -0.208  24.477  0.00  0.00    -0.456 OA
BRANCH  24  25
ATOM     25  C   UNL A   1     -29.460   0.005  23.866  0.00  0.00    +0.243 C 
BRANCH  25  26
ATOM     26  C   UNL A   1     -30.065  -1.377  23.573  0.00  0.00    +0.229 C 
ATOM     27  O   UNL A   1     -30.729  -1.878  24.721  0.00  0.00    -0.216 OA
ENDBRANCH  25  26
ENDBRANCH  24  25
ENDBRANCH   9  24
BRANCH  23  28
ATOM     28  O   UNL A   1     -25.042  -0.069  29.065  0.00  0.00    -0.341 OA
BRANCH  28  29
ATOM     29  C   UNL A   1     -24.855  -1.012  30.143  0.00  0.00    +0.154 C 
BRANCH  29  30
ATOM     30  C   UNL A   1     -24.973  -2.505  29.788  0.00  0.00    +0.006 C 
ATOM     31  C   UNL A   1     -23.906  -3.173  29.146  0.00  0.00    -0.002 C 
ATOM     32  C   UNL A   1     -23.989  -4.549  28.853  0.00  0.00    -0.000 C 
ATOM     33  C   UNL A   1     -25.137  -5.280  29.205  0.00  0.00    -0.000 C 
ATOM     34  C   UNL A   1     -26.232  -4.611  29.784  0.00  0.00    -0.000 C 
ATOM     35  C   UNL A   1     -26.155  -3.232  30.065  0.00  0.00    -0.002 C 
ENDBRANCH  29  30
BRANCH  29  36
ATOM     36  C   UNL A   1     -25.387  -0.679  31.571  0.00  0.00    +0.104 C 
ATOM     37  C   UNL A   1     -25.189   0.773  32.028  0.00  0.00    +0.022 C 
ATOM     38  C   UNL A   1     -25.336   0.684  33.544  0.00  0.00    +0.020 C 
ATOM     39  C   UNL A   1     -24.829  -0.715  33.905  0.00  0.00    +0.089 C 
ATOM     40  N   UNL A   1     -24.758  -1.481  32.646  0.00  0.00    -0.217 NA
ENDBRANCH  29  36
ENDBRANCH  28  29
ENDBRANCH  23  28
BRANCH  15  41
ATOM     41  C   UNL A   1     -26.107   4.047  30.400  0.00  0.00    +0.193 C 
BRANCH  41  43
ATOM     42  C   UNL A   1     -28.220   4.397  29.328  0.00  0.00    +0.174 C 
ATOM     43  O   UNL A   1     -27.353   4.486  30.516  0.00  0.00    -0.347 OA
ENDBRANCH  41  43
ENDBRANCH  15  41
TORSDOF 9
