MODEL 3397
MODEL 1
REMARK VINA RESULT:    -4.286      0.000      0.000
REMARK INTER + INTRA:          -4.286
REMARK INTER:                  -4.286
REMARK INTRA:                   0.000
REMARK UNBOUND:                 0.000
REMARK  Name = No_3397-gen_results/8p0m/2024-11-27-11-27-31/
REMARK  0 active torsions:
REMARK  status: ('A' for Active; 'I' for Inactive)
REMARK                            x       y       z     vdW  Elec       q    Type
REMARK                         _______ _______ _______ _____ _____    ______ ____
ROOT
ATOM      1  C   UNL A   1     -26.242  -3.621  29.777  0.00  0.00    +0.000 A 
ATOM      2  C   UNL A   1     -26.112  -4.819  29.674  0.00  0.00    +0.000 A 
ATOM      3  C   UNL A   1     -25.043  -5.420  29.039  0.00  0.00    +0.000 A 
ATOM      4  C   UNL A   1     -24.022  -4.581  28.512  0.00  0.00    +0.000 A 
ATOM      5  C   UNL A   1     -24.127  -3.263  28.801  0.00  0.00    +0.000 A 
ATOM      6  C   UNL A   1     -25.167  -2.779  29.453  0.00  0.00    +0.000 A 
ENDROOT
TORSDOF 0
ENDMDL
ENDMDL
