MODEL 3398
MODEL 1
REMARK VINA RESULT:    -6.461      0.000      0.000
REMARK INTER + INTRA:         -13.187
REMARK INTER:                  -9.860
REMARK INTRA:                  -3.327
REMARK UNBOUND:                -3.327
REMARK  Name = No_3398-gen_results/8p0m/2024-11-27-11-27-31/
REMARK  9 active torsions:
REMARK  status: ('A' for Active; 'I' for Inactive)
REMARK    1  A    between atoms: C_3  and  C_4
REMARK    2  A    between atoms: C_7  and  C_26
REMARK    3  A    between atoms: C_8  and  C_10
REMARK    4  A    between atoms: C_15  and  O_16
REMARK    5  A    between atoms: O_16  and  C_17
REMARK    6  A    between atoms: C_19  and  C_22
REMARK    7  A    between atoms: C_27  and  C_28
REMARK    8  A    between atoms: C_28  and  C_29
REMARK    9  A    between atoms: C_30  and  C_31
REMARK                            x       y       z     vdW  Elec       q    Type
REMARK                         _______ _______ _______ _____ _____    ______ ____
ROOT
ATOM      1  C   UNL A   1     -27.273   2.366  27.547  0.00  0.00    -0.004 C 
ATOM      2  C   UNL A   1     -26.052   2.878  28.000  0.00  0.00    -0.019 C 
ATOM      3  C   UNL A   1     -25.986   3.541  29.221  0.00  0.00    +0.031 C 
ENDROOT
BRANCH   1   6
ATOM      4  C   UNL A   1     -26.885   0.469  25.779  0.00  0.00    -0.000 A 
ATOM      5  C   UNL A   1     -26.930   0.267  24.746  0.00  0.00    -0.000 A 
ATOM      6  C   UNL A   1     -27.365   1.791  26.214  0.00  0.00    -0.000 A 
ATOM      7  C   UNL A   1     -27.586   0.990  23.630  0.00  0.00    -0.000 A 
ATOM      8  C   UNL A   1     -28.073   2.250  23.962  0.00  0.00    -0.000 A 
ATOM      9  C   UNL A   1     -28.013   2.702  25.264  0.00  0.00    -0.000 A 
BRANCH   9  10
ATOM     10  C   UNL A   1     -28.476   3.988  25.610  0.00  0.00    -0.004 C 
ATOM     11  C   UNL A   1     -29.786   4.270  25.913  0.00  0.00    -0.021 C 
BRANCH  11  12
ATOM     12  C   UNL A   1     -30.816   3.379  26.172  0.00  0.00    +0.052 C 
BRANCH  12  13
ATOM     13  C   UNL A   1     -31.525   2.806  25.129  0.00  0.00    -0.020 C 
ATOM     14  C   UNL A   1     -31.586   1.320  25.046  0.00  0.00    +0.018 C 
BRANCH  14  15
ATOM     15  C   UNL A   1     -30.889   0.591  26.038  0.00  0.00    +0.122 C 
ATOM     16  N   UNL A   1     -30.368  -0.621  25.597  0.00  0.00    -0.146 NA
ENDBRANCH  14  15
ENDBRANCH  12  13
ENDBRANCH  11  12
ENDBRANCH   9  10
ENDBRANCH   1   6
BRANCH   2  17
ATOM     17  C   UNL A   1     -24.876   2.696  27.262  0.00  0.00    +0.031 A 
ATOM     18  C   UNL A   1     -24.718   3.428  26.062  0.00  0.00    +0.003 A 
ATOM     19  C   UNL A   1     -23.595   3.153  25.356  0.00  0.00    +0.000 A 
ATOM     20  C   UNL A   1     -22.616   2.348  25.774  0.00  0.00    +0.003 A 
ATOM     21  C   UNL A   1     -22.765   1.678  26.943  0.00  0.00    +0.037 A 
ATOM     22  C   UNL A   1     -23.870   1.780  27.666  0.00  0.00    +0.145 A 
BRANCH  22  23
ATOM     23  O   UNL A   1     -24.439   0.474  27.538  0.00  0.00    -0.454 OA
BRANCH  23  24
ATOM     24  C   UNL A   1     -24.349  -0.415  28.499  0.00  0.00    +0.145 A 
ATOM     25  C   UNL A   1     -24.360  -1.718  28.318  0.00  0.00    +0.044 A 
ATOM     26  C   UNL A   1     -24.325  -2.612  29.312  0.00  0.00    +0.083 A 
ATOM     27  C   UNL A   1     -23.922  -0.047  29.836  0.00  0.00    +0.037 A 
ATOM     28  C   UNL A   1     -23.879  -0.879  30.912  0.00  0.00    +0.003 A 
ATOM     29  C   UNL A   1     -24.095  -2.198  30.673  0.00  0.00    +0.007 A 
BRANCH  26  30
ATOM     30  C   UNL A   1     -24.478  -4.088  29.113  0.00  0.00    +0.388 C 
ATOM     31  O   UNL A   1     -23.660  -4.678  28.604  0.00  0.00    -0.241 OA
ATOM     32  O   UNL A   1     -25.627  -4.589  29.514  0.00  0.00    -0.241 OA
ENDBRANCH  26  30
ENDBRANCH  23  24
ENDBRANCH  22  23
ENDBRANCH   2  17
TORSDOF 9
ENDMDL
ENDMDL
