MODEL 3399
MODEL 1
REMARK VINA RESULT:    -4.444      0.000      0.000
REMARK INTER + INTRA:          -4.444
REMARK INTER:                  -4.444
REMARK INTRA:                   0.000
REMARK UNBOUND:                 0.000
REMARK  Name = No_3399-gen_results/8p0m/2024-11-27-11-27-31/
REMARK  0 active torsions:
REMARK  status: ('A' for Active; 'I' for Inactive)
REMARK                            x       y       z     vdW  Elec       q    Type
REMARK                         _______ _______ _______ _____ _____    ______ ____
ROOT
ATOM      1  C   UNL A   1     -24.026  -4.145  28.776  0.00  0.00    +0.011 A 
ATOM      2  C   UNL A   1     -24.251  -3.011  29.132  0.00  0.00    +0.058 A 
ATOM      3  C   UNL A   1     -25.414  -2.613  29.706  0.00  0.00    +0.011 A 
ATOM      4  C   UNL A   1     -26.426  -3.572  29.902  0.00  0.00    +0.001 A 
ATOM      5  C   UNL A   1     -24.977  -5.196  29.033  0.00  0.00    +0.001 A 
ATOM      6  C   UNL A   1     -26.174  -4.843  29.581  0.00  0.00    +0.000 A 
ATOM      7 CL   UNL A   1     -23.064  -1.751  28.945  0.00  0.00    -0.082 Cl
ENDROOT
TORSDOF 0
ENDMDL
ENDMDL
