REMARK  Name = outputs/IAG933/test6/raw/output_3399_IAG933_linker_design_.xyz
REMARK  11 active torsions:
REMARK  status: ('A' for Active; 'I' for Inactive)
REMARK    1  A    between atoms: C_1  and  C_2
REMARK    2  A    between atoms: C_1  and  C_8
REMARK    3  A    between atoms: C_9  and  S_36
REMARK    4  A    between atoms: C_13  and  C_41
REMARK    5  A    between atoms: C_14  and  C_15
REMARK    6  A    between atoms: C_21  and  O_22
REMARK    7  A    between atoms: O_22  and  C_23
REMARK    8  A    between atoms: C_23  and  C_24
REMARK    9  A    between atoms: C_28  and  C_41
REMARK   10  A    between atoms: C_29  and  S_36
REMARK   11  A    between atoms: N_35  and  C_41
REMARK                            x       y       z     vdW  Elec       q    Type
REMARK                         _______ _______ _______ _____ _____    ______ ____
ROOT
ATOM      1  C   UNL A   1     -24.885   1.373  27.572  0.00  0.00    +0.135 C 
ENDROOT
BRANCH   1   2
ATOM      2  C   UNL A   1     -23.485   1.119  27.543  0.00  0.00    +0.014 C 
ATOM      3  C   UNL A   1     -22.986   0.048  28.259  0.00  0.00    +0.041 C 
ATOM      4 CL   UNL A   1     -22.925   2.564  25.337  0.00  0.00    -0.083 Cl
ATOM      5  C   UNL A   1     -21.206   1.908  27.200  0.00  0.00    +0.014 C 
ATOM      6  C   UNL A   1     -21.603  -0.100  28.401  0.00  0.00    +0.196 C 
ATOM      7  C   UNL A   1     -20.716   0.910  28.022  0.00  0.00    +0.043 C 
ATOM      8  C   UNL A   1     -22.552   1.877  26.843  0.00  0.00    +0.056 C 
ATOM      9  O   UNL A   1     -21.112  -1.264  28.948  0.00  0.00    -0.287 OA
ENDBRANCH   1   2
BRANCH   1  10
ATOM     10  C   UNL A   1     -25.688   1.614  26.461  0.00  0.00    +0.097 C 
ATOM     11  C   UNL A   1     -26.250   2.920  26.395  0.00  0.00    +0.057 C 
ATOM     12  C   UNL A   1     -27.438   3.091  25.645  0.00  0.00    +0.102 C 
ATOM     13  N   UNL A   1     -28.075   2.089  25.003  0.00  0.00    -0.212 NA
ATOM     14  C   UNL A   1     -27.543   0.849  25.079  0.00  0.00    +0.234 C 
ATOM     15  C   UNL A   1     -26.354   0.576  25.777  0.00  0.00    +0.242 C 
ATOM     16  F   UNL A   1     -25.860  -0.681  25.795  0.00  0.00    -0.227 F 
BRANCH  11  17
ATOM     17  C   UNL A   1     -25.642   4.093  27.123  0.00  0.00    +0.263 C 
ATOM     18  N   UNL A   1     -25.614   5.252  26.449  0.00  0.00    -0.200 NA
ATOM     19  C   UNL A   1     -25.026   6.479  26.963  0.00  0.00    +0.139 C 
ATOM     20  O   UNL A   1     -25.143   3.966  28.243  0.00  0.00    -0.269 OA
ENDBRANCH  11  17
BRANCH  14  21
ATOM     21  O   UNL A   1     -28.193  -0.208  24.477  0.00  0.00    -0.459 OA
BRANCH  21  22
ATOM     22  C   UNL A   1     -29.460   0.005  23.866  0.00  0.00    +0.242 C 
BRANCH  22  23
ATOM     23  C   UNL A   1     -30.065  -1.377  23.573  0.00  0.00    +0.229 C 
ATOM     24  O   UNL A   1     -30.729  -1.878  24.721  0.00  0.00    -0.216 OA
ENDBRANCH  22  23
ENDBRANCH  21  22
ENDBRANCH  14  21
ENDBRANCH   1  10
BRANCH   1  26
ATOM     25  C   UNL A   1     -24.726   2.264  30.166  0.00  0.00    +0.217 C 
ATOM     26  N   UNL A   1     -25.233   1.576  28.922  0.00  0.00    -0.248 NA
BRANCH  25  28
ATOM     27  O   UNL A   1     -25.172   3.579  32.398  0.00  0.00    -0.167 OA
ATOM     28  S   UNL A   1     -25.639   2.320  31.547  0.00  0.00    +0.027 S 
ATOM     29  O   UNL A   1     -27.029   2.208  31.257  0.00  0.00    -0.167 OA
BRANCH  28  31
ATOM     30  C   UNL A   1     -25.387  -0.679  31.571  0.00  0.00    +0.099 C 
ATOM     31  C   UNL A   1     -25.189   0.773  32.028  0.00  0.00    +0.153 C 
ATOM     32  C   UNL A   1     -25.336   0.684  33.544  0.00  0.00    +0.044 C 
ATOM     33  C   UNL A   1     -24.829  -0.715  33.905  0.00  0.00    +0.090 C 
ATOM     34  N   UNL A   1     -24.758  -1.481  32.646  0.00  0.00    -0.217 NA
BRANCH  30  35
ATOM     35  C   UNL A   1     -24.855  -1.012  30.143  0.00  0.00    +0.045 C 
BRANCH  35  36
ATOM     36  C   UNL A   1     -24.973  -2.505  29.788  0.00  0.00    -0.021 C 
ATOM     37  C   UNL A   1     -23.906  -3.173  29.146  0.00  0.00    -0.004 C 
ATOM     38  C   UNL A   1     -23.989  -4.549  28.853  0.00  0.00    -0.000 C 
ATOM     39  C   UNL A   1     -25.137  -5.280  29.205  0.00  0.00    -0.000 C 
ATOM     40  C   UNL A   1     -26.232  -4.611  29.784  0.00  0.00    -0.000 C 
ATOM     41  C   UNL A   1     -26.155  -3.232  30.065  0.00  0.00    -0.004 C 
ENDBRANCH  35  36
ENDBRANCH  30  35
ENDBRANCH  28  31
ENDBRANCH  25  28
ENDBRANCH   1  26
TORSDOF 11
