MODEL 33
MODEL 1
REMARK VINA RESULT:    -8.582      0.000      0.000
REMARK INTER + INTRA:         -10.536
REMARK INTER:                 -10.087
REMARK INTRA:                  -0.450
REMARK UNBOUND:                -0.450
REMARK  Name = No_33-gen_results/8p0m/2024-11-27-11-27-31/
REMARK  3 active torsions:
REMARK  status: ('A' for Active; 'I' for Inactive)
REMARK    1  A    between atoms: C_3  and  C_11
REMARK    2  A    between atoms: C_6  and  C_17
REMARK    3  A    between atoms: C_15  and  C_21
REMARK                            x       y       z     vdW  Elec       q    Type
REMARK                         _______ _______ _______ _____ _____    ______ ____
ROOT
ATOM      1  C   UNL A   1     -26.377   3.025  26.137  0.00  0.00    -0.000 A 
ATOM      2  C   UNL A   1     -26.521   1.918  25.673  0.00  0.00    -0.000 A 
ATOM      3  C   UNL A   1     -25.543   0.939  25.629  0.00  0.00    -0.000 A 
ATOM      4  C   UNL A   1     -25.662  -0.360  25.011  0.00  0.00    -0.000 A 
ATOM      5  C   UNL A   1     -26.884  -0.702  24.385  0.00  0.00    +0.004 A 
ATOM      6  C   UNL A   1     -27.907   0.307  24.387  0.00  0.00    +0.071 A 
ATOM      7  C   UNL A   1     -27.765   1.542  24.955  0.00  0.00    +0.004 A 
ATOM      8  C   UNL A   1     -27.539   3.953  26.215  0.00  0.00    -0.000 A 
ATOM      9  C   UNL A   1     -28.698   3.681  25.435  0.00  0.00    -0.000 A 
ATOM     10  C   UNL A   1     -28.840   2.451  24.836  0.00  0.00    -0.000 A 
ENDROOT
BRANCH   3  11
ATOM     11  C   UNL A   1     -24.188   1.141  26.211  0.00  0.00    +0.000 A 
ATOM     12  C   UNL A   1     -23.384   2.103  25.935  0.00  0.00    +0.000 A 
ATOM     13  C   UNL A   1     -22.188   2.225  26.634  0.00  0.00    +0.000 A 
ATOM     14  C   UNL A   1     -21.859   1.418  27.675  0.00  0.00    +0.005 A 
ATOM     15  C   UNL A   1     -22.747   0.430  28.011  0.00  0.00    +0.057 A 
ATOM     16  C   UNL A   1     -23.892   0.231  27.342  0.00  0.00    +0.005 A 
BRANCH  15  17
ATOM     17  C   UNL A   1     -22.348  -0.473  29.134  0.00  0.00    +0.265 C 
ATOM     18  O   UNL A   1     -21.438  -1.171  29.117  0.00  0.00    -0.267 OA
ATOM     19  N   UNL A   1     -23.054  -0.273  30.355  0.00  0.00    -0.272 N 
ATOM     20  C   UNL A   1     -23.027  -0.763  31.342  0.00  0.00    +0.083 A 
ATOM     21  C   UNL A   1     -23.711  -0.362  32.281  0.00  0.00    +0.021 A 
ATOM     22  C   UNL A   1     -24.522   0.704  31.853  0.00  0.00    +0.021 A 
ATOM     23  C   UNL A   1     -24.058   0.870  30.625  0.00  0.00    +0.083 A 
ENDBRANCH  15  17
ENDBRANCH   3  11
BRANCH   6  24
ATOM     24  C   UNL A   1     -29.159  -0.120  23.613  0.00  0.00    +0.419 C 
ATOM     25  F   UNL A   1     -29.560   0.788  22.875  0.00  0.00    -0.166 F 
ATOM     26  F   UNL A   1     -30.074  -0.430  24.559  0.00  0.00    -0.166 F 
ATOM     27  F   UNL A   1     -28.875  -1.254  22.927  0.00  0.00    -0.166 F 
ENDBRANCH   6  24
TORSDOF 3
ENDMDL
ENDMDL
