REMARK  Name = outputs/IAG933/test6/raw/output_34_IAG933_linker_design_.xyz
REMARK  14 active torsions:
REMARK  status: ('A' for Active; 'I' for Inactive)
REMARK    1  A    between atoms: C_1  and  C_2
REMARK    2  A    between atoms: C_1  and  C_8
REMARK    3  A    between atoms: C_1  and  C_36
REMARK    4  A    between atoms: C_13  and  C_33
REMARK    5  A    between atoms: C_14  and  C_15
REMARK    6  A    between atoms: C_21  and  O_22
REMARK    7  A    between atoms: O_22  and  C_23
REMARK    8  A    between atoms: C_23  and  C_24
REMARK    9  A    between atoms: C_29  and  C_42
REMARK   10  A    between atoms: N_30  and  C_36
REMARK   11  A    between atoms: C_35  and  C_38
REMARK   12  A    between atoms: C_35  and  C_43
REMARK   13  A    between atoms: C_36  and  C_39
REMARK   14  A    between atoms: C_42  and  C_43
REMARK                            x       y       z     vdW  Elec       q    Type
REMARK                         _______ _______ _______ _____ _____    ______ ____
ROOT
ATOM      1  C   UNL A   1     -25.431   0.204  29.388  0.00  0.00    +0.113 C 
ENDROOT
BRANCH   1   6
ATOM      2  O   UNL A   1     -22.499  -0.319  29.806  0.00  0.00    -0.284 OA
ATOM      3  C   UNL A   1     -24.431   1.363  27.262  0.00  0.00    +0.006 C 
ATOM      4  C   UNL A   1     -23.142   1.797  26.947  0.00  0.00    +0.086 C 
ATOM      5  C   UNL A   1     -22.884   0.387  28.820  0.00  0.00    +0.209 C 
ATOM      6  C   UNL A   1     -24.318   0.579  28.463  0.00  0.00    +0.112 C 
ATOM      7  S   UNL A   1     -21.786   1.334  27.881  0.00  0.00    -0.039 S 
ATOM      8 CL   UNL A   1     -22.669   2.750  25.542  0.00  0.00    -0.075 Cl
BRANCH   3   9
ATOM      9  C   UNL A   1     -25.688   1.614  26.461  0.00  0.00    +0.036 C 
ATOM     10  C   UNL A   1     -26.250   2.920  26.395  0.00  0.00    +0.076 C 
ATOM     11  C   UNL A   1     -27.438   3.091  25.645  0.00  0.00    +0.107 C 
ATOM     12  N   UNL A   1     -28.075   2.089  25.003  0.00  0.00    -0.208 NA
ATOM     13  C   UNL A   1     -27.543   0.849  25.079  0.00  0.00    +0.253 C 
ATOM     14  C   UNL A   1     -26.354   0.576  25.777  0.00  0.00    +0.193 C 
ATOM     15  F   UNL A   1     -25.860  -0.681  25.795  0.00  0.00    -0.199 F 
BRANCH  10  16
ATOM     16  C   UNL A   1     -25.642   4.093  27.123  0.00  0.00    +0.266 C 
ATOM     17  N   UNL A   1     -25.614   5.252  26.449  0.00  0.00    -0.200 NA
ATOM     18  C   UNL A   1     -25.026   6.479  26.963  0.00  0.00    +0.139 C 
ATOM     19  O   UNL A   1     -25.143   3.966  28.243  0.00  0.00    -0.268 OA
ENDBRANCH  10  16
BRANCH  13  20
ATOM     20  O   UNL A   1     -28.193  -0.208  24.477  0.00  0.00    -0.456 OA
BRANCH  20  21
ATOM     21  C   UNL A   1     -29.460   0.005  23.866  0.00  0.00    +0.243 C 
BRANCH  21  22
ATOM     22  C   UNL A   1     -30.065  -1.377  23.573  0.00  0.00    +0.229 C 
ATOM     23  O   UNL A   1     -30.729  -1.878  24.721  0.00  0.00    -0.216 OA
ENDBRANCH  21  22
ENDBRANCH  20  21
ENDBRANCH  13  20
ENDBRANCH   3   9
ENDBRANCH   1   6
BRANCH   1  24
ATOM     24  N   UNL A   1     -26.681   0.832  29.008  0.00  0.00    -0.206 NA
ATOM     25  O   UNL A   1     -28.262  -0.482  28.039  0.00  0.00    -0.273 OA
ATOM     26  C   UNL A   1     -27.885   0.365  28.902  0.00  0.00    +0.241 C 
BRANCH  26  27
ATOM     27  C   UNL A   1     -28.869   1.063  29.765  0.00  0.00    +0.087 C 
BRANCH  27  28
ATOM     28  C   UNL A   1     -30.250   0.383  29.808  0.00  0.00    +0.021 C 
BRANCH  28  29
ATOM     29  C   UNL A   1     -30.822  -0.822  29.598  0.00  0.00    +0.115 C 
BRANCH  29  30
ATOM     30  C   UNL A   1     -30.770  -2.192  30.104  0.00  0.00    +0.365 C 
ATOM     31  O   UNL A   1     -29.772  -2.912  29.901  0.00  0.00    -0.246 OA
ATOM     32  O   UNL A   1     -31.781  -2.582  30.704  0.00  0.00    -0.246 OA
ENDBRANCH  29  30
ENDBRANCH  28  29
ENDBRANCH  27  28
ENDBRANCH  26  27
ENDBRANCH   1  24
BRANCH   1  33
ATOM     33  C   UNL A   1     -24.855  -1.012  30.143  0.00  0.00    +0.059 C 
BRANCH  33  34
ATOM     34  C   UNL A   1     -24.973  -2.505  29.788  0.00  0.00    -0.019 C 
ATOM     35  C   UNL A   1     -23.906  -3.173  29.146  0.00  0.00    -0.004 C 
ATOM     36  C   UNL A   1     -23.989  -4.549  28.853  0.00  0.00    -0.000 C 
ATOM     37  C   UNL A   1     -25.137  -5.280  29.205  0.00  0.00    -0.000 C 
ATOM     38  C   UNL A   1     -26.232  -4.611  29.784  0.00  0.00    -0.000 C 
ATOM     39  C   UNL A   1     -26.155  -3.232  30.065  0.00  0.00    -0.004 C 
ENDBRANCH  33  34
BRANCH  33  40
ATOM     40  C   UNL A   1     -25.387  -0.679  31.571  0.00  0.00    +0.079 C 
ATOM     41  C   UNL A   1     -25.189   0.773  32.028  0.00  0.00    +0.019 C 
ATOM     42  C   UNL A   1     -25.336   0.684  33.544  0.00  0.00    +0.020 C 
ATOM     43  C   UNL A   1     -24.829  -0.715  33.905  0.00  0.00    +0.089 C 
ATOM     44  N   UNL A   1     -24.758  -1.481  32.646  0.00  0.00    -0.219 NA
ENDBRANCH  33  40
ENDBRANCH   1  33
TORSDOF 14
