REMARK  Name = No_340-gen_results/8p0m/2024-11-27-11-27-31/
REMARK  1 active torsions:
REMARK  status: ('A' for Active; 'I' for Inactive)
REMARK    1  A    between atoms: C_6  and  C_12
REMARK                            x       y       z     vdW  Elec       q    Type
REMARK                         _______ _______ _______ _____ _____    ______ ____
ROOT
ATOM      1  F   UNL A   1     -28.073  -1.254  28.532  0.00  0.00    -0.201 F 
ATOM      2  C   UNL A   1     -27.359  -0.379  28.722  0.00  0.00    +0.180 A 
ATOM      3  C   UNL A   1     -26.810   0.189  27.651  0.00  0.00    +0.198 A 
ATOM      4  C   UNL A   1     -25.602   0.953  27.683  0.00  0.00    +0.197 A 
ATOM      5  C   UNL A   1     -25.037   1.233  29.000  0.00  0.00    +0.174 A 
ATOM      6  C   UNL A   1     -25.616   0.586  30.087  0.00  0.00    +0.114 A 
ATOM      7  C   UNL A   1     -26.606  -0.230  29.962  0.00  0.00    +0.093 A 
ATOM      8  F   UNL A   1     -24.046   2.050  29.072  0.00  0.00    -0.202 F 
ATOM      9  F   UNL A   1     -27.244   0.009  26.427  0.00  0.00    -0.199 F 
ATOM     10  F   UNL A   1     -25.075   1.605  26.678  0.00  0.00    -0.199 F 
ATOM     11 CL   UNL A   1     -27.274  -1.013  31.404  0.00  0.00    -0.080 Cl
ENDROOT
BRANCH   6  12
ATOM     12  C   UNL A   1     -24.926   0.920  31.440  0.00  0.00    +0.422 C 
ATOM     13  F   UNL A   1     -24.798   1.871  31.969  0.00  0.00    -0.166 F 
ATOM     14  F   UNL A   1     -23.585   0.371  31.361  0.00  0.00    -0.166 F 
ATOM     15  F   UNL A   1     -25.532   0.200  32.424  0.00  0.00    -0.166 F 
ENDBRANCH   6  12
TORSDOF 1
