MODEL 3400
MODEL 1
REMARK VINA RESULT:    -7.699      0.000      0.000
REMARK INTER + INTRA:         -11.026
REMARK INTER:                  -9.950
REMARK INTRA:                  -1.077
REMARK UNBOUND:                -1.077
REMARK  Name = No_3400-gen_results/8p0m/2024-11-27-11-27-31/
REMARK  5 active torsions:
REMARK  status: ('A' for Active; 'I' for Inactive)
REMARK    1  A    between atoms: C_1  and  C_17
REMARK    2  A    between atoms: C_3  and  C_7
REMARK    3  A    between atoms: C_9  and  C_13
REMARK    4  A    between atoms: C_17  and  N_18
REMARK    5  A    between atoms: N_18  and  C_19
REMARK                            x       y       z     vdW  Elec       q    Type
REMARK                         _______ _______ _______ _____ _____    ______ ____
ROOT
ATOM      1  C   UNL A   1     -24.876   0.346  27.729  0.00  0.00    -0.002 A 
ATOM      2  C   UNL A   1     -25.809   0.023  27.031  0.00  0.00    -0.003 A 
ATOM      3  C   UNL A   1     -25.988   0.405  25.713  0.00  0.00    +0.001 A 
ATOM      4  C   UNL A   1     -24.972   1.218  25.129  0.00  0.00    +0.011 A 
ATOM      5  C   UNL A   1     -23.873   1.429  25.872  0.00  0.00    +0.057 A 
ATOM      6  C   UNL A   1     -23.773   0.992  27.094  0.00  0.00    +0.009 A 
ATOM      7 CL   UNL A   1     -22.622   2.349  25.139  0.00  0.00    -0.082 Cl
ENDROOT
BRANCH   3   8
ATOM      8  C   UNL A   1     -27.237   0.092  24.930  0.00  0.00    -0.000 A 
ATOM      9  C   UNL A   1     -28.024   1.164  24.732  0.00  0.00    -0.003 A 
ATOM     10  C   UNL A   1     -29.326   0.987  24.062  0.00  0.00    -0.012 A 
ATOM     11  C   UNL A   1     -29.503  -0.168  23.319  0.00  0.00    -0.003 A 
ATOM     12  C   UNL A   1     -27.536  -1.060  24.253  0.00  0.00    -0.000 A 
ATOM     13  C   UNL A   1     -28.747  -1.268  23.562  0.00  0.00    -0.000 A 
BRANCH  10  14
ATOM     14  C   UNL A   1     -30.203   2.173  23.871  0.00  0.00    +0.079 C 
ATOM     15 BR   UNL A   1     -30.468   3.457  25.135  0.00  0.00    -0.077 Br
ATOM     16  C   UNL A   1     -30.904   2.383  22.602  0.00  0.00    +0.017 C 
ENDBRANCH  10  14
ENDBRANCH   3   8
BRANCH   1  17
ATOM     17  C   UNL A   1     -24.724  -0.138  29.147  0.00  0.00    +0.118 C 
BRANCH  17  18
ATOM     18  N   UNL A   1     -23.958  -1.246  29.304  0.00  0.00    -0.302 N 
ATOM     19  C   UNL A   1     -22.603  -1.116  29.374  0.00  0.00    +0.113 C 
BRANCH  18  20
ATOM     20  C   UNL A   1     -24.489  -2.468  29.388  0.00  0.00    +0.048 A 
ATOM     21  C   UNL A   1     -25.827  -2.592  29.956  0.00  0.00    +0.015 A 
ATOM     22  C   UNL A   1     -26.390  -3.873  29.886  0.00  0.00    +0.001 A 
ATOM     23  C   UNL A   1     -25.683  -4.905  29.254  0.00  0.00    +0.000 A 
ATOM     24  C   UNL A   1     -24.399  -4.756  28.703  0.00  0.00    +0.001 A 
ATOM     25  C   UNL A   1     -23.858  -3.528  28.782  0.00  0.00    +0.015 A 
ENDBRANCH  18  20
ENDBRANCH  17  18
ENDBRANCH   1  17
TORSDOF 5
ENDMDL
ENDMDL
