REMARK  Name = No_3400-gen_results/8p0m/2024-11-27-11-27-31/
REMARK  5 active torsions:
REMARK  status: ('A' for Active; 'I' for Inactive)
REMARK    1  A    between atoms: C_1  and  C_17
REMARK    2  A    between atoms: C_3  and  C_7
REMARK    3  A    between atoms: C_9  and  C_13
REMARK    4  A    between atoms: C_17  and  N_18
REMARK    5  A    between atoms: N_18  and  C_19
REMARK                            x       y       z     vdW  Elec       q    Type
REMARK                         _______ _______ _______ _____ _____    ______ ____
ROOT
ATOM      1  C   UNL A   1     -28.016  -0.814  28.878  0.00  0.00    -0.002 A 
ATOM      2  C   UNL A   1     -27.064  -0.119  28.608  0.00  0.00    -0.003 A 
ATOM      3  C   UNL A   1     -26.972   0.714  27.506  0.00  0.00    +0.001 A 
ATOM      4  C   UNL A   1     -28.105   0.774  26.642  0.00  0.00    +0.011 A 
ATOM      5  C   UNL A   1     -29.204   0.118  27.048  0.00  0.00    +0.057 A 
ATOM      6  C   UNL A   1     -29.213  -0.609  28.128  0.00  0.00    +0.009 A 
ATOM      7 CL   UNL A   1     -30.588   0.251  26.041  0.00  0.00    -0.082 Cl
ENDROOT
BRANCH   3   8
ATOM      8  C   UNL A   1     -25.711   1.452  27.138  0.00  0.00    -0.000 A 
ATOM      9  C   UNL A   1     -24.605   0.925  27.690  0.00  0.00    -0.003 A 
ATOM     10  C   UNL A   1     -23.309   1.602  27.492  0.00  0.00    -0.012 A 
ATOM     11  C   UNL A   1     -23.217   2.496  26.439  0.00  0.00    -0.003 A 
ATOM     12  C   UNL A   1     -25.555   2.421  26.183  0.00  0.00    -0.000 A 
ATOM     13  C   UNL A   1     -24.332   3.072  25.924  0.00  0.00    -0.000 A 
BRANCH  10  14
ATOM     14  C   UNL A   1     -22.094   1.027  28.129  0.00  0.00    +0.079 C 
ATOM     15 BR   UNL A   1     -22.120  -0.372  29.294  0.00  0.00    -0.077 Br
ATOM     16  C   UNL A   1     -20.767   1.567  27.821  0.00  0.00    +0.017 C 
ENDBRANCH  10  14
ENDBRANCH   3   8
BRANCH   1  17
ATOM     17  C   UNL A   1     -28.065  -1.669  30.117  0.00  0.00    +0.118 C 
BRANCH  17  18
ATOM     18  N   UNL A   1     -27.380  -2.837  30.044  0.00  0.00    -0.302 N 
ATOM     19  C   UNL A   1     -28.039  -4.011  30.258  0.00  0.00    +0.113 C 
BRANCH  18  20
ATOM     20  C   UNL A   1     -26.074  -2.877  29.772  0.00  0.00    +0.048 A 
ATOM     21  C   UNL A   1     -25.493  -4.166  29.412  0.00  0.00    +0.015 A 
ATOM     22  C   UNL A   1     -24.155  -4.124  28.997  0.00  0.00    +0.001 A 
ATOM     23  C   UNL A   1     -23.498  -2.889  28.907  0.00  0.00    +0.000 A 
ATOM     24  C   UNL A   1     -24.086  -1.659  29.249  0.00  0.00    +0.001 A 
ATOM     25  C   UNL A   1     -25.366  -1.705  29.657  0.00  0.00    +0.015 A 
ENDBRANCH  18  20
ENDBRANCH  17  18
ENDBRANCH   1  17
TORSDOF 5
