MODEL 3401
MODEL 1
REMARK VINA RESULT:    -7.509      0.000      0.000
REMARK INTER + INTRA:          -9.837
REMARK INTER:                  -9.265
REMARK INTRA:                  -0.572
REMARK UNBOUND:                -0.572
REMARK  Name = No_3401-gen_results/8p0m/2024-11-27-11-27-31/
REMARK  4 active torsions:
REMARK  status: ('A' for Active; 'I' for Inactive)
REMARK    1  A    between atoms: C_1  and  C_2
REMARK    2  A    between atoms: C_1  and  C_8
REMARK    3  A    between atoms: C_6  and  C_15
REMARK    4  A    between atoms: C_8  and  C_9
REMARK                            x       y       z     vdW  Elec       q    Type
REMARK                         _______ _______ _______ _____ _____    ______ ____
ROOT
ATOM      1  C   UNL A   1     -22.829  -0.403  29.042  0.00  0.00    -0.022 A 
ATOM      2  C   UNL A   1     -21.450  -0.453  28.969  0.00  0.00    -0.004 A 
ATOM      3  C   UNL A   1     -20.732   0.531  28.293  0.00  0.00    -0.000 A 
ATOM      4  C   UNL A   1     -21.382   1.517  27.443  0.00  0.00    -0.000 A 
ATOM      5  C   UNL A   1     -22.785   1.516  27.478  0.00  0.00    -0.001 A 
ATOM      6  C   UNL A   1     -23.429   0.639  28.297  0.00  0.00    -0.004 A 
ENDROOT
BRANCH   5   7
ATOM      7  C   UNL A   1     -23.439   2.594  26.674  0.00  0.00    -0.005 C 
ATOM      8  C   UNL A   1     -24.340   2.365  25.695  0.00  0.00    -0.026 C 
ATOM      9  C   UNL A   1     -24.565   0.973  25.318  0.00  0.00    +0.031 C 
ENDBRANCH   5   7
BRANCH   1  10
ATOM     10  C   UNL A   1     -23.470  -0.891  29.943  0.00  0.00    +0.031 C 
BRANCH  10  11
ATOM     11  C   UNL A   1     -24.749  -1.518  29.430  0.00  0.00    +0.031 C 
BRANCH  11  12
ATOM     12  C   UNL A   1     -24.835  -2.685  29.317  0.00  0.00    -0.022 A 
ATOM     13  C   UNL A   1     -26.065  -3.437  29.849  0.00  0.00    -0.004 A 
ATOM     14  C   UNL A   1     -26.215  -4.852  29.712  0.00  0.00    -0.000 A 
ATOM     15  C   UNL A   1     -25.141  -5.547  29.043  0.00  0.00    -0.000 A 
ATOM     16  C   UNL A   1     -24.062  -4.856  28.485  0.00  0.00    -0.000 A 
ATOM     17  C   UNL A   1     -23.963  -3.533  28.580  0.00  0.00    -0.004 A 
ENDBRANCH  11  12
ENDBRANCH  10  11
ENDBRANCH   1  10
TORSDOF 4
ENDMDL
ENDMDL
