REMARK  Name = outputs/IAG933/test6/raw/output_3401_IAG933_linker_design_.xyz
REMARK  16 active torsions:
REMARK  status: ('A' for Active; 'I' for Inactive)
REMARK    1  A    between atoms: C_1  and  C_2
REMARK    2  A    between atoms: C_1  and  C_8
REMARK    3  A    between atoms: C_1  and  C_28
REMARK    4  A    between atoms: C_13  and  C_35
REMARK    5  A    between atoms: C_14  and  C_15
REMARK    6  A    between atoms: C_21  and  O_22
REMARK    7  A    between atoms: O_22  and  C_23
REMARK    8  A    between atoms: C_23  and  C_24
REMARK    9  A    between atoms: C_28  and  N_40
REMARK   10  A    between atoms: C_28  and  C_42
REMARK   11  A    between atoms: O_29  and  C_38
REMARK   12  A    between atoms: O_29  and  C_42
REMARK   13  A    between atoms: C_30  and  C_38
REMARK   14  A    between atoms: C_30  and  C_41
REMARK   15  A    between atoms: C_33  and  C_37
REMARK   16  A    between atoms: C_35  and  N_40
REMARK                            x       y       z     vdW  Elec       q    Type
REMARK                         _______ _______ _______ _____ _____    ______ ____
ROOT
ATOM      1  C   UNK     1     -25.751  -0.362  29.073  0.00  0.00    +0.127 C 
ENDROOT
BRANCH   1   2
ATOM      2  C   UNK     1     -27.263  -0.788  28.620  0.00  0.00    +0.164 C 
BRANCH   2   3
ATOM      3  O   UNK     1     -28.266  -0.920  29.650  0.00  0.00    -0.350 OA
BRANCH   3   4
ATOM      4  C   UNK     1     -29.100   0.234  29.849  0.00  0.00    +0.173 C 
BRANCH   4   5
ATOM      5  C   UNK     1     -29.918   0.690  28.634  0.00  0.00    +0.224 C 
ATOM      6  N   UNK     1     -30.808   1.839  28.793  0.00  0.00    -0.118 NA
BRANCH   5   9
ATOM      7  O   UNK     1     -30.676  -1.579  28.537  0.00  0.00    -0.244 OA
ATOM      8  O   UNK     1     -31.386  -0.142  27.015  0.00  0.00    -0.244 OA
ATOM      9  C   UNK     1     -30.686  -0.423  27.982  0.00  0.00    +0.384 C 
ENDBRANCH   5   9
ENDBRANCH   4   5
ENDBRANCH   3   4
ENDBRANCH   2   3
ENDBRANCH   1   2
BRANCH   1  10
ATOM     10  C   UNK     1     -24.855  -1.012  30.143  0.00  0.00    +0.061 C 
BRANCH  10  11
ATOM     11  C   UNK     1     -24.973  -2.505  29.788  0.00  0.00    -0.019 C 
ATOM     12  C   UNK     1     -23.906  -3.173  29.146  0.00  0.00    -0.004 C 
ATOM     13  C   UNK     1     -23.989  -4.549  28.853  0.00  0.00    -0.000 C 
ATOM     14  C   UNK     1     -25.137  -5.280  29.205  0.00  0.00    -0.000 C 
ATOM     15  C   UNK     1     -26.232  -4.611  29.784  0.00  0.00    -0.000 C 
ATOM     16  C   UNK     1     -26.155  -3.232  30.065  0.00  0.00    -0.004 C 
ENDBRANCH  10  11
BRANCH  10  17
ATOM     17  C   UNK     1     -25.387  -0.679  31.571  0.00  0.00    +0.079 C 
ATOM     18  C   UNK     1     -25.189   0.773  32.028  0.00  0.00    +0.019 C 
ATOM     19  C   UNK     1     -25.336   0.684  33.544  0.00  0.00    +0.020 C 
ATOM     20  C   UNK     1     -24.829  -0.715  33.905  0.00  0.00    +0.089 C 
ATOM     21  N   UNK     1     -24.758  -1.481  32.646  0.00  0.00    -0.219 NA
ENDBRANCH  10  17
ENDBRANCH   1  10
BRANCH   1  22
ATOM     22  N   UNK     1     -25.300   0.816  28.602  0.00  0.00    -0.241 NA
BRANCH  22  23
ATOM     23  C   UNK     1     -24.708   1.336  27.499  0.00  0.00    +0.047 C 
ATOM     24  C   UNK     1     -23.304   1.544  27.159  0.00  0.00    +0.005 C 
BRANCH  23  25
ATOM     25  C   UNK     1     -25.688   1.614  26.461  0.00  0.00    +0.107 C 
ATOM     26  C   UNK     1     -26.250   2.920  26.395  0.00  0.00    +0.060 C 
ATOM     27  C   UNK     1     -27.438   3.091  25.645  0.00  0.00    +0.102 C 
ATOM     28  N   UNK     1     -28.075   2.089  25.003  0.00  0.00    -0.212 NA
ATOM     29  C   UNK     1     -27.543   0.849  25.079  0.00  0.00    +0.234 C 
ATOM     30  C   UNK     1     -26.354   0.576  25.777  0.00  0.00    +0.245 C 
ATOM     31  F   UNK     1     -25.860  -0.681  25.795  0.00  0.00    -0.227 F 
BRANCH  26  32
ATOM     32  C   UNK     1     -25.642   4.093  27.123  0.00  0.00    +0.263 C 
ATOM     33  N   UNK     1     -25.614   5.252  26.449  0.00  0.00    -0.200 NA
ATOM     34  C   UNK     1     -25.026   6.479  26.963  0.00  0.00    +0.139 C 
ATOM     35  O   UNK     1     -25.143   3.966  28.243  0.00  0.00    -0.269 OA
ENDBRANCH  26  32
BRANCH  29  36
ATOM     36  O   UNK     1     -28.193  -0.208  24.477  0.00  0.00    -0.459 OA
BRANCH  36  37
ATOM     37  C   UNK     1     -29.460   0.005  23.866  0.00  0.00    +0.242 C 
BRANCH  37  38
ATOM     38  C   UNK     1     -30.065  -1.377  23.573  0.00  0.00    +0.229 C 
ATOM     39  O   UNK     1     -30.729  -1.878  24.721  0.00  0.00    -0.216 OA
ENDBRANCH  37  38
ENDBRANCH  36  37
ENDBRANCH  29  36
ENDBRANCH  23  25
BRANCH  24  41
ATOM     40  C   UNK     1     -20.877   1.502  27.651  0.00  0.00    +0.025 C 
ATOM     41  C   UNK     1     -22.285   1.173  28.208  0.00  0.00    +0.115 C 
ATOM     42  N   UNK     1     -22.271  -0.135  28.892  0.00  0.00    -0.128 NA
ENDBRANCH  24  41
ENDBRANCH  22  23
ENDBRANCH   1  22
TORSDOF 16
