MODEL 3402
MODEL 1
REMARK VINA RESULT:    -4.448      0.000      0.000
REMARK INTER + INTRA:          -4.448
REMARK INTER:                  -4.448
REMARK INTRA:                   0.000
REMARK UNBOUND:                 0.000
REMARK  Name = No_3402-gen_results/8p0m/2024-11-27-11-27-31/
REMARK  0 active torsions:
REMARK  status: ('A' for Active; 'I' for Inactive)
REMARK                            x       y       z     vdW  Elec       q    Type
REMARK                         _______ _______ _______ _____ _____    ______ ____
ROOT
ATOM      1  C   UNL A   1     -24.014  -4.154  28.758  0.00  0.00    +0.011 A 
ATOM      2  C   UNL A   1     -24.280  -3.038  29.138  0.00  0.00    +0.058 A 
ATOM      3  C   UNL A   1     -25.380  -2.625  29.699  0.00  0.00    +0.011 A 
ATOM      4  C   UNL A   1     -26.430  -3.573  29.896  0.00  0.00    +0.001 A 
ATOM      5  C   UNL A   1     -24.986  -5.197  29.028  0.00  0.00    +0.001 A 
ATOM      6  C   UNL A   1     -26.149  -4.856  29.583  0.00  0.00    +0.000 A 
ATOM      7 CL   UNL A   1     -23.072  -1.755  28.943  0.00  0.00    -0.082 Cl
ENDROOT
TORSDOF 0
ENDMDL
ENDMDL
