MODEL 3403
MODEL 1
REMARK VINA RESULT:    -6.307      0.000      0.000
REMARK INTER + INTRA:          -8.382
REMARK INTER:                  -7.782
REMARK INTRA:                  -0.600
REMARK UNBOUND:                -0.600
REMARK  Name = No_3403-gen_results/8p0m/2024-11-27-11-27-31/
REMARK  4 active torsions:
REMARK  status: ('A' for Active; 'I' for Inactive)
REMARK    1  A    between atoms: C_2  and  C_7
REMARK    2  A    between atoms: C_5  and  O_14
REMARK    3  A    between atoms: C_7  and  C_8
REMARK    4  A    between atoms: O_14  and  C_15
REMARK                            x       y       z     vdW  Elec       q    Type
REMARK                         _______ _______ _______ _____ _____    ______ ____
ROOT
ATOM      1  C   UNL A   1     -23.507  -1.092  28.584  0.00  0.00    +0.034 A 
ATOM      2  C   UNL A   1     -22.776  -0.280  29.102  0.00  0.00    -0.015 A 
ATOM      3  C   UNL A   1     -22.635  -0.135  30.445  0.00  0.00    -0.004 A 
ATOM      4  C   UNL A   1     -23.380  -0.978  31.290  0.00  0.00    +0.003 A 
ATOM      5  C   UNL A   1     -24.226  -2.050  29.386  0.00  0.00    +0.146 A 
ATOM      6  C   UNL A   1     -24.140  -1.927  30.741  0.00  0.00    +0.037 A 
ENDROOT
BRANCH   2   7
ATOM      7  C   UNL A   1     -21.916   0.677  28.294  0.00  0.00    +0.053 C 
BRANCH   7   8
ATOM      8  C   UNL A   1     -22.707   1.660  27.483  0.00  0.00    -0.018 A 
ATOM      9  C   UNL A   1     -23.824   2.317  27.959  0.00  0.00    -0.004 A 
ATOM     10  C   UNL A   1     -24.550   3.177  27.096  0.00  0.00    -0.000 A 
ATOM     11  C   UNL A   1     -22.273   1.899  26.152  0.00  0.00    -0.004 A 
ATOM     12  C   UNL A   1     -23.082   2.698  25.318  0.00  0.00    -0.000 A 
ATOM     13  C   UNL A   1     -24.178   3.377  25.832  0.00  0.00    -0.000 A 
ENDBRANCH   7   8
ENDBRANCH   2   7
BRANCH   5  14
ATOM     14  O   UNL A   1     -24.970  -2.999  28.769  0.00  0.00    -0.439 OA
BRANCH  14  15
ATOM     15  C   UNL A   1     -25.263  -4.042  29.372  0.00  0.00    +0.264 C 
ATOM     16  C   UNL A   1     -24.611  -5.258  28.906  0.00  0.00    +0.175 C 
ATOM     17  O   UNL A   1     -23.835  -5.199  28.124  0.00  0.00    -0.228 OA
ENDBRANCH  14  15
ENDBRANCH   5  14
TORSDOF 4
ENDMDL
ENDMDL
