MODEL 3404
MODEL 1
REMARK VINA RESULT:    -6.632      0.000      0.000
REMARK INTER + INTRA:          -8.323
REMARK INTER:                  -7.795
REMARK INTRA:                  -0.528
REMARK UNBOUND:                -0.528
REMARK  Name = No_3404-gen_results/8p0m/2024-11-27-11-27-31/
REMARK  3 active torsions:
REMARK  status: ('A' for Active; 'I' for Inactive)
REMARK    1  A    between atoms: C_2  and  C_16
REMARK    2  A    between atoms: C_4  and  C_7
REMARK    3  A    between atoms: C_7  and  C_8
REMARK                            x       y       z     vdW  Elec       q    Type
REMARK                         _______ _______ _______ _____ _____    ______ ____
ROOT
ATOM      1  C   UNL A   1     -26.057  -2.222  29.911  0.00  0.00    +0.036 A 
ATOM      2  C   UNL A   1     -25.534  -3.110  29.692  0.00  0.00    +0.082 A 
ATOM      3  C   UNL A   1     -25.302  -0.965  29.789  0.00  0.00    +0.136 A 
ATOM      4  C   UNL A   1     -23.977  -0.964  29.263  0.00  0.00    +0.005 A 
ATOM      5  C   UNL A   1     -23.447  -2.194  28.964  0.00  0.00    -0.002 A 
ATOM      6  C   UNL A   1     -24.177  -3.319  29.119  0.00  0.00    +0.006 A 
ATOM      7  F   UNL A   1     -25.829   0.222  30.113  0.00  0.00    -0.204 F 
ENDROOT
BRANCH   2   8
ATOM      8  C   UNL A   1     -26.339  -4.494  29.824  0.00  0.00    +0.388 C 
ATOM      9  O   UNL A   1     -27.617  -4.523  29.678  0.00  0.00    -0.241 OA
ATOM     10  O   UNL A   1     -25.664  -5.526  29.610  0.00  0.00    -0.241 OA
ENDBRANCH   2   8
BRANCH   4  11
ATOM     11  C   UNL A   1     -23.229   0.258  29.119  0.00  0.00    +0.029 C 
BRANCH  11  12
ATOM     12  C   UNL A   1     -23.007   0.678  27.791  0.00  0.00    +0.012 C 
ATOM     13  C   UNL A   1     -22.520   1.811  27.360  0.00  0.00    +0.001 C 
ATOM     14  C   UNL A   1     -22.583   2.230  26.009  0.00  0.00    +0.008 C 
ATOM     15  C   UNL A   1     -23.807   1.928  25.529  0.00  0.00    +0.065 C 
ATOM     16  C   UNL A   1     -24.348   0.479  26.894  0.00  0.00    +0.065 C 
ATOM     17  C   UNL A   1     -24.415   0.860  25.727  0.00  0.00    +0.151 C 
ATOM     18  O   UNL A   1     -25.476   0.520  24.939  0.00  0.00    -0.296 OA
ENDBRANCH  11  12
ENDBRANCH   4  11
TORSDOF 3
ENDMDL
ENDMDL
