REMARK  Name = outputs/IAG933/test6/raw/output_3404_IAG933_linker_design_.xyz
REMARK  10 active torsions:
REMARK  status: ('A' for Active; 'I' for Inactive)
REMARK    1  A    between atoms: C_1  and  C_2
REMARK    2  A    between atoms: C_1  and  C_8
REMARK    3  A    between atoms: C_1  and  N_39
REMARK    4  A    between atoms: C_13  and  N_40
REMARK    5  A    between atoms: C_14  and  C_15
REMARK    6  A    between atoms: C_15  and  O_18
REMARK    7  A    between atoms: O_18  and  C_32
REMARK    8  A    between atoms: C_21  and  O_22
REMARK    9  A    between atoms: O_22  and  C_23
REMARK   10  A    between atoms: C_23  and  C_24
REMARK                            x       y       z     vdW  Elec       q    Type
REMARK                         _______ _______ _______ _____ _____    ______ ____
ROOT
ATOM      1  O   UNL A   1     -20.255   0.727  27.993  0.00  0.00    -0.218 OA
ATOM      2  F   UNL A   1     -22.349  -0.037  30.149  0.00  0.00    -0.214 F 
ATOM      3  C   UNL A   1     -21.346   1.326  27.320  0.00  0.00    +0.175 C 
ATOM      4  C   UNL A   1     -22.534   0.995  27.950  0.00  0.00    +0.043 C 
ATOM      5  C   UNL A   1     -22.880   2.437  26.128  0.00  0.00    +0.044 C 
ATOM      6  C   UNL A   1     -22.930   0.196  29.147  0.00  0.00    +0.246 C 
ATOM      7  C   UNL A   1     -23.456   1.602  27.062  0.00  0.00    +0.028 C 
ATOM      8  C   UNL A   1     -25.007   0.023  28.007  0.00  0.00    +0.175 C 
ATOM      9  N   UNL A   1     -24.184  -0.293  29.122  0.00  0.00    -0.221 NA
ATOM     10  N   UNL A   1     -24.699   1.145  27.228  0.00  0.00    -0.274 N 
ATOM     11  C   UNL A   1     -21.537   2.180  26.188  0.00  0.00    +0.043 C 
ENDROOT
BRANCH  10  12
ATOM     12  C   UNL A   1     -25.688   1.614  26.461  0.00  0.00    +0.091 C 
ATOM     13  C   UNL A   1     -26.250   2.920  26.395  0.00  0.00    +0.089 C 
ATOM     14  C   UNL A   1     -27.438   3.091  25.645  0.00  0.00    +0.108 C 
ATOM     15  N   UNL A   1     -28.075   2.089  25.003  0.00  0.00    -0.208 NA
ATOM     16  C   UNL A   1     -27.543   0.849  25.079  0.00  0.00    +0.255 C 
ATOM     17  C   UNL A   1     -26.354   0.576  25.777  0.00  0.00    +0.207 C 
ATOM     18  F   UNL A   1     -25.860  -0.681  25.795  0.00  0.00    -0.198 F 
BRANCH  13  19
ATOM     19  C   UNL A   1     -25.642   4.093  27.123  0.00  0.00    +0.235 C 
ATOM     20  N   UNL A   1     -25.614   5.252  26.449  0.00  0.00    -0.235 NA
ATOM     21  C   UNL A   1     -25.026   6.479  26.963  0.00  0.00    +0.155 C 
BRANCH  19  22
ATOM     22  O   UNL A   1     -25.143   3.966  28.243  0.00  0.00    -0.373 OA
BRANCH  22  24
ATOM     23  O   UNL A   1     -26.110   3.109  29.981  0.00  0.00    -0.200 OA
ATOM     24  C   UNL A   1     -25.181   2.882  29.458  0.00  0.00    +0.558 C 
ATOM     25  O   UNL A   1     -24.243   2.217  29.761  0.00  0.00    -0.200 OA
ENDBRANCH  22  24
ENDBRANCH  19  22
ENDBRANCH  13  19
BRANCH  16  26
ATOM     26  O   UNL A   1     -28.193  -0.208  24.477  0.00  0.00    -0.456 OA
BRANCH  26  27
ATOM     27  C   UNL A   1     -29.460   0.005  23.866  0.00  0.00    +0.243 C 
BRANCH  27  28
ATOM     28  C   UNL A   1     -30.065  -1.377  23.573  0.00  0.00    +0.229 C 
ATOM     29  O   UNL A   1     -30.729  -1.878  24.721  0.00  0.00    -0.216 OA
ENDBRANCH  27  28
ENDBRANCH  26  27
ENDBRANCH  16  26
ENDBRANCH  10  12
BRANCH   9  30
ATOM     30  C   UNL A   1     -24.855  -1.012  30.143  0.00  0.00    +0.100 C 
BRANCH  30  31
ATOM     31  C   UNL A   1     -24.973  -2.505  29.788  0.00  0.00    -0.006 C 
ATOM     32  C   UNL A   1     -23.906  -3.173  29.146  0.00  0.00    -0.003 C 
ATOM     33  C   UNL A   1     -23.989  -4.549  28.853  0.00  0.00    -0.000 C 
ATOM     34  C   UNL A   1     -25.137  -5.280  29.205  0.00  0.00    -0.000 C 
ATOM     35  C   UNL A   1     -26.232  -4.611  29.784  0.00  0.00    -0.000 C 
ATOM     36  C   UNL A   1     -26.155  -3.232  30.065  0.00  0.00    -0.003 C 
ENDBRANCH  30  31
BRANCH  30  37
ATOM     37  C   UNL A   1     -25.387  -0.679  31.571  0.00  0.00    +0.092 C 
ATOM     38  C   UNL A   1     -25.189   0.773  32.028  0.00  0.00    +0.021 C 
ATOM     39  C   UNL A   1     -25.336   0.684  33.544  0.00  0.00    +0.020 C 
ATOM     40  C   UNL A   1     -24.829  -0.715  33.905  0.00  0.00    +0.089 C 
ATOM     41  N   UNL A   1     -24.758  -1.481  32.646  0.00  0.00    -0.218 NA
ENDBRANCH  30  37
ENDBRANCH   9  30
TORSDOF 10
