MODEL 3405
MODEL 1
REMARK VINA RESULT:    -7.148      0.000      0.000
REMARK INTER + INTRA:         -10.484
REMARK INTER:                  -9.237
REMARK INTRA:                  -1.246
REMARK UNBOUND:                -1.246
REMARK  Name = No_3405-gen_results/8p0m/2024-11-27-11-27-31/
REMARK  5 active torsions:
REMARK  status: ('A' for Active; 'I' for Inactive)
REMARK    1  A    between atoms: C_2  and  C_19
REMARK    2  A    between atoms: C_3  and  C_7
REMARK    3  A    between atoms: C_7  and  C_8
REMARK    4  A    between atoms: C_8  and  C_9
REMARK    5  A    between atoms: C_13  and  C_16
REMARK                            x       y       z     vdW  Elec       q    Type
REMARK                         _______ _______ _______ _____ _____    ______ ____
ROOT
ATOM      1  C   UNL A   1     -10.119   0.193  37.032  0.00  0.00    +0.027 C 
ATOM      2  C   UNL A   1      -8.999  -0.230  36.338  0.00  0.00    +0.005 C 
ENDROOT
BRANCH   1   3
ATOM      3  C   UNL A   1     -10.829  -0.704  37.935  0.00  0.00    -0.022 A 
ATOM      4  C   UNL A   1     -11.356  -1.858  37.450  0.00  0.00    -0.004 A 
ATOM      5  C   UNL A   1     -12.065  -2.782  38.263  0.00  0.00    -0.000 A 
ATOM      6  C   UNL A   1     -12.362  -2.388  39.639  0.00  0.00    +0.007 A 
ATOM      7  C   UNL A   1     -11.872  -1.197  40.076  0.00  0.00    +0.080 A 
ATOM      8  C   UNL A   1     -11.135  -0.350  39.278  0.00  0.00    +0.002 A 
BRANCH   7   9
ATOM      9  C   UNL A   1     -12.215  -0.848  41.471  0.00  0.00    +0.388 C 
ATOM     10  O   UNL A   1     -11.586  -0.989  42.302  0.00  0.00    -0.241 OA
ATOM     11  O   UNL A   1     -13.554  -0.442  41.584  0.00  0.00    -0.241 OA
ENDBRANCH   7   9
ENDBRANCH   1   3
BRANCH   1  12
ATOM     12  C   UNL A   1     -10.443   1.593  37.043  0.00  0.00    +0.031 C 
BRANCH  12  15
ATOM     13  C   UNL A   1     -11.915   1.736  34.981  0.00  0.00    +0.002 A 
ATOM     14  C   UNL A   1     -12.863   1.934  34.565  0.00  0.00    +0.080 A 
ATOM     15  C   UNL A   1     -11.778   1.974  36.389  0.00  0.00    -0.022 A 
ATOM     16  C   UNL A   1     -12.724   2.567  37.124  0.00  0.00    -0.004 A 
ATOM     17  C   UNL A   1     -14.018   2.591  35.162  0.00  0.00    +0.007 A 
ATOM     18  C   UNL A   1     -13.899   2.838  36.460  0.00  0.00    -0.000 A 
BRANCH  14  19
ATOM     19  C   UNL A   1     -13.266   1.823  32.998  0.00  0.00    +0.388 C 
ATOM     20  O   UNL A   1     -14.080   2.589  32.589  0.00  0.00    -0.241 OA
ATOM     21  O   UNL A   1     -12.500   1.075  32.250  0.00  0.00    -0.241 OA
ENDBRANCH  14  19
ENDBRANCH  12  15
ENDBRANCH   1  12
TORSDOF 5
ENDMDL
ENDMDL
