MODEL 3408
MODEL 1
REMARK VINA RESULT:    -4.415      0.000      0.000
REMARK INTER + INTRA:          -4.415
REMARK INTER:                  -4.415
REMARK INTRA:                   0.000
REMARK UNBOUND:                 0.000
REMARK  Name = No_3408-gen_results/8p0m/2024-11-27-11-27-31/
REMARK  0 active torsions:
REMARK  status: ('A' for Active; 'I' for Inactive)
REMARK                            x       y       z     vdW  Elec       q    Type
REMARK                         _______ _______ _______ _____ _____    ______ ____
ROOT
ATOM      1  C   UNL A   1     -10.347  -9.080  19.551  0.00  0.00    +0.001 A 
ATOM      2  C   UNL A   1      -9.455  -9.179  20.361  0.00  0.00    +0.011 A 
ATOM      3  C   UNL A   1      -8.263  -9.859  20.116  0.00  0.00    +0.058 A 
ATOM      4  C   UNL A   1      -8.086 -10.541  18.849  0.00  0.00    +0.011 A 
ATOM      5  C   UNL A   1      -9.147 -10.417  17.952  0.00  0.00    +0.001 A 
ATOM      6  C   UNL A   1     -10.246  -9.762  18.271  0.00  0.00    +0.000 A 
ATOM      7 CL   UNL A   1      -6.966 -10.034  21.226  0.00  0.00    -0.082 Cl
ENDROOT
TORSDOF 0
ENDMDL
ENDMDL
