MODEL 3409
MODEL 1
REMARK VINA RESULT:    -7.690      0.000      0.000
REMARK INTER + INTRA:         -10.283
REMARK INTER:                  -9.039
REMARK INTRA:                  -1.244
REMARK UNBOUND:                -1.244
REMARK  Name = No_3409-gen_results/8p0m/2024-11-27-11-27-31/
REMARK  3 active torsions:
REMARK  status: ('A' for Active; 'I' for Inactive)
REMARK    1  A    between atoms: C_2  and  S_7
REMARK    2  A    between atoms: S_7  and  C_8
REMARK    3  A    between atoms: C_9  and  C_10
REMARK                            x       y       z     vdW  Elec       q    Type
REMARK                         _______ _______ _______ _____ _____    ______ ____
ROOT
ATOM      1  C   UNL A   1     -23.493  -0.166  28.715  0.00  0.00    +0.029 A 
ATOM      2  C   UNL A   1     -24.457  -1.101  28.461  0.00  0.00    +0.006 A 
ATOM      3  C   UNL A   1     -23.361   0.918  27.785  0.00  0.00    +0.006 A 
ATOM      4  C   UNL A   1     -24.203   1.028  26.701  0.00  0.00    +0.001 A 
ATOM      5  C   UNL A   1     -25.122   0.067  26.378  0.00  0.00    +0.000 A 
ATOM      6  C   UNL A   1     -25.270  -0.957  27.232  0.00  0.00    +0.001 A 
ENDROOT
BRANCH   2   7
ATOM      7  C   UNL A   1     -24.692  -2.313  29.102  0.00  0.00    +0.001 A 
ATOM      8  C   UNL A   1     -25.745  -2.524  29.821  0.00  0.00    +0.000 A 
ATOM      9  C   UNL A   1     -23.933  -3.470  28.661  0.00  0.00    +0.000 A 
ATOM     10  C   UNL A   1     -26.500  -3.694  29.859  0.00  0.00    +0.000 A 
ATOM     11  C   UNL A   1     -24.437  -4.816  28.825  0.00  0.00    +0.000 A 
ATOM     12  C   UNL A   1     -25.652  -4.894  29.453  0.00  0.00    +0.000 A 
ENDBRANCH   2   7
BRANCH   1  13
ATOM     13  S   UNL A   1     -22.438  -0.373  29.943  0.00  0.00    -0.087 S 
BRANCH  13  15
ATOM     14  C   UNL A   1     -24.267   0.639  31.541  0.00  0.00    +0.006 A 
ATOM     15  C   UNL A   1     -23.447  -0.245  31.442  0.00  0.00    +0.029 A 
ATOM     16  C   UNL A   1     -23.173  -1.181  32.304  0.00  0.00    +0.006 A 
ATOM     17  C   UNL A   1     -23.898  -1.194  33.535  0.00  0.00    +0.001 A 
ATOM     18  C   UNL A   1     -25.122   0.622  32.713  0.00  0.00    +0.001 A 
ATOM     19  C   UNL A   1     -24.895  -0.293  33.655  0.00  0.00    +0.000 A 
ENDBRANCH  13  15
ENDBRANCH   1  13
TORSDOF 3
ENDMDL
ENDMDL
