REMARK  Name = outputs/IAG933/test6/raw/output_3409_IAG933_linker_design_.xyz
REMARK  11 active torsions:
REMARK  status: ('A' for Active; 'I' for Inactive)
REMARK    1  A    between atoms: C_1  and  C_2
REMARK    2  A    between atoms: C_1  and  C_8
REMARK    3  A    between atoms: C_9  and  N_38
REMARK    4  A    between atoms: C_13  and  C_29
REMARK    5  A    between atoms: C_14  and  C_15
REMARK    6  A    between atoms: C_21  and  O_22
REMARK    7  A    between atoms: O_22  and  C_23
REMARK    8  A    between atoms: C_23  and  C_24
REMARK    9  A    between atoms: C_33  and  N_39
REMARK   10  A    between atoms: S_34  and  C_40
REMARK   11  A    between atoms: N_38  and  C_40
REMARK                            x       y       z     vdW  Elec       q    Type
REMARK                         _______ _______ _______ _____ _____    ______ ____
ROOT
ATOM      1  C   UNL A   1     -24.347   1.385  26.900  0.00  0.00    +0.080 C 
ATOM      2  F   UNL A   1     -20.494   1.576  27.572  0.00  0.00    -0.208 F 
ATOM      3  C   UNL A   1     -24.009   1.601  28.512  0.00  0.00    +0.113 C 
ATOM      4  C   UNL A   1     -21.786   1.425  27.512  0.00  0.00    +0.126 C 
ATOM      5 CL   UNL A   1     -22.514   2.389  24.920  0.00  0.00    -0.085 Cl
ATOM      6  C   UNL A   1     -22.712   1.739  26.515  0.00  0.00    +0.064 C 
ATOM      7  C   UNL A   1     -22.532   1.152  28.771  0.00  0.00    +0.080 C 
ENDROOT
BRANCH   1   8
ATOM      8  C   UNL A   1     -25.688   1.614  26.461  0.00  0.00    +0.022 C 
ATOM      9  C   UNL A   1     -26.250   2.920  26.395  0.00  0.00    +0.073 C 
ATOM     10  C   UNL A   1     -27.438   3.091  25.645  0.00  0.00    +0.106 C 
ATOM     11  N   UNL A   1     -28.075   2.089  25.003  0.00  0.00    -0.208 NA
ATOM     12  C   UNL A   1     -27.543   0.849  25.079  0.00  0.00    +0.253 C 
ATOM     13  C   UNL A   1     -26.354   0.576  25.777  0.00  0.00    +0.190 C 
ATOM     14  F   UNL A   1     -25.860  -0.681  25.795  0.00  0.00    -0.200 F 
BRANCH   9  15
ATOM     15  C   UNL A   1     -25.642   4.093  27.123  0.00  0.00    +0.266 C 
ATOM     16  N   UNL A   1     -25.614   5.252  26.449  0.00  0.00    -0.200 NA
ATOM     17  C   UNL A   1     -25.026   6.479  26.963  0.00  0.00    +0.139 C 
ATOM     18  O   UNL A   1     -25.143   3.966  28.243  0.00  0.00    -0.268 OA
ENDBRANCH   9  15
BRANCH  12  19
ATOM     19  O   UNL A   1     -28.193  -0.208  24.477  0.00  0.00    -0.456 OA
BRANCH  19  20
ATOM     20  C   UNL A   1     -29.460   0.005  23.866  0.00  0.00    +0.243 C 
BRANCH  20  21
ATOM     21  C   UNL A   1     -30.065  -1.377  23.573  0.00  0.00    +0.229 C 
ATOM     22  O   UNL A   1     -30.729  -1.878  24.721  0.00  0.00    -0.216 OA
ENDBRANCH  20  21
ENDBRANCH  19  20
ENDBRANCH  12  19
ENDBRANCH   1   8
BRANCH   3  26
ATOM     23  O   UNL A   1     -25.269   3.179  30.953  0.00  0.00    -0.251 OA
ATOM     24  C   UNL A   1     -25.363   2.248  30.418  0.00  0.00    +0.324 C 
ATOM     25  N   UNL A   1     -25.994   1.825  31.390  0.00  0.00    -0.251 N 
ATOM     26  N   UNL A   1     -24.996   1.596  29.366  0.00  0.00    -0.189 NA
BRANCH  25  28
ATOM     27  C   UNL A   1     -25.387  -0.679  31.571  0.00  0.00    +0.095 C 
ATOM     28  C   UNL A   1     -25.189   0.773  32.028  0.00  0.00    +0.095 C 
ATOM     29  C   UNL A   1     -25.336   0.684  33.544  0.00  0.00    +0.040 C 
ATOM     30  C   UNL A   1     -24.829  -0.715  33.905  0.00  0.00    +0.090 C 
ATOM     31  N   UNL A   1     -24.758  -1.481  32.646  0.00  0.00    -0.217 NA
BRANCH  27  32
ATOM     32  C   UNL A   1     -24.855  -1.012  30.143  0.00  0.00    +0.045 C 
BRANCH  32  33
ATOM     33  C   UNL A   1     -24.973  -2.505  29.788  0.00  0.00    -0.021 C 
ATOM     34  C   UNL A   1     -23.906  -3.173  29.146  0.00  0.00    -0.004 C 
ATOM     35  C   UNL A   1     -23.989  -4.549  28.853  0.00  0.00    -0.000 C 
ATOM     36  C   UNL A   1     -25.137  -5.280  29.205  0.00  0.00    -0.000 C 
ATOM     37  C   UNL A   1     -26.232  -4.611  29.784  0.00  0.00    -0.000 C 
ATOM     38  C   UNL A   1     -26.155  -3.232  30.065  0.00  0.00    -0.004 C 
ENDBRANCH  32  33
ENDBRANCH  27  32
ENDBRANCH  25  28
BRANCH  25  39
ATOM     39  C   UNL A   1     -27.065   2.653  32.056  0.00  0.00    +0.180 C 
BRANCH  39  42
ATOM     40  O   UNL A   1     -28.647   4.633  30.553  0.00  0.00    -0.153 OA
ATOM     41  N   UNL A   1     -29.844   3.311  32.377  0.00  0.00    -0.052 NA
ATOM     42  S   UNL A   1     -28.623   3.276  31.278  0.00  0.00    +0.029 S 
ATOM     43  C   UNL A   1     -28.038   2.144  30.224  0.00  0.00    +0.100 C 
ENDBRANCH  39  42
ENDBRANCH  25  39
ENDBRANCH   3  26
TORSDOF 11
