MODEL 340
MODEL 1
REMARK VINA RESULT:    -5.856      0.000      0.000
REMARK INTER + INTRA:          -6.167
REMARK INTER:                  -6.198
REMARK INTRA:                   0.031
REMARK UNBOUND:                 0.031
REMARK  Name = No_340-gen_results/8p0m/2024-11-27-11-27-31/
REMARK  1 active torsions:
REMARK  status: ('A' for Active; 'I' for Inactive)
REMARK    1  A    between atoms: C_6  and  C_12
REMARK                            x       y       z     vdW  Elec       q    Type
REMARK                         _______ _______ _______ _____ _____    ______ ____
ROOT
ATOM      1  F   UNL A   1     -27.624  -2.469  31.161  0.00  0.00    -0.201 F 
ATOM      2  C   UNL A   1     -26.802  -2.685  30.393  0.00  0.00    +0.180 A 
ATOM      3  C   UNL A   1     -26.729  -3.931  29.930  0.00  0.00    +0.198 A 
ATOM      4  C   UNL A   1     -25.553  -4.497  29.345  0.00  0.00    +0.197 A 
ATOM      5  C   UNL A   1     -24.429  -3.593  29.124  0.00  0.00    +0.174 A 
ATOM      6  C   UNL A   1     -24.531  -2.313  29.661  0.00  0.00    +0.114 A 
ATOM      7  C   UNL A   1     -25.561  -1.922  30.329  0.00  0.00    +0.093 A 
ATOM      8  F   UNL A   1     -23.422  -4.032  28.455  0.00  0.00    -0.202 F 
ATOM      9  F   UNL A   1     -27.684  -4.818  30.069  0.00  0.00    -0.199 F 
ATOM     10  F   UNL A   1     -25.460  -5.681  28.795  0.00  0.00    -0.199 F 
ATOM     11 CL   UNL A   1     -25.599  -0.275  30.981  0.00  0.00    -0.080 Cl
ENDROOT
BRANCH   6  12
ATOM     12  C   UNL A   1     -23.273  -1.436  29.403  0.00  0.00    +0.422 C 
ATOM     13  F   UNL A   1     -22.351  -1.643  28.849  0.00  0.00    -0.166 F 
ATOM     14  F   UNL A   1     -22.816  -0.986  30.704  0.00  0.00    -0.166 F 
ATOM     15  F   UNL A   1     -23.663  -0.298  28.765  0.00  0.00    -0.166 F 
ENDBRANCH   6  12
TORSDOF 1
ENDMDL
ENDMDL
