REMARK  Name = outputs/IAG933/test6/raw/output_341_IAG933_linker_design_.xyz
REMARK  12 active torsions:
REMARK  status: ('A' for Active; 'I' for Inactive)
REMARK    1  A    between atoms: C_1  and  C_2
REMARK    2  A    between atoms: C_1  and  C_8
REMARK    3  A    between atoms: C_1  and  N_29
REMARK    4  A    between atoms: C_13  and  N_32
REMARK    5  A    between atoms: C_14  and  C_15
REMARK    6  A    between atoms: C_21  and  O_22
REMARK    7  A    between atoms: O_22  and  C_23
REMARK    8  A    between atoms: C_23  and  C_24
REMARK    9  A    between atoms: N_29  and  C_30
REMARK   10  A    between atoms: C_33  and  C_39
REMARK   11  A    between atoms: C_35  and  C_36
REMARK   12  A    between atoms: C_35  and  C_37
REMARK                            x       y       z     vdW  Elec       q    Type
REMARK                         _______ _______ _______ _____ _____    ______ ____
ROOT
ATOM      1  C   UNL A   1     -24.323   0.604  28.157  0.00  0.00    +0.334 C 
ATOM      2  N   UNL A   1     -24.240   1.560  26.910  0.00  0.00    -0.099 N 
ATOM      3  C   UNL A   1     -23.322   0.635  27.808  0.00  0.00    -0.025 C 
ATOM      4  C   UNL A   1     -22.046   1.091  27.384  0.00  0.00    +0.021 C 
ATOM      5  N   UNL A   1     -23.394   2.352  25.984  0.00  0.00    -0.031 NA
ATOM      6  C   UNL A   1     -22.211   2.047  26.286  0.00  0.00    +0.167 C 
ENDROOT
BRANCH   2   7
ATOM      7  C   UNL A   1     -25.688   1.614  26.461  0.00  0.00    +0.251 C 
ATOM      8  C   UNL A   1     -26.250   2.920  26.395  0.00  0.00    +0.099 C 
ATOM      9  C   UNL A   1     -27.438   3.091  25.645  0.00  0.00    +0.106 C 
ATOM     10  N   UNL A   1     -28.075   2.089  25.003  0.00  0.00    -0.212 NA
ATOM     11  C   UNL A   1     -27.543   0.849  25.079  0.00  0.00    +0.238 C 
ATOM     12  C   UNL A   1     -26.354   0.576  25.777  0.00  0.00    +0.284 C 
ATOM     13  F   UNL A   1     -25.860  -0.681  25.795  0.00  0.00    -0.222 F 
BRANCH   8  14
ATOM     14  C   UNL A   1     -25.642   4.093  27.123  0.00  0.00    +0.266 C 
ATOM     15  N   UNL A   1     -25.614   5.252  26.449  0.00  0.00    -0.200 NA
ATOM     16  C   UNL A   1     -25.026   6.479  26.963  0.00  0.00    +0.139 C 
ATOM     17  O   UNL A   1     -25.143   3.966  28.243  0.00  0.00    -0.269 OA
ENDBRANCH   8  14
BRANCH  11  18
ATOM     18  O   UNL A   1     -28.193  -0.208  24.477  0.00  0.00    -0.458 OA
BRANCH  18  19
ATOM     19  C   UNL A   1     -29.460   0.005  23.866  0.00  0.00    +0.242 C 
BRANCH  19  20
ATOM     20  C   UNL A   1     -30.065  -1.377  23.573  0.00  0.00    +0.229 C 
ATOM     21  O   UNL A   1     -30.729  -1.878  24.721  0.00  0.00    -0.216 OA
ENDBRANCH  19  20
ENDBRANCH  18  19
ENDBRANCH  11  18
ENDBRANCH   2   7
BRANCH   1  22
ATOM     22  N   UNL A   1     -25.214   0.032  29.044  0.00  0.00    -0.134 N 
ATOM     23  C   UNL A   1     -26.646   0.438  28.979  0.00  0.00    +0.347 C 
ATOM     24  O   UNL A   1     -27.207   1.526  29.062  0.00  0.00    -0.244 OA
BRANCH  23  26
ATOM     25  O   UNL A   1     -28.835  -0.209  28.598  0.00  0.00    -0.207 OA
ATOM     26  C   UNL A   1     -27.506  -0.744  28.651  0.00  0.00    +0.294 C 
ENDBRANCH  23  26
BRANCH  22  27
ATOM     27  C   UNL A   1     -24.855  -1.012  30.143  0.00  0.00    +0.206 C 
BRANCH  27  28
ATOM     28  C   UNL A   1     -24.973  -2.505  29.788  0.00  0.00    +0.022 C 
ATOM     29  C   UNL A   1     -23.906  -3.173  29.146  0.00  0.00    -0.000 C 
ATOM     30  C   UNL A   1     -23.989  -4.549  28.853  0.00  0.00    -0.000 C 
ATOM     31  C   UNL A   1     -25.137  -5.280  29.205  0.00  0.00    -0.000 C 
ATOM     32  C   UNL A   1     -26.232  -4.611  29.784  0.00  0.00    -0.000 C 
ATOM     33  C   UNL A   1     -26.155  -3.232  30.065  0.00  0.00    -0.000 C 
ENDBRANCH  27  28
BRANCH  27  34
ATOM     34  C   UNL A   1     -25.387  -0.679  31.571  0.00  0.00    +0.120 C 
ATOM     35  C   UNL A   1     -25.189   0.773  32.028  0.00  0.00    +0.023 C 
ATOM     36  C   UNL A   1     -25.336   0.684  33.544  0.00  0.00    +0.020 C 
ATOM     37  C   UNL A   1     -24.829  -0.715  33.905  0.00  0.00    +0.089 C 
ATOM     38  N   UNL A   1     -24.758  -1.481  32.646  0.00  0.00    -0.215 NA
ENDBRANCH  27  34
ENDBRANCH  22  27
ENDBRANCH   1  22
BRANCH   4  39
ATOM     39  C   UNL A   1     -20.851   0.646  28.060  0.00  0.00    +0.067 C 
BRANCH  39  41
ATOM     40  O   UNL A   1     -21.939  -0.721  29.830  0.00  0.00    -0.220 OA
ATOM     41  C   UNL A   1     -21.035  -0.471  28.894  0.00  0.00    +0.187 C 
ENDBRANCH  39  41
ENDBRANCH   4  39
TORSDOF 12
