MODEL 3411
MODEL 1
REMARK VINA RESULT:    -6.463      0.000      0.000
REMARK INTER + INTRA:          -7.115
REMARK INTER:                  -6.841
REMARK INTRA:                  -0.274
REMARK UNBOUND:                -0.274
REMARK  Name = No_3411-gen_results/8p0m/2024-11-27-11-27-31/
REMARK  1 active torsions:
REMARK  status: ('A' for Active; 'I' for Inactive)
REMARK    1  A    between atoms: C_6  and  C_9
REMARK                            x       y       z     vdW  Elec       q    Type
REMARK                         _______ _______ _______ _____ _____    ______ ____
ROOT
ATOM      1  O   UNL A   1     -27.616  -1.695  30.521  0.00  0.00    -0.296 OA
ATOM      2  C   UNL A   1     -26.629  -2.338  30.147  0.00  0.00    +0.152 C 
ATOM      3  C   UNL A   1     -26.346  -3.411  29.890  0.00  0.00    +0.081 C 
ATOM      4  C   UNL A   1     -25.123  -3.976  29.203  0.00  0.00    +0.088 C 
ATOM      5  C   UNL A   1     -24.150  -3.052  28.936  0.00  0.00    +0.021 C 
ATOM      6  C   UNL A   1     -24.395  -1.734  29.203  0.00  0.00    +0.031 C 
ATOM      7  C   UNL A   1     -25.450  -1.310  29.769  0.00  0.00    +0.069 C 
ATOM      8 CL   UNL A   1     -24.830  -5.617  28.915  0.00  0.00    -0.115 Cl
ENDROOT
BRANCH   6   9
ATOM      9  C   UNL A   1     -23.247  -0.806  28.807  0.00  0.00    -0.022 A 
ATOM     10  C   UNL A   1     -22.140  -0.869  28.991  0.00  0.00    -0.004 A 
ATOM     11  C   UNL A   1     -21.027   0.037  28.573  0.00  0.00    -0.000 A 
ATOM     12  C   UNL A   1     -21.423   1.126  27.823  0.00  0.00    -0.000 A 
ATOM     13  C   UNL A   1     -23.573   0.424  27.972  0.00  0.00    -0.004 A 
ATOM     14  C   UNL A   1     -22.701   1.272  27.490  0.00  0.00    -0.000 A 
ENDBRANCH   6   9
TORSDOF 1
ENDMDL
ENDMDL
