REMARK  Name = outputs/IAG933/test6/raw/output_3412_IAG933_linker_design_.xyz
REMARK  17 active torsions:
REMARK  status: ('A' for Active; 'I' for Inactive)
REMARK    1  A    between atoms: C_1  and  C_2
REMARK    2  A    between atoms: C_1  and  C_8
REMARK    3  A    between atoms: C_1  and  C_31
REMARK    4  A    between atoms: C_13  and  C_41
REMARK    5  A    between atoms: C_14  and  C_15
REMARK    6  A    between atoms: C_21  and  O_22
REMARK    7  A    between atoms: O_22  and  C_23
REMARK    8  A    between atoms: C_23  and  C_24
REMARK    9  A    between atoms: C_28  and  N_29
REMARK   10  A    between atoms: C_28  and  C_31
REMARK   11  A    between atoms: C_28  and  C_41
REMARK   12  A    between atoms: C_31  and  O_37
REMARK   13  A    between atoms: C_32  and  C_40
REMARK   14  A    between atoms: C_33  and  C_34
REMARK   15  A    between atoms: C_33  and  O_37
REMARK   16  A    between atoms: C_36  and  C_39
REMARK   17  A    between atoms: C_39  and  C_40
REMARK                            x       y       z     vdW  Elec       q    Type
REMARK                         _______ _______ _______ _____ _____    ______ ____
ROOT
ATOM      1  C   UNL A   1     -24.636   0.959  28.714  0.00  0.00    +0.127 C 
ENDROOT
BRANCH   1   2
ATOM      2  N   UNL A   1     -25.830   1.651  29.212  0.00  0.00    -0.204 NA
ATOM      3  O   UNL A   1     -27.338  -0.125  29.057  0.00  0.00    -0.273 OA
ATOM      4  C   UNL A   1     -27.073   1.111  29.182  0.00  0.00    +0.241 C 
BRANCH   4   5
ATOM      5  C   UNL A   1     -28.260   2.013  29.327  0.00  0.00    +0.088 C 
BRANCH   5   6
ATOM      6  C   UNL A   1     -27.858   3.499  29.299  0.00  0.00    +0.030 C 
BRANCH   6   7
ATOM      7  C   UNL A   1     -27.782   4.185  30.657  0.00  0.00    +0.110 C 
ATOM      8  N   UNL A   1     -28.854   3.953  31.630  0.00  0.00    -0.131 NA
ENDBRANCH   6   7
ENDBRANCH   5   6
ENDBRANCH   4   5
ENDBRANCH   1   2
BRANCH   1   9
ATOM      9  C   UNL A   1     -23.966  -0.046  29.313  0.00  0.00    +0.141 C 
BRANCH   9  10
ATOM     10  C   UNL A   1     -24.855  -1.012  30.143  0.00  0.00    +0.067 C 
BRANCH  10  11
ATOM     11  C   UNL A   1     -24.973  -2.505  29.788  0.00  0.00    -0.019 C 
ATOM     12  C   UNL A   1     -23.906  -3.173  29.146  0.00  0.00    -0.004 C 
ATOM     13  C   UNL A   1     -23.989  -4.549  28.853  0.00  0.00    -0.000 C 
ATOM     14  C   UNL A   1     -25.137  -5.280  29.205  0.00  0.00    -0.000 C 
ATOM     15  C   UNL A   1     -26.232  -4.611  29.784  0.00  0.00    -0.000 C 
ATOM     16  C   UNL A   1     -26.155  -3.232  30.065  0.00  0.00    -0.004 C 
ENDBRANCH  10  11
BRANCH  10  17
ATOM     17  C   UNL A   1     -25.387  -0.679  31.571  0.00  0.00    +0.079 C 
ATOM     18  C   UNL A   1     -25.189   0.773  32.028  0.00  0.00    +0.019 C 
ATOM     19  C   UNL A   1     -25.336   0.684  33.544  0.00  0.00    +0.020 C 
ATOM     20  C   UNL A   1     -24.829  -0.715  33.905  0.00  0.00    +0.089 C 
ATOM     21  N   UNL A   1     -24.758  -1.481  32.646  0.00  0.00    -0.219 NA
ENDBRANCH  10  17
ENDBRANCH   9  10
BRANCH   9  22
ATOM     22  O   UNL A   1     -22.613  -0.383  29.418  0.00  0.00    -0.354 OA
BRANCH  22  24
ATOM     23  C   UNL A   1     -20.279  -0.169  28.500  0.00  0.00    +0.035 C 
ATOM     24  C   UNL A   1     -21.586   0.267  28.829  0.00  0.00    +0.148 C 
BRANCH  24  25
ATOM     25  C   UNL A   1     -21.661   1.439  28.168  0.00  0.00    +0.211 C 
ATOM     26  O   UNL A   1     -21.169   1.636  26.932  0.00  0.00    -0.218 OA
ENDBRANCH  24  25
ENDBRANCH  22  24
ENDBRANCH   9  22
ENDBRANCH   1   9
BRANCH   1  27
ATOM     27  C   UNL A   1     -24.391   1.389  27.205  0.00  0.00    +0.053 C 
BRANCH  27  28
ATOM     28  C   UNL A   1     -25.688   1.614  26.461  0.00  0.00    +0.018 C 
ATOM     29  C   UNL A   1     -26.250   2.920  26.395  0.00  0.00    +0.073 C 
ATOM     30  C   UNL A   1     -27.438   3.091  25.645  0.00  0.00    +0.106 C 
ATOM     31  N   UNL A   1     -28.075   2.089  25.003  0.00  0.00    -0.208 NA
ATOM     32  C   UNL A   1     -27.543   0.849  25.079  0.00  0.00    +0.253 C 
ATOM     33  C   UNL A   1     -26.354   0.576  25.777  0.00  0.00    +0.189 C 
ATOM     34  F   UNL A   1     -25.860  -0.681  25.795  0.00  0.00    -0.200 F 
BRANCH  29  35
ATOM     35  C   UNL A   1     -25.642   4.093  27.123  0.00  0.00    +0.266 C 
ATOM     36  N   UNL A   1     -25.614   5.252  26.449  0.00  0.00    -0.200 NA
ATOM     37  C   UNL A   1     -25.026   6.479  26.963  0.00  0.00    +0.139 C 
ATOM     38  O   UNL A   1     -25.143   3.966  28.243  0.00  0.00    -0.268 OA
ENDBRANCH  29  35
BRANCH  32  39
ATOM     39  O   UNL A   1     -28.193  -0.208  24.477  0.00  0.00    -0.456 OA
BRANCH  39  40
ATOM     40  C   UNL A   1     -29.460   0.005  23.866  0.00  0.00    +0.243 C 
BRANCH  40  41
ATOM     41  C   UNL A   1     -30.065  -1.377  23.573  0.00  0.00    +0.229 C 
ATOM     42  O   UNL A   1     -30.729  -1.878  24.721  0.00  0.00    -0.216 OA
ENDBRANCH  40  41
ENDBRANCH  39  40
ENDBRANCH  32  39
ENDBRANCH  27  28
ENDBRANCH   1  27
TORSDOF 17
