MODEL 3412
MODEL 1
REMARK VINA RESULT:    -6.686      0.000      0.000
REMARK INTER + INTRA:          -7.887
REMARK INTER:                  -7.468
REMARK INTRA:                  -0.418
REMARK UNBOUND:                -0.418
REMARK  Name = No_3412-gen_results/8p0m/2024-11-27-11-27-31/
REMARK  2 active torsions:
REMARK  status: ('A' for Active; 'I' for Inactive)
REMARK    1  A    between atoms: C_3  and  C_4
REMARK    2  A    between atoms: C_4  and  C_8
REMARK                            x       y       z     vdW  Elec       q    Type
REMARK                         _______ _______ _______ _____ _____    ______ ____
ROOT
ATOM      1  C   UNL A   1     -24.450  -1.471  29.099  0.00  0.00    +0.053 C 
ENDROOT
BRANCH   1   4
ATOM      2  C   UNL A   1     -24.213   0.444  27.407  0.00  0.00    -0.004 A 
ATOM      3  C   UNL A   1     -23.590   1.205  27.029  0.00  0.00    -0.000 A 
ATOM      4  C   UNL A   1     -23.676  -0.420  28.387  0.00  0.00    -0.018 A 
ATOM      5  C   UNL A   1     -22.191   1.555  27.329  0.00  0.00    -0.000 A 
ATOM      6  C   UNL A   1     -21.593   0.740  28.290  0.00  0.00    -0.000 A 
ATOM      7  C   UNL A   1     -22.328  -0.238  28.879  0.00  0.00    -0.004 A 
ENDBRANCH   1   4
BRANCH   1   8
ATOM      8  C   UNL A   1     -24.497  -2.603  29.066  0.00  0.00    -0.018 A 
ATOM      9  C   UNL A   1     -23.925  -3.421  28.616  0.00  0.00    -0.004 A 
ATOM     10  C   UNL A   1     -24.117  -4.893  28.628  0.00  0.00    -0.000 A 
ATOM     11  C   UNL A   1     -25.351  -5.262  29.070  0.00  0.00    -0.000 A 
ATOM     12  C   UNL A   1     -26.164  -4.411  29.706  0.00  0.00    -0.000 A 
ATOM     13  C   UNL A   1     -25.855  -3.099  29.708  0.00  0.00    -0.004 A 
ENDBRANCH   1   8
TORSDOF 2
ENDMDL
ENDMDL
