MODEL 3415
MODEL 1
REMARK VINA RESULT:    -6.386      0.000      0.000
REMARK INTER + INTRA:          -6.386
REMARK INTER:                  -6.386
REMARK INTRA:                   0.000
REMARK UNBOUND:                 0.000
REMARK  Name = No_3415-gen_results/8p0m/2024-11-27-11-27-31/
REMARK  0 active torsions:
REMARK  status: ('A' for Active; 'I' for Inactive)
REMARK                            x       y       z     vdW  Elec       q    Type
REMARK                         _______ _______ _______ _____ _____    ______ ____
ROOT
ATOM      1  C   UNL A   1     -22.243   1.903  26.010  0.00  0.00    +0.000 A 
ATOM      2  C   UNL A   1     -23.084   2.368  25.578  0.00  0.00    +0.000 A 
ATOM      3  C   UNL A   1     -22.435   1.533  27.412  0.00  0.00    +0.000 A 
ATOM      4  C   UNL A   1     -21.440   0.776  28.205  0.00  0.00    +0.000 A 
ATOM      5  C   UNL A   1     -24.413   2.736  26.048  0.00  0.00    +0.000 A 
ATOM      6  C   UNL A   1     -24.627   2.415  27.373  0.00  0.00    +0.000 A 
ATOM      7  C   UNL A   1     -23.674   1.765  28.064  0.00  0.00    +0.000 A 
ATOM      8  C   UNL A   1     -21.506  -0.121  28.937  0.00  0.00    +0.000 A 
ATOM      9  C   UNL A   1     -22.846  -0.721  29.085  0.00  0.00    +0.000 A 
ATOM     10  C   UNL A   1     -23.069  -1.801  28.970  0.00  0.00    +0.000 A 
ATOM     11  C   UNL A   1     -24.355  -2.524  29.355  0.00  0.00    +0.000 A 
ATOM     12  C   UNL A   1     -25.200  -1.907  28.890  0.00  0.00    +0.000 A 
ATOM     13  C   UNL A   1     -25.303  -0.434  28.826  0.00  0.00    +0.000 A 
ATOM     14  C   UNL A   1     -24.003   0.196  28.866  0.00  0.00    +0.000 A 
ENDROOT
TORSDOF 0
ENDMDL
ENDMDL
