MODEL 3417
MODEL 1
REMARK VINA RESULT:    -5.322      0.000      0.000
REMARK INTER + INTRA:          -5.777
REMARK INTER:                  -5.633
REMARK INTRA:                  -0.144
REMARK UNBOUND:                -0.144
REMARK  Name = No_3417-gen_results/8p0m/2024-11-27-11-27-31/
REMARK  1 active torsions:
REMARK  status: ('A' for Active; 'I' for Inactive)
REMARK    1  A    between atoms: C_4  and  C_7
REMARK                            x       y       z     vdW  Elec       q    Type
REMARK                         _______ _______ _______ _____ _____    ______ ____
ROOT
ATOM      1  C   UNL A   1     -24.599  -5.252  28.912  0.00  0.00    -0.000 A 
ATOM      2  C   UNL A   1     -25.579  -5.202  29.295  0.00  0.00    -0.000 A 
ATOM      3  C   UNL A   1     -23.927  -3.968  28.653  0.00  0.00    -0.000 A 
ATOM      4  C   UNL A   1     -24.536  -2.740  29.042  0.00  0.00    -0.000 A 
ATOM      5  C   UNL A   1     -25.792  -2.837  29.586  0.00  0.00    -0.000 A 
ATOM      6  C   UNL A   1     -26.373  -4.040  29.777  0.00  0.00    -0.000 A 
ENDROOT
BRANCH   4   7
ATOM      7  C   UNL A   1     -23.885  -1.475  28.813  0.00  0.00    -0.005 C 
ATOM      8  C   UNL A   1     -22.701  -1.178  29.185  0.00  0.00    -0.026 C 
ATOM      9  C   UNL A   1     -22.003   0.040  28.753  0.00  0.00    +0.031 C 
ENDBRANCH   4   7
TORSDOF 1
ENDMDL
ENDMDL
