MODEL 3418
MODEL 1
REMARK VINA RESULT:    -6.512      0.000      0.000
REMARK INTER + INTRA:          -9.229
REMARK INTER:                  -8.415
REMARK INTRA:                  -0.813
REMARK UNBOUND:                -0.813
REMARK  Name = No_3418-gen_results/8p0m/2024-11-27-11-27-31/
REMARK  5 active torsions:
REMARK  status: ('A' for Active; 'I' for Inactive)
REMARK    1  A    between atoms: C_1  and  C_2
REMARK    2  A    between atoms: C_1  and  C_5
REMARK    3  A    between atoms: C_5  and  C_17
REMARK    4  A    between atoms: C_10  and  C_20
REMARK    5  A    between atoms: C_17  and  C_18
REMARK                            x       y       z     vdW  Elec       q    Type
REMARK                         _______ _______ _______ _____ _____    ______ ____
ROOT
ATOM      1  C   UNL A   1     -23.677  -0.549  29.482  0.00  0.00    +0.050 C 
ATOM      2  C   UNL A   1     -24.482   0.370  28.944  0.00  0.00    +0.030 C 
ATOM      3  C   UNL A   1     -23.999   0.971  27.935  0.00  0.00    -0.020 A 
ATOM      4  C   UNL A   1     -24.616   1.421  26.948  0.00  0.00    +0.075 A 
ATOM      5  C   UNL A   1     -24.068   2.076  25.752  0.00  0.00    +0.006 A 
ATOM      6  C   UNL A   1     -22.679   2.225  25.747  0.00  0.00    -0.000 A 
ATOM      7  C   UNL A   1     -21.924   1.751  26.790  0.00  0.00    -0.005 A 
ATOM      8  C   UNL A   1     -22.502   1.123  27.836  0.00  0.00    -0.026 A 
ATOM      9  C   UNL A   1     -21.675   0.508  28.854  0.00  0.00    +0.026 C 
ATOM     10  C   UNL A   1     -22.210  -0.551  29.040  0.00  0.00    +0.008 C 
ENDROOT
BRANCH   4  11
ATOM     11  C   UNL A   1     -26.136   1.341  26.857  0.00  0.00    +0.387 C 
ATOM     12  O   UNL A   1     -26.823   2.236  27.086  0.00  0.00    -0.241 OA
ATOM     13  O   UNL A   1     -26.576   0.363  25.935  0.00  0.00    -0.241 OA
ENDBRANCH   4  11
BRANCH   1  14
ATOM     14  C   UNL A   1     -24.063  -2.030  29.424  0.00  0.00    +0.256 C 
ATOM     15  F   UNL A   1     -22.967  -2.639  28.890  0.00  0.00    -0.228 F 
BRANCH  14  16
ATOM     16  C   UNL A   1     -25.059  -2.249  28.774  0.00  0.00    +0.427 C 
ATOM     17  F   UNL A   1     -26.087  -1.797  29.288  0.00  0.00    -0.167 F 
ATOM     18  F   UNL A   1     -25.380  -3.664  28.685  0.00  0.00    -0.167 F 
ATOM     19  F   UNL A   1     -25.195  -1.992  27.404  0.00  0.00    -0.167 F 
ENDBRANCH  14  16
ENDBRANCH   1  14
BRANCH   1  20
ATOM     20  C   UNL A   1     -23.448  -0.173  31.075  0.00  0.00    +0.075 C 
BRANCH  20  21
ATOM     21  C   UNL A   1     -23.414  -1.201  31.902  0.00  0.00    +0.207 C 
ATOM     22  O   UNL A   1     -22.353  -1.239  32.630  0.00  0.00    -0.288 OA
ENDBRANCH  20  21
ENDBRANCH   1  20
TORSDOF 5
ENDMDL
ENDMDL
