REMARK  Name = No_3418-gen_results/8p0m/2024-11-27-11-27-31/
REMARK  5 active torsions:
REMARK  status: ('A' for Active; 'I' for Inactive)
REMARK    1  A    between atoms: C_1  and  C_2
REMARK    2  A    between atoms: C_1  and  C_5
REMARK    3  A    between atoms: C_5  and  C_17
REMARK    4  A    between atoms: C_10  and  C_20
REMARK    5  A    between atoms: C_17  and  C_18
REMARK                            x       y       z     vdW  Elec       q    Type
REMARK                         _______ _______ _______ _____ _____    ______ ____
ROOT
ATOM      1  C   UNL A   1     -29.043  -0.128  29.784  0.00  0.00    +0.050 C 
ATOM      2  C   UNL A   1     -30.262  -0.654  29.927  0.00  0.00    +0.030 C 
ATOM      3  C   UNL A   1     -31.202   0.053  29.449  0.00  0.00    -0.020 A 
ATOM      4  C   UNL A   1     -32.273  -0.343  28.945  0.00  0.00    +0.075 A 
ATOM      5  C   UNL A   1     -33.350   0.459  28.346  0.00  0.00    +0.006 A 
ATOM      6  C   UNL A   1     -33.140   1.840  28.374  0.00  0.00    -0.000 A 
ATOM      7  C   UNL A   1     -31.985   2.358  28.903  0.00  0.00    -0.005 A 
ATOM      8  C   UNL A   1     -31.024   1.549  29.399  0.00  0.00    -0.026 A 
ATOM      9  C   UNL A   1     -29.757   2.110  29.821  0.00  0.00    +0.026 C 
ATOM     10  C   UNL A   1     -28.952   1.343  29.368  0.00  0.00    +0.008 C 
ENDROOT
BRANCH   4  11
ATOM     11  C   UNL A   1     -32.624  -1.826  28.886  0.00  0.00    +0.387 C 
ATOM     12  O   UNL A   1     -32.671  -2.417  27.899  0.00  0.00    -0.241 OA
ATOM     13  O   UNL A   1     -32.291  -2.512  30.077  0.00  0.00    -0.241 OA
ENDBRANCH   4  11
BRANCH   1  14
ATOM     14  C   UNL A   1     -28.016  -0.814  28.878  0.00  0.00    +0.256 C 
ATOM     15  F   UNL A   1     -27.648  -1.925  29.575  0.00  0.00    -0.228 F 
BRANCH  14  16
ATOM     16  C   UNL A   1     -27.064  -0.119  28.608  0.00  0.00    +0.427 C 
ATOM     17  F   UNL A   1     -27.043   0.244  27.428  0.00  0.00    -0.167 F 
ATOM     18  F   UNL A   1     -25.797  -0.824  28.714  0.00  0.00    -0.167 F 
ATOM     19  F   UNL A   1     -26.656   1.004  29.340  0.00  0.00    -0.167 F 
ENDBRANCH  14  16
ENDBRANCH   1  14
BRANCH   1  20
ATOM     20  C   UNL A   1     -28.354   0.002  31.281  0.00  0.00    +0.075 C 
BRANCH  20  21
ATOM     21  C   UNL A   1     -28.273  -1.122  31.968  0.00  0.00    +0.207 C 
ATOM     22  O   UNL A   1     -27.905  -0.952  33.189  0.00  0.00    -0.288 OA
ENDBRANCH  20  21
ENDBRANCH   1  20
TORSDOF 5
