MODEL 3419
MODEL 1
REMARK VINA RESULT:    -6.373      0.000      0.000
REMARK INTER + INTRA:          -7.418
REMARK INTER:                  -7.118
REMARK INTRA:                  -0.299
REMARK UNBOUND:                -0.299
REMARK  Name = No_3419-gen_results/8p0m/2024-11-27-11-27-31/
REMARK  2 active torsions:
REMARK  status: ('A' for Active; 'I' for Inactive)
REMARK    1  A    between atoms: C_4  and  C_14
REMARK    2  A    between atoms: C_5  and  C_11
REMARK                            x       y       z     vdW  Elec       q    Type
REMARK                         _______ _______ _______ _____ _____    ______ ____
ROOT
ATOM      1  C   UNL A   1     -26.271  -4.324  29.658  0.00  0.00    -0.000 A 
ATOM      2  C   UNL A   1     -25.868  -3.192  29.790  0.00  0.00    -0.000 A 
ATOM      3  C   UNL A   1     -24.856  -2.629  29.194  0.00  0.00    -0.001 A 
ATOM      4  C   UNL A   1     -24.396  -1.230  29.379  0.00  0.00    +0.014 A 
ATOM      5  C   UNL A   1     -25.169  -0.422  30.260  0.00  0.00    +0.078 A 
ATOM      6  C   UNL A   1     -26.270  -0.993  30.843  0.00  0.00    +0.006 A 
ATOM      7  C   UNL A   1     -26.666  -2.271  30.636  0.00  0.00    +0.000 A 
ATOM      8  C   UNL A   1     -25.314  -5.246  29.197  0.00  0.00    -0.000 A 
ATOM      9  C   UNL A   1     -24.168  -4.816  28.585  0.00  0.00    -0.000 A 
ATOM     10  C   UNL A   1     -23.830  -3.485  28.691  0.00  0.00    -0.000 A 
ENDROOT
BRANCH   5  11
ATOM     11  C   UNL A   1     -24.948   0.999  30.443  0.00  0.00    +0.388 C 
ATOM     12  O   UNL A   1     -25.376   1.826  29.898  0.00  0.00    -0.241 OA
ATOM     13  O   UNL A   1     -24.003   1.288  31.458  0.00  0.00    -0.241 OA
ENDBRANCH   5  11
BRANCH   4  14
ATOM     14  C   UNL A   1     -23.224  -0.610  28.725  0.00  0.00    +0.181 C 
ATOM     15 CL   UNL A   1     -22.203  -0.448  29.075  0.00  0.00    -0.092 Cl
ATOM     16 CL   UNL A   1     -23.873   0.192  27.305  0.00  0.00    -0.092 Cl
ENDBRANCH   4  14
TORSDOF 2
ENDMDL
ENDMDL
