REMARK  Name = outputs/IAG933/test6/raw/output_3419_IAG933_linker_design_.xyz
REMARK  11 active torsions:
REMARK  status: ('A' for Active; 'I' for Inactive)
REMARK    1  A    between atoms: C_1  and  C_2
REMARK    2  A    between atoms: C_1  and  C_8
REMARK    3  A    between atoms: C_1  and  C_28
REMARK    4  A    between atoms: C_13  and  N_32
REMARK    5  A    between atoms: C_14  and  C_15
REMARK    6  A    between atoms: C_21  and  O_22
REMARK    7  A    between atoms: O_22  and  C_23
REMARK    8  A    between atoms: C_23  and  C_24
REMARK    9  A    between atoms: C_28  and  C_39
REMARK   10  A    between atoms: C_30  and  C_33
REMARK   11  A    between atoms: N_32  and  C_36
REMARK                            x       y       z     vdW  Elec       q    Type
REMARK                         _______ _______ _______ _____ _____    ______ ____
ROOT
ATOM      1  N   UNL A   1     -22.657  -0.411  29.474  0.00  0.00    -0.266 NA
ATOM      2  C   UNL A   1     -21.318  -0.434  29.195  0.00  0.00    +0.151 C 
ATOM      3  C   UNL A   1     -22.468   1.676  27.221  0.00  0.00    +0.027 C 
ATOM      4  C   UNL A   1     -20.665   0.534  28.474  0.00  0.00    -0.000 C 
ATOM      5  C   UNL A   1     -23.600   1.057  27.703  0.00  0.00    +0.085 C 
ATOM      6  C   UNL A   1     -21.126   1.456  27.614  0.00  0.00    -0.003 C 
ATOM      7  C   UNL A   1     -23.666   0.154  28.808  0.00  0.00    +0.100 C 
ENDROOT
BRANCH   7   8
ATOM      8  C   UNL A   1     -24.877  -0.145  29.215  0.00  0.00    +0.198 C 
ATOM      9  O   UNL A   1     -26.052   0.357  28.904  0.00  0.00    -0.216 OA
BRANCH   8  10
ATOM     10  C   UNL A   1     -24.855  -1.012  30.143  0.00  0.00    +0.074 C 
BRANCH  10  11
ATOM     11  C   UNL A   1     -24.973  -2.505  29.788  0.00  0.00    -0.018 C 
ATOM     12  C   UNL A   1     -23.906  -3.173  29.146  0.00  0.00    -0.004 C 
ATOM     13  C   UNL A   1     -23.989  -4.549  28.853  0.00  0.00    -0.000 C 
ATOM     14  C   UNL A   1     -25.137  -5.280  29.205  0.00  0.00    -0.000 C 
ATOM     15  C   UNL A   1     -26.232  -4.611  29.784  0.00  0.00    -0.000 C 
ATOM     16  C   UNL A   1     -26.155  -3.232  30.065  0.00  0.00    -0.004 C 
ENDBRANCH  10  11
BRANCH  10  17
ATOM     17  C   UNL A   1     -25.387  -0.679  31.571  0.00  0.00    +0.080 C 
ATOM     18  C   UNL A   1     -25.189   0.773  32.028  0.00  0.00    +0.019 C 
ATOM     19  C   UNL A   1     -25.336   0.684  33.544  0.00  0.00    +0.020 C 
ATOM     20  C   UNL A   1     -24.829  -0.715  33.905  0.00  0.00    +0.089 C 
ATOM     21  N   UNL A   1     -24.758  -1.481  32.646  0.00  0.00    -0.219 NA
ENDBRANCH  10  17
ENDBRANCH   8  10
ENDBRANCH   7   8
BRANCH   3  22
ATOM     22  C   UNL A   1     -22.686   2.662  26.202  0.00  0.00    +0.210 C 
ATOM     23  O   UNL A   1     -23.427   2.247  25.039  0.00  0.00    -0.215 OA
ENDBRANCH   3  22
BRANCH   5  24
ATOM     24  N   UNL A   1     -24.542   1.239  27.063  0.00  0.00    -0.209 NA
BRANCH  24  25
ATOM     25  C   UNL A   1     -25.688   1.614  26.461  0.00  0.00    +0.108 C 
ATOM     26  C   UNL A   1     -26.250   2.920  26.395  0.00  0.00    +0.092 C 
ATOM     27  C   UNL A   1     -27.438   3.091  25.645  0.00  0.00    +0.108 C 
ATOM     28  N   UNL A   1     -28.075   2.089  25.003  0.00  0.00    -0.208 NA
ATOM     29  C   UNL A   1     -27.543   0.849  25.079  0.00  0.00    +0.255 C 
ATOM     30  C   UNL A   1     -26.354   0.576  25.777  0.00  0.00    +0.208 C 
ATOM     31  F   UNL A   1     -25.860  -0.681  25.795  0.00  0.00    -0.198 F 
BRANCH  26  32
ATOM     32  C   UNL A   1     -25.642   4.093  27.123  0.00  0.00    +0.268 C 
ATOM     33  N   UNL A   1     -25.614   5.252  26.449  0.00  0.00    -0.200 NA
ATOM     34  C   UNL A   1     -25.026   6.479  26.963  0.00  0.00    +0.139 C 
ATOM     35  O   UNL A   1     -25.143   3.966  28.243  0.00  0.00    -0.268 OA
ENDBRANCH  26  32
BRANCH  29  36
ATOM     36  O   UNL A   1     -28.193  -0.208  24.477  0.00  0.00    -0.456 OA
BRANCH  36  37
ATOM     37  C   UNL A   1     -29.460   0.005  23.866  0.00  0.00    +0.243 C 
BRANCH  37  38
ATOM     38  C   UNL A   1     -30.065  -1.377  23.573  0.00  0.00    +0.229 C 
ATOM     39  O   UNL A   1     -30.729  -1.878  24.721  0.00  0.00    -0.216 OA
ENDBRANCH  37  38
ENDBRANCH  36  37
ENDBRANCH  29  36
ENDBRANCH  24  25
ENDBRANCH   5  24
TORSDOF 11
