MODEL 341
MODEL 1
REMARK VINA RESULT:    -6.386      0.000      0.000
REMARK INTER + INTRA:          -6.386
REMARK INTER:                  -6.386
REMARK INTRA:                   0.000
REMARK UNBOUND:                 0.000
REMARK  Name = No_341-gen_results/8p0m/2024-11-27-11-27-31/
REMARK  0 active torsions:
REMARK  status: ('A' for Active; 'I' for Inactive)
REMARK                            x       y       z     vdW  Elec       q    Type
REMARK                         _______ _______ _______ _____ _____    ______ ____
ROOT
ATOM      1  C   UNL A   1     -26.075  -1.948  29.280  0.00  0.00    +0.000 A 
ATOM      2  C   UNL A   1     -25.722  -1.053  28.547  0.00  0.00    +0.000 A 
ATOM      3  C   UNL A   1     -24.392  -0.666  28.387  0.00  0.00    +0.000 A 
ATOM      4  C   UNL A   1     -23.367  -1.320  29.177  0.00  0.00    +0.000 A 
ATOM      5  C   UNL A   1     -23.854  -2.348  30.016  0.00  0.00    +0.000 A 
ATOM      6  C   UNL A   1     -25.127  -2.637  30.104  0.00  0.00    +0.000 A 
ATOM      7  C   UNL A   1     -23.886   0.413  27.499  0.00  0.00    +0.000 A 
ATOM      8  C   UNL A   1     -24.556   0.812  26.449  0.00  0.00    +0.000 A 
ATOM      9  C   UNL A   1     -24.018   1.806  25.566  0.00  0.00    +0.000 A 
ATOM     10  C   UNL A   1     -22.750   2.280  25.670  0.00  0.00    +0.000 A 
ATOM     11  C   UNL A   1     -22.526   0.898  27.637  0.00  0.00    +0.000 A 
ATOM     12  C   UNL A   1     -21.712   0.447  28.702  0.00  0.00    +0.000 A 
ATOM     13  C   UNL A   1     -21.981   1.890  26.667  0.00  0.00    +0.000 A 
ATOM     14  C   UNL A   1     -22.065  -0.768  29.403  0.00  0.00    +0.000 A 
ENDROOT
TORSDOF 0
ENDMDL
ENDMDL
