MODEL 3420
MODEL 1
REMARK VINA RESULT:    -5.198      0.000      0.000
REMARK INTER + INTRA:          -5.707
REMARK INTER:                  -5.502
REMARK INTRA:                  -0.205
REMARK UNBOUND:                -0.205
REMARK  Name = No_3420-gen_results/8p0m/2024-11-27-11-27-31/
REMARK  1 active torsions:
REMARK  status: ('A' for Active; 'I' for Inactive)
REMARK    1  A    between atoms: C_3  and  C_7
REMARK                            x       y       z     vdW  Elec       q    Type
REMARK                         _______ _______ _______ _____ _____    ______ ____
ROOT
ATOM      1  C   UNL A   1     -25.710  -2.639  29.877  0.00  0.00    +0.004 A 
ATOM      2  C   UNL A   1     -26.296  -3.515  29.877  0.00  0.00    -0.000 A 
ATOM      3  C   UNL A   1     -24.419  -2.797  29.196  0.00  0.00    +0.071 A 
ATOM      4  C   UNL A   1     -23.966  -3.983  28.787  0.00  0.00    +0.004 A 
ATOM      5  C   UNL A   1     -26.020  -4.886  29.523  0.00  0.00    -0.000 A 
ATOM      6  C   UNL A   1     -24.807  -5.017  28.915  0.00  0.00    -0.000 A 
ENDROOT
BRANCH   3   7
ATOM      7  C   UNL A   1     -23.568  -1.537  29.067  0.00  0.00    +0.419 C 
ATOM      8  F   UNL A   1     -22.420  -1.765  28.853  0.00  0.00    -0.166 F 
ATOM      9  F   UNL A   1     -23.733  -0.774  30.196  0.00  0.00    -0.166 F 
ATOM     10  F   UNL A   1     -24.019  -0.722  28.028  0.00  0.00    -0.166 F 
ENDBRANCH   3   7
TORSDOF 1
ENDMDL
ENDMDL
