MODEL 3421
MODEL 1
REMARK VINA RESULT:    -6.882      0.000      0.000
REMARK INTER + INTRA:          -7.755
REMARK INTER:                  -7.285
REMARK INTRA:                  -0.470
REMARK UNBOUND:                -0.470
REMARK  Name = No_3421-gen_results/8p0m/2024-11-27-11-27-31/
REMARK  1 active torsions:
REMARK  status: ('A' for Active; 'I' for Inactive)
REMARK    1  A    between atoms: C_3  and  C_7
REMARK                            x       y       z     vdW  Elec       q    Type
REMARK                         _______ _______ _______ _____ _____    ______ ____
ROOT
ATOM      1  C   UNL A   1     -24.165  -4.860  28.545  0.00  0.00    -0.000 A 
ATOM      2  C   UNL A   1     -23.835  -3.700  28.628  0.00  0.00    -0.000 A 
ATOM      3  C   UNL A   1     -24.613  -2.685  29.158  0.00  0.00    -0.004 A 
ATOM      4  C   UNL A   1     -25.893  -3.050  29.671  0.00  0.00    -0.022 A 
ATOM      5  C   UNL A   1     -26.170  -4.363  29.712  0.00  0.00    -0.004 A 
ATOM      6  C   UNL A   1     -25.355  -5.255  29.228  0.00  0.00    -0.000 A 
ATOM      7  C   UNL A   1     -26.719  -1.950  30.162  0.00  0.00    +0.031 C 
ENDROOT
BRANCH   3   8
ATOM      8  C   UNL A   1     -24.079  -1.295  28.949  0.00  0.00    -0.000 A 
ATOM      9  C   UNL A   1     -22.835  -1.008  29.382  0.00  0.00    -0.000 A 
ATOM     10  C   UNL A   1     -22.070  -0.277  29.058  0.00  0.00    -0.000 A 
ATOM     11  C   UNL A   1     -22.508   0.734  27.990  0.00  0.00    -0.000 A 
ATOM     12  C   UNL A   1     -23.769   0.571  27.501  0.00  0.00    -0.000 A 
ATOM     13  C   UNL A   1     -24.534  -0.464  27.910  0.00  0.00    -0.000 A 
ENDBRANCH   3   8
TORSDOF 1
ENDMDL
ENDMDL
