MODEL 3422
MODEL 1
REMARK VINA RESULT:    -7.773      0.000      0.000
REMARK INTER + INTRA:         -11.854
REMARK INTER:                 -10.954
REMARK INTRA:                  -0.899
REMARK UNBOUND:                -0.899
REMARK  Name = No_3422-gen_results/8p0m/2024-11-27-11-27-31/
REMARK  7 active torsions:
REMARK  status: ('A' for Active; 'I' for Inactive)
REMARK    1  A    between atoms: C_4  and  C_11
REMARK    2  A    between atoms: C_6  and  C_8
REMARK    3  A    between atoms: C_11  and  C_12
REMARK    4  A    between atoms: C_13  and  C_14
REMARK    5  A    between atoms: C_14  and  C_15
REMARK    6  A    between atoms: C_15  and  C_16
REMARK    7  A    between atoms: C_20  and  C_22
REMARK                            x       y       z     vdW  Elec       q    Type
REMARK                         _______ _______ _______ _____ _____    ______ ____
ROOT
ATOM      1  C   UNL A   1     -25.513   0.612  25.052  0.00  0.00    +0.031 C 
ENDROOT
BRANCH   1   2
ATOM      2  C   UNL A   1     -24.419   0.749  25.925  0.00  0.00    -0.022 A 
ATOM      3  C   UNL A   1     -23.668   1.986  25.869  0.00  0.00    -0.004 A 
ATOM      4  C   UNL A   1     -22.660   2.171  26.803  0.00  0.00    -0.000 A 
ATOM      5  C   UNL A   1     -22.523   1.369  27.903  0.00  0.00    +0.004 A 
ATOM      6  C   UNL A   1     -23.323   0.175  27.996  0.00  0.00    +0.053 A 
ATOM      7  C   UNL A   1     -24.296  -0.082  27.076  0.00  0.00    +0.000 A 
BRANCH   6   8
ATOM      8  C   UNL A   1     -23.114  -0.705  29.186  0.00  0.00    +0.249 C 
ATOM      9  N   UNL A   1     -23.739  -0.549  30.320  0.00  0.00    -0.276 N 
ATOM     10  C   UNL A   1     -23.517  -1.207  31.392  0.00  0.00    +0.094 C 
ATOM     11  C   UNL A   1     -24.705   0.508  30.413  0.00  0.00    +0.094 C 
ATOM     12  C   UNL A   1     -25.108   0.981  31.270  0.00  0.00    +0.022 C 
ATOM     13  C   UNL A   1     -24.118  -0.771  32.682  0.00  0.00    +0.022 C 
ATOM     14  C   UNL A   1     -24.979   0.334  32.656  0.00  0.00    +0.004 C 
ATOM     15  O   UNL A   1     -22.621  -1.854  28.950  0.00  0.00    -0.270 OA
ENDBRANCH   6   8
ENDBRANCH   1   2
BRANCH   1  16
ATOM     16  C   UNL A   1     -26.859   0.465  25.623  0.00  0.00    +0.030 C 
BRANCH  16  18
ATOM     17  C   UNL A   1     -28.180   1.249  23.652  0.00  0.00    -0.026 C 
ATOM     18  C   UNL A   1     -27.703   1.366  25.028  0.00  0.00    -0.030 C 
BRANCH  17  19
ATOM     19  C   UNL A   1     -29.267   2.013  23.270  0.00  0.00    +0.054 C 
BRANCH  19  23
ATOM     20  C   UNL A   1     -32.708   0.840  21.937  0.00  0.00    +0.029 A 
ATOM     21  C   UNL A   1     -32.787  -0.045  22.504  0.00  0.00    +0.009 A 
ATOM     22  C   UNL A   1     -31.524   1.677  22.184  0.00  0.00    +0.137 A 
ATOM     23  C   UNL A   1     -30.482   1.223  23.045  0.00  0.00    +0.010 A 
ATOM     24  C   UNL A   1     -30.698   0.019  23.668  0.00  0.00    +0.005 A 
ATOM     25  C   UNL A   1     -31.824  -0.697  23.409  0.00  0.00    +0.080 A 
ATOM     26  F   UNL A   1     -31.312   2.846  21.606  0.00  0.00    -0.204 F 
BRANCH  25  27
ATOM     27  C   UNL A   1     -32.045  -2.002  24.117  0.00  0.00    +0.388 C 
ATOM     28  O   UNL A   1     -33.119  -2.283  24.421  0.00  0.00    -0.241 OA
ATOM     29  O   UNL A   1     -30.992  -2.506  24.769  0.00  0.00    -0.241 OA
ENDBRANCH  25  27
ENDBRANCH  19  23
ENDBRANCH  17  19
ENDBRANCH  16  18
ENDBRANCH   1  16
TORSDOF 7
ENDMDL
ENDMDL
