MODEL 3423
MODEL 1
REMARK VINA RESULT:    -7.605      0.000      0.000
REMARK INTER + INTRA:         -13.062
REMARK INTER:                 -10.717
REMARK INTRA:                  -2.345
REMARK UNBOUND:                -2.345
REMARK  Name = No_3423-gen_results/8p0m/2024-11-27-11-27-31/
REMARK  7 active torsions:
REMARK  status: ('A' for Active; 'I' for Inactive)
REMARK    1  A    between atoms: C_3  and  C_9
REMARK    2  A    between atoms: C_6  and  C_7
REMARK    3  A    between atoms: C_17  and  C_18
REMARK    4  A    between atoms: C_22  and  C_26
REMARK    5  A    between atoms: C_26  and  O_28
REMARK    6  A    between atoms: O_28  and  C_29
REMARK    7  A    between atoms: C_29  and  C_30
REMARK                            x       y       z     vdW  Elec       q    Type
REMARK                         _______ _______ _______ _____ _____    ______ ____
ROOT
ATOM      1  O   UNL A   1     -29.482 -13.895   7.055  0.00  0.00    -0.274 OA
ATOM      2  C   UNL A   1     -28.373 -14.441   7.035  0.00  0.00    +0.235 C 
ATOM      3  C   UNL A   1     -27.385 -14.248   6.777  0.00  0.00    +0.100 C 
ATOM      4  N   UNL A   1     -28.571 -16.027   7.270  0.00  0.00    -0.226 N 
ATOM      5  C   UNL A   1     -26.124 -15.043   6.620  0.00  0.00    +0.026 C 
ATOM      6  C   UNL A   1     -26.356 -16.421   6.965  0.00  0.00    +0.124 C 
ATOM      7  C   UNL A   1     -27.627 -16.911   7.262  0.00  0.00    +0.112 C 
ATOM      8  C   UNL A   1     -29.982 -16.403   7.620  0.00  0.00    +0.255 C 
ATOM      9  O   UNL A   1     -30.409 -17.214   6.776  0.00  0.00    -0.270 OA
ENDROOT
BRANCH   3  10
ATOM     10  C   UNL A   1     -26.962 -12.768   6.425  0.00  0.00    -0.013 A 
ATOM     11  C   UNL A   1     -26.950 -11.830   7.340  0.00  0.00    -0.004 A 
ATOM     12  C   UNL A   1     -26.361 -10.600   7.068  0.00  0.00    +0.000 A 
ATOM     13  C   UNL A   1     -25.697 -10.354   5.832  0.00  0.00    +0.007 A 
ATOM     14  C   UNL A   1     -25.661 -11.419   4.917  0.00  0.00    +0.034 A 
ATOM     15  C   UNL A   1     -26.293 -12.626   5.203  0.00  0.00    +0.003 A 
ATOM     16 BR   UNL A   1     -24.958 -10.898   3.322  0.00  0.00    -0.049 Br
ENDBRANCH   3  10
BRANCH   8  17
ATOM     17  C   UNL A   1     -30.586 -15.958   8.773  0.00  0.00    +0.054 A 
ATOM     18  C   UNL A   1     -31.847 -15.483   8.705  0.00  0.00    +0.004 A 
ATOM     19  C   UNL A   1     -32.465 -14.988   9.868  0.00  0.00    +0.000 A 
ATOM     20  C   UNL A   1     -31.873 -14.672  10.678  0.00  0.00    +0.006 A 
ATOM     21  C   UNL A   1     -30.501 -15.005  11.000  0.00  0.00    +0.076 A 
ATOM     22  C   UNL A   1     -29.825 -15.668   9.954  0.00  0.00    +0.011 A 
BRANCH  21  23
ATOM     23  C   UNL A   1     -29.777 -14.754  12.263  0.00  0.00    +0.342 C 
ATOM     24  O   UNL A   1     -29.038 -15.486  12.692  0.00  0.00    -0.245 OA
BRANCH  23  25
ATOM     25  O   UNL A   1     -30.143 -13.614  12.891  0.00  0.00    -0.440 OA
BRANCH  25  26
ATOM     26  C   UNL A   1     -29.607 -12.498  12.775  0.00  0.00    +0.235 C 
BRANCH  26  27
ATOM     27  C   UNL A   1     -29.958 -11.806  11.862  0.00  0.00    +0.021 A 
ATOM     28  C   UNL A   1     -31.111 -11.062  11.730  0.00  0.00    -0.001 A 
ATOM     29  C   UNL A   1     -31.476 -10.107  10.687  0.00  0.00    -0.000 A 
ATOM     30  C   UNL A   1     -30.552  -9.940   9.627  0.00  0.00    -0.000 A 
ATOM     31  C   UNL A   1     -29.356 -10.627   9.621  0.00  0.00    -0.000 A 
ATOM     32  C   UNL A   1     -29.047 -11.488  10.671  0.00  0.00    -0.001 A 
ENDBRANCH  26  27
ENDBRANCH  25  26
ENDBRANCH  23  25
ENDBRANCH  21  23
ENDBRANCH   8  17
BRANCH   6  33
ATOM     33  C   UNL A   1     -25.221 -17.383   6.851  0.00  0.00    +0.366 C 
ATOM     34  O   UNL A   1     -24.147 -17.033   6.280  0.00  0.00    -0.246 OA
ATOM     35  O   UNL A   1     -25.273 -18.550   7.481  0.00  0.00    -0.246 OA
ENDBRANCH   6  33
TORSDOF 7
ENDMDL
ENDMDL
