REMARK  Name = No_3423-gen_results/8p0m/2024-11-27-11-27-31/
REMARK  7 active torsions:
REMARK  status: ('A' for Active; 'I' for Inactive)
REMARK    1  A    between atoms: C_3  and  C_9
REMARK    2  A    between atoms: C_6  and  C_7
REMARK    3  A    between atoms: C_17  and  C_18
REMARK    4  A    between atoms: C_22  and  C_26
REMARK    5  A    between atoms: C_26  and  O_28
REMARK    6  A    between atoms: O_28  and  C_29
REMARK    7  A    between atoms: C_29  and  C_30
REMARK                            x       y       z     vdW  Elec       q    Type
REMARK                         _______ _______ _______ _____ _____    ______ ____
ROOT
ATOM      1  O   UNL A   1     -28.123  -1.335  28.487  0.00  0.00    -0.274 OA
ATOM      2  C   UNL A   1     -27.064  -0.824  28.869  0.00  0.00    +0.235 C 
ATOM      3  C   UNL A   1     -26.402  -0.062  28.622  0.00  0.00    +0.100 C 
ATOM      4  N   UNL A   1     -26.381  -1.799  29.962  0.00  0.00    -0.226 N 
ATOM      5  C   UNL A   1     -25.033   0.374  29.048  0.00  0.00    +0.026 C 
ATOM      6  C   UNL A   1     -24.546  -0.470  30.107  0.00  0.00    +0.124 C 
ATOM      7  C   UNL A   1     -25.240  -1.601  30.536  0.00  0.00    +0.112 C 
ATOM      8  C   UNL A   1     -27.259  -2.951  30.358  0.00  0.00    +0.255 C 
ATOM      9  O   UNL A   1     -26.667  -4.019  30.109  0.00  0.00    -0.270 OA
ENDROOT
BRANCH   3  10
ATOM     10  C   UNL A   1     -26.818   0.981  27.512  0.00  0.00    -0.013 A 
ATOM     11  C   UNL A   1     -26.019   1.262  26.512  0.00  0.00    -0.004 A 
ATOM     12  C   UNL A   1     -26.489   2.001  25.432  0.00  0.00    +0.000 A 
ATOM     13  C   UNL A   1     -27.853   2.402  25.346  0.00  0.00    +0.007 A 
ATOM     14  C   UNL A   1     -28.691   2.003  26.401  0.00  0.00    +0.034 A 
ATOM     15  C   UNL A   1     -28.182   1.297  27.487  0.00  0.00    +0.003 A 
ATOM     16 BR   UNL A   1     -30.343   2.749  26.252  0.00  0.00    -0.049 Br
ENDBRANCH   3  10
BRANCH   8  17
ATOM     17  C   UNL A   1     -28.464  -2.760  30.993  0.00  0.00    +0.054 A 
ATOM     18  C   UNL A   1     -29.237  -3.834  31.259  0.00  0.00    +0.004 A 
ATOM     19  C   UNL A   1     -30.490  -3.651  31.872  0.00  0.00    +0.000 A 
ATOM     20  C   UNL A   1     -30.967  -2.716  31.813  0.00  0.00    +0.006 A 
ATOM     21  C   UNL A   1     -30.403  -1.411  31.537  0.00  0.00    +0.076 A 
ATOM     22  C   UNL A   1     -29.072  -1.463  31.073  0.00  0.00    +0.011 A 
BRANCH  21  23
ATOM     23  C   UNL A   1     -31.042  -0.090  31.706  0.00  0.00    +0.342 C 
ATOM     24  O   UNL A   1     -31.803   0.311  30.980  0.00  0.00    -0.245 OA
BRANCH  23  25
ATOM     25  O   UNL A   1     -30.570   0.621  32.755  0.00  0.00    -0.440 OA
BRANCH  25  26
ATOM     26  C   UNL A   1     -30.484   1.859  32.833  0.00  0.00    +0.235 C 
BRANCH  26  27
ATOM     27  C   UNL A   1     -29.390   2.333  32.954  0.00  0.00    +0.021 A 
ATOM     28  C   UNL A   1     -28.295   1.827  33.620  0.00  0.00    -0.001 A 
ATOM     29  C   UNL A   1     -26.923   2.328  33.649  0.00  0.00    -0.000 A 
ATOM     30  C   UNL A   1     -26.669   3.526  32.939  0.00  0.00    -0.000 A 
ATOM     31  C   UNL A   1     -27.674   4.151  32.230  0.00  0.00    -0.000 A 
ATOM     32  C   UNL A   1     -28.951   3.595  32.204  0.00  0.00    -0.001 A 
ENDBRANCH  26  27
ENDBRANCH  25  26
ENDBRANCH  23  25
ENDBRANCH  21  23
ENDBRANCH   8  17
BRANCH   6  33
ATOM     33  C   UNL A   1     -23.183  -0.209  30.655  0.00  0.00    +0.366 C 
ATOM     34  O   UNL A   1     -22.500   0.764  30.221  0.00  0.00    -0.246 OA
ATOM     35  O   UNL A   1     -22.745  -0.896  31.703  0.00  0.00    -0.246 OA
ENDBRANCH   6  33
TORSDOF 7
