MODEL 3425
MODEL 1
REMARK VINA RESULT:    -8.083      0.000      0.000
REMARK INTER + INTRA:         -15.346
REMARK INTER:                 -11.391
REMARK INTRA:                  -3.955
REMARK UNBOUND:                -3.955
REMARK  Name = No_3425-gen_results/8p0m/2024-11-27-11-27-31/
REMARK  7 active torsions:
REMARK  status: ('A' for Active; 'I' for Inactive)
REMARK    1  A    between atoms: C_3  and  C_7
REMARK    2  A    between atoms: C_4  and  C_27
REMARK    3  A    between atoms: C_7  and  C_8
REMARK    4  A    between atoms: C_7  and  C_9
REMARK    5  A    between atoms: C_8  and  C_19
REMARK    6  A    between atoms: C_11  and  C_12
REMARK    7  A    between atoms: C_27  and  C_30
REMARK                            x       y       z     vdW  Elec       q    Type
REMARK                         _______ _______ _______ _____ _____    ______ ____
ROOT
ATOM      1  C   UNL A   1      -9.728   0.740  36.287  0.00  0.00    +0.050 C 
ENDROOT
BRANCH   1   4
ATOM      2  C   UNL A   1      -7.876  -0.616  35.147  0.00  0.00    -0.004 A 
ATOM      3  C   UNL A   1      -6.917  -0.613  34.711  0.00  0.00    -0.000 A 
ATOM      4  C   UNL A   1      -8.365   0.601  35.673  0.00  0.00    -0.018 A 
ATOM      5  C   UNL A   1      -7.621   1.763  35.638  0.00  0.00    +0.004 A 
ATOM      6  C   UNL A   1      -5.932   0.474  34.545  0.00  0.00    -0.000 A 
ATOM      7  C   UNL A   1      -6.360   1.658  35.036  0.00  0.00    +0.000 A 
BRANCH   5   8
ATOM      8  C   UNL A   1      -8.017   3.087  36.120  0.00  0.00    +0.038 C 
ATOM      9  C   UNL A   1      -8.005   3.564  37.036  0.00  0.00    -0.015 C 
ATOM     10  C   UNL A   1      -8.418   4.868  37.458  0.00  0.00    -0.008 C 
ATOM     11  C   UNL A   1      -8.462   5.201  38.818  0.00  0.00    -0.026 C 
ATOM     12  C   UNL A   1      -7.529   2.955  38.386  0.00  0.00    +0.027 C 
ATOM     13  C   UNL A   1      -6.537   1.987  38.342  0.00  0.00    +0.005 C 
ATOM     14  C   UNL A   1      -7.416   4.175  39.418  0.00  0.00    +0.030 C 
BRANCH   8  15
ATOM     15  C   UNL A   1      -8.490   4.001  34.981  0.00  0.00    -0.051 C 
ATOM     16  C   UNL A   1      -8.791   4.071  33.972  0.00  0.00    -0.009 C 
ENDBRANCH   8  15
ENDBRANCH   5   8
ENDBRANCH   1   4
BRANCH   1  17
ATOM     17  C   UNL A   1     -10.809   1.267  35.618  0.00  0.00    +0.001 A 
ATOM     18  C   UNL A   1     -11.855   1.856  36.247  0.00  0.00    -0.001 A 
ATOM     19  C   UNL A   1     -12.942   2.243  35.442  0.00  0.00    +0.019 A 
ATOM     20  C   UNL A   1     -10.835   1.138  34.216  0.00  0.00    +0.095 A 
ATOM     21  C   UNL A   1     -12.938   2.032  34.076  0.00  0.00    +0.099 A 
ATOM     22  N   UNL A   1     -11.819   1.490  33.489  0.00  0.00    -0.243 NA
BRANCH  19  23
ATOM     23  C   UNL A   1     -14.084   2.789  36.064  0.00  0.00    +0.002 A 
ATOM     24  C   UNL A   1     -15.044   3.271  35.422  0.00  0.00    +0.000 A 
ATOM     25  C   UNL A   1     -16.226   3.766  36.129  0.00  0.00    +0.000 A 
ATOM     26  C   UNL A   1     -16.254   3.800  37.519  0.00  0.00    +0.000 A 
ATOM     27  C   UNL A   1     -14.276   2.878  37.464  0.00  0.00    +0.000 A 
ATOM     28  C   UNL A   1     -15.235   3.345  38.137  0.00  0.00    +0.000 A 
ENDBRANCH  19  23
ENDBRANCH   1  17
BRANCH   1  29
ATOM     29  C   UNL A   1      -9.803   0.298  37.578  0.00  0.00    +0.035 C 
BRANCH  29  30
ATOM     30  C   UNL A   1     -10.710  -0.685  38.009  0.00  0.00    -0.021 A 
ATOM     31  C   UNL A   1     -10.906  -1.897  37.337  0.00  0.00    -0.004 A 
ATOM     32  C   UNL A   1     -11.823  -2.848  37.831  0.00  0.00    -0.000 A 
ATOM     33  C   UNL A   1     -12.384  -2.635  39.093  0.00  0.00    -0.000 A 
ATOM     34  C   UNL A   1     -12.107  -1.463  39.836  0.00  0.00    -0.000 A 
ATOM     35  C   UNL A   1     -11.227  -0.550  39.293  0.00  0.00    -0.004 A 
ENDBRANCH  29  30
ENDBRANCH   1  29
TORSDOF 7
ENDMDL
ENDMDL
