MODEL 3426
MODEL 1
REMARK VINA RESULT:    -6.407      0.000      0.000
REMARK INTER + INTRA:          -8.391
REMARK INTER:                  -7.905
REMARK INTRA:                  -0.487
REMARK UNBOUND:                -0.487
REMARK  Name = No_3426-gen_results/8p0m/2024-11-27-11-27-31/
REMARK  4 active torsions:
REMARK  status: ('A' for Active; 'I' for Inactive)
REMARK    1  A    between atoms: C_4  and  C_14
REMARK    2  A    between atoms: C_5  and  C_11
REMARK    3  A    between atoms: C_8  and  O_17
REMARK    4  A    between atoms: O_17  and  C_18
REMARK                            x       y       z     vdW  Elec       q    Type
REMARK                         _______ _______ _______ _____ _____    ______ ____
ROOT
ATOM      1  C   UNL A   1      -9.640   3.758   9.869  0.00  0.00    +0.037 A 
ATOM      2  C   UNL A   1      -9.095   2.683   9.967  0.00  0.00    +0.003 A 
ATOM      3  C   UNL A   1      -8.246   2.139   9.143  0.00  0.00    +0.007 A 
ATOM      4  C   UNL A   1      -7.594   0.816   9.302  0.00  0.00    +0.086 A 
ATOM      5  C   UNL A   1      -7.896   0.101  10.496  0.00  0.00    +0.086 A 
ATOM      6  C   UNL A   1      -8.743   0.698  11.395  0.00  0.00    +0.007 A 
ATOM      7  C   UNL A   1      -9.307   1.915  11.219  0.00  0.00    +0.000 A 
ATOM      8  C   UNL A   1      -9.741   4.256   8.557  0.00  0.00    +0.145 A 
ATOM      9  C   UNL A   1      -8.948   3.759   7.559  0.00  0.00    +0.037 A 
ATOM     10  C   UNL A   1      -8.272   2.580   7.785  0.00  0.00    +0.003 A 
ENDROOT
BRANCH   5  11
ATOM     11  C   UNL A   1      -7.239  -1.133  10.879  0.00  0.00    +0.388 C 
ATOM     12  O   UNL A   1      -7.569  -2.158  10.530  0.00  0.00    -0.240 OA
ATOM     13  O   UNL A   1      -6.057  -1.011  11.609  0.00  0.00    -0.240 OA
ENDBRANCH   5  11
BRANCH   4  14
ATOM     14  C   UNL A   1      -6.642   0.208   8.354  0.00  0.00    +0.388 C 
ATOM     15  O   UNL A   1      -6.686  -0.466   7.587  0.00  0.00    -0.240 OA
ATOM     16  O   UNL A   1      -5.382   0.649   8.413  0.00  0.00    -0.240 OA
ENDBRANCH   4  14
BRANCH   8  17
ATOM     17  O   UNL A   1     -10.386   5.313   8.182  0.00  0.00    -0.451 OA
BRANCH  17  18
ATOM     18  C   UNL A   1     -11.592   5.645   8.686  0.00  0.00    +0.175 C 
ATOM     19  C   UNL A   1     -12.130   6.695   8.517  0.00  0.00    +0.015 C 
ATOM     20  C   UNL A   1     -13.438   7.059   9.170  0.00  0.00    +0.034 C 
ENDBRANCH  17  18
ENDBRANCH   8  17
TORSDOF 4
ENDMDL
ENDMDL
