REMARK  Name = outputs/IAG933/test6/raw/output_3426_IAG933_linker_design_.xyz
REMARK  9 active torsions:
REMARK  status: ('A' for Active; 'I' for Inactive)
REMARK    1  A    between atoms: C_1  and  C_2
REMARK    2  A    between atoms: C_1  and  C_8
REMARK    3  A    between atoms: C_1  and  N_29
REMARK    4  A    between atoms: C_13  and  N_30
REMARK    5  A    between atoms: C_14  and  C_15
REMARK    6  A    between atoms: C_21  and  O_22
REMARK    7  A    between atoms: O_22  and  C_23
REMARK    8  A    between atoms: C_23  and  C_24
REMARK    9  A    between atoms: O_33  and  C_44
REMARK                            x       y       z     vdW  Elec       q    Type
REMARK                         _______ _______ _______ _____ _____    ______ ____
ROOT
ATOM      1  C   UNL A   1     -30.923  -0.698  28.963  0.00  0.00    +0.040 C 
ATOM      2  N   UNL A   1     -24.627   0.079  29.246  0.00  0.00    -0.182 N 
ATOM      3  N   UNL A   1     -24.898   1.144  27.456  0.00  0.00    -0.180 N 
ATOM      4  C   UNL A   1     -31.005  -0.470  30.505  0.00  0.00    +0.036 C 
ATOM      5  C   UNL A   1     -27.080   0.479  28.643  0.00  0.00    -0.027 C 
ATOM      6  C   UNL A   1     -22.494   1.242  27.923  0.00  0.00    +0.152 C 
ATOM      7  N   UNL A   1     -21.323   1.538  27.893  0.00  0.00    -0.149 NA
ATOM      8  C   UNL A   1     -29.103   1.038  30.129  0.00  0.00    +0.065 C 
ATOM      9  C   UNL A   1     -29.749   0.015  28.353  0.00  0.00    +0.178 C 
ATOM     10  C   UNL A   1     -28.577   0.609  28.826  0.00  0.00    +0.029 C 
ATOM     11  O   UNL A   1     -29.453  -0.573  27.050  0.00  0.00    -0.218 OA
ATOM     12  C   UNL A   1     -23.109   0.643  29.135  0.00  0.00    +0.251 C 
ATOM     13  C   UNL A   1     -25.500   0.475  28.488  0.00  0.00    +0.309 C 
ATOM     14  C   UNL A   1     -23.640   1.300  26.899  0.00  0.00    +0.251 C 
ATOM     15  C   UNL A   1     -29.582  -0.056  30.960  0.00  0.00    +0.160 C 
ENDROOT
BRANCH   3  16
ATOM     16  C   UNL A   1     -25.688   1.614  26.461  0.00  0.00    +0.231 C 
ATOM     17  C   UNL A   1     -26.250   2.920  26.395  0.00  0.00    +0.097 C 
ATOM     18  C   UNL A   1     -27.438   3.091  25.645  0.00  0.00    +0.106 C 
ATOM     19  N   UNL A   1     -28.075   2.089  25.003  0.00  0.00    -0.212 NA
ATOM     20  C   UNL A   1     -27.543   0.849  25.079  0.00  0.00    +0.238 C 
ATOM     21  C   UNL A   1     -26.354   0.576  25.777  0.00  0.00    +0.282 C 
ATOM     22  F   UNL A   1     -25.860  -0.681  25.795  0.00  0.00    -0.223 F 
BRANCH  17  23
ATOM     23  C   UNL A   1     -25.642   4.093  27.123  0.00  0.00    +0.266 C 
ATOM     24  N   UNL A   1     -25.614   5.252  26.449  0.00  0.00    -0.200 NA
ATOM     25  C   UNL A   1     -25.026   6.479  26.963  0.00  0.00    +0.139 C 
ATOM     26  O   UNL A   1     -25.143   3.966  28.243  0.00  0.00    -0.269 OA
ENDBRANCH  17  23
BRANCH  20  27
ATOM     27  O   UNL A   1     -28.193  -0.208  24.477  0.00  0.00    -0.458 OA
BRANCH  27  28
ATOM     28  C   UNL A   1     -29.460   0.005  23.866  0.00  0.00    +0.242 C 
BRANCH  28  29
ATOM     29  C   UNL A   1     -30.065  -1.377  23.573  0.00  0.00    +0.229 C 
ATOM     30  O   UNL A   1     -30.729  -1.878  24.721  0.00  0.00    -0.216 OA
ENDBRANCH  28  29
ENDBRANCH  27  28
ENDBRANCH  20  27
ENDBRANCH   3  16
BRANCH  15  31
ATOM     31  O   UNL A   1     -28.875  -1.201  30.948  0.00  0.00    -0.191 OA
ATOM     32  O   UNL A   1     -29.491  -1.865  31.973  0.00  0.00    -0.035 OA
ENDBRANCH  15  31
BRANCH   2  33
ATOM     33  C   UNL A   1     -24.855  -1.012  30.143  0.00  0.00    +0.199 C 
BRANCH  33  34
ATOM     34  C   UNL A   1     -24.973  -2.505  29.788  0.00  0.00    +0.021 C 
ATOM     35  C   UNL A   1     -23.906  -3.173  29.146  0.00  0.00    -0.000 C 
ATOM     36  C   UNL A   1     -23.989  -4.549  28.853  0.00  0.00    -0.000 C 
ATOM     37  C   UNL A   1     -25.137  -5.280  29.205  0.00  0.00    -0.000 C 
ATOM     38  C   UNL A   1     -26.232  -4.611  29.784  0.00  0.00    -0.000 C 
ATOM     39  C   UNL A   1     -26.155  -3.232  30.065  0.00  0.00    -0.000 C 
ENDBRANCH  33  34
BRANCH  33  40
ATOM     40  C   UNL A   1     -25.387  -0.679  31.571  0.00  0.00    +0.120 C 
ATOM     41  C   UNL A   1     -25.189   0.773  32.028  0.00  0.00    +0.023 C 
ATOM     42  C   UNL A   1     -25.336   0.684  33.544  0.00  0.00    +0.020 C 
ATOM     43  C   UNL A   1     -24.829  -0.715  33.905  0.00  0.00    +0.089 C 
ATOM     44  N   UNL A   1     -24.758  -1.481  32.646  0.00  0.00    -0.215 NA
ENDBRANCH  33  40
ENDBRANCH   2  33
TORSDOF 9
