MODEL 3428
MODEL 1
REMARK VINA RESULT:    -5.890      0.000      0.000
REMARK INTER + INTRA:         -10.610
REMARK INTER:                  -9.333
REMARK INTRA:                  -1.277
REMARK UNBOUND:                -1.277
REMARK  Name = No_3428-gen_results/8p0m/2024-11-27-11-27-31/
REMARK  10 active torsions:
REMARK  status: ('A' for Active; 'I' for Inactive)
REMARK    1  A    between atoms: C_2  and  C_11
REMARK    2  A    between atoms: C_3  and  C_7
REMARK    3  A    between atoms: C_6  and  C_14
REMARK    4  A    between atoms: C_11  and  O_13
REMARK    5  A    between atoms: O_13  and  C_21
REMARK    6  A    between atoms: C_14  and  O_16
REMARK    7  A    between atoms: O_16  and  C_17
REMARK    8  A    between atoms: C_17  and  C_18
REMARK    9  A    between atoms: C_21  and  C_22
REMARK   10  A    between atoms: C_22  and  C_24
REMARK                            x       y       z     vdW  Elec       q    Type
REMARK                         _______ _______ _______ _____ _____    ______ ____
ROOT
ATOM      1  C   UNL A   1     -31.295 -15.858   8.463  0.00  0.00    +0.010 A 
ATOM      2  C   UNL A   1     -30.285 -15.894   8.760  0.00  0.00    +0.076 A 
ATOM      3  C   UNL A   1     -32.201 -15.406   9.518  0.00  0.00    +0.072 A 
ATOM      4  C   UNL A   1     -31.750 -15.049  10.765  0.00  0.00    +0.010 A 
ATOM      5  C   UNL A   1     -29.535 -15.581   9.976  0.00  0.00    +0.013 A 
ATOM      6  C   UNL A   1     -30.403 -15.142  11.004  0.00  0.00    +0.076 A 
ENDROOT
BRANCH   3   7
ATOM      7  C   UNL A   1     -33.667 -15.243   9.270  0.00  0.00    +0.419 C 
ATOM      8  F   UNL A   1     -34.031 -15.752   8.353  0.00  0.00    -0.166 F 
ATOM      9  F   UNL A   1     -34.002 -13.887   9.129  0.00  0.00    -0.166 F 
ATOM     10  F   UNL A   1     -34.377 -15.615  10.412  0.00  0.00    -0.166 F 
ENDBRANCH   3   7
BRANCH   2  11
ATOM     11  C   UNL A   1     -29.176 -16.292   7.621  0.00  0.00    +0.341 C 
ATOM     12  O   UNL A   1     -28.716 -15.413   6.870  0.00  0.00    -0.245 OA
BRANCH  11  13
ATOM     13  O   UNL A   1     -28.699 -17.407   7.499  0.00  0.00    -0.442 OA
BRANCH  13  14
ATOM     14  C   UNL A   1     -27.412 -17.666   7.547  0.00  0.00    +0.249 C 
BRANCH  14  15
ATOM     15  C   UNL A   1     -26.685 -17.338   8.673  0.00  0.00    +0.259 C 
ATOM     16  O   UNL A   1     -26.071 -16.376   8.771  0.00  0.00    -0.211 OA
BRANCH  15  17
ATOM     17  C   UNL A   1     -26.835 -18.174   9.895  0.00  0.00    +0.244 C 
ATOM     18  O   UNL A   1     -26.853 -17.976  10.880  0.00  0.00    -0.285 OA
ENDBRANCH  15  17
ENDBRANCH  14  15
ENDBRANCH  13  14
ENDBRANCH  11  13
ENDBRANCH   2  11
BRANCH   6  19
ATOM     19  C   UNL A   1     -29.856 -14.794  12.340  0.00  0.00    +0.342 C 
ATOM     20  O   UNL A   1     -29.044 -15.316  12.878  0.00  0.00    -0.245 OA
BRANCH  19  21
ATOM     21  O   UNL A   1     -30.390 -13.611  12.789  0.00  0.00    -0.433 OA
BRANCH  21  22
ATOM     22  C   UNL A   1     -29.755 -12.473  12.543  0.00  0.00    +0.322 C 
BRANCH  22  23
ATOM     23  C   UNL A   1     -30.465 -11.571  11.627  0.00  0.00    +0.409 C 
ATOM     24  O   UNL A   1     -31.197 -10.895  12.008  0.00  0.00    -0.241 OA
ATOM     25  O   UNL A   1     -29.944 -11.638  10.377  0.00  0.00    -0.241 OA
ENDBRANCH  22  23
ENDBRANCH  21  22
ENDBRANCH  19  21
ENDBRANCH   6  19
TORSDOF 10
ENDMDL
ENDMDL
