MODEL 342
MODEL 1
REMARK VINA RESULT:    -6.741      0.000      0.000
REMARK INTER + INTRA:         -14.181
REMARK INTER:                  -9.893
REMARK INTRA:                  -4.288
REMARK UNBOUND:                -4.288
REMARK  Name = No_342-gen_results/8p0m/2024-11-27-11-27-31/
REMARK  8 active torsions:
REMARK  status: ('A' for Active; 'I' for Inactive)
REMARK    1  A    between atoms: C_4  and  C_11
REMARK    2  A    between atoms: C_7  and  O_17
REMARK    3  A    between atoms: C_12  and  O_22
REMARK    4  A    between atoms: O_17  and  C_18
REMARK    5  A    between atoms: C_18  and  C_19
REMARK    6  A    between atoms: O_22  and  C_23
REMARK    7  A    between atoms: C_23  and  C_24
REMARK    8  A    between atoms: C_25  and  C_26
REMARK                            x       y       z     vdW  Elec       q    Type
REMARK                         _______ _______ _______ _____ _____    ______ ____
ROOT
ATOM      1  C   UNL A   1     -31.758  -9.511  26.985  0.00  0.00    +0.035 A 
ATOM      2  C   UNL A   1     -32.924  -9.979  26.706  0.00  0.00    +0.149 A 
ATOM      3  C   UNL A   1     -33.906  -9.127  26.151  0.00  0.00    +0.038 A 
ATOM      4  C   UNL A   1     -31.444  -8.186  26.959  0.00  0.00    +0.003 A 
ATOM      5  C   UNL A   1     -32.388  -7.247  26.556  0.00  0.00    +0.000 A 
ATOM      6  C   UNL A   1     -33.690  -7.746  26.203  0.00  0.00    +0.003 A 
ENDROOT
BRANCH   1  10
ATOM      7  C   UNL A   1     -30.256 -10.046  30.953  0.00  0.00    +0.037 A 
ATOM      8  C   UNL A   1     -30.703  -9.879  29.842  0.00  0.00    +0.003 A 
ATOM      9  C   UNL A   1     -30.229 -10.611  28.759  0.00  0.00    +0.000 A 
ATOM     10  C   UNL A   1     -30.689 -10.491  27.346  0.00  0.00    +0.003 A 
ATOM     11  C   UNL A   1     -30.172 -11.244  26.235  0.00  0.00    +0.000 A 
ATOM     12  C   UNL A   1     -29.345 -12.323  26.651  0.00  0.00    +0.000 A 
ATOM     13  C   UNL A   1     -29.065 -10.911  31.146  0.00  0.00    +0.139 A 
ATOM     14  C   UNL A   1     -28.600 -11.724  30.138  0.00  0.00    +0.037 A 
ATOM     15  C   UNL A   1     -29.128 -11.588  28.860  0.00  0.00    +0.003 A 
ATOM     16  C   UNL A   1     -28.739 -12.427  27.800  0.00  0.00    +0.000 A 
BRANCH  13  17
ATOM     17  O   UNL A   1     -28.565 -11.045  32.429  0.00  0.00    -0.464 OA
BRANCH  17  18
ATOM     18  C   UNL A   1     -27.651 -12.021  32.689  0.00  0.00    +0.319 C 
BRANCH  18  19
ATOM     19  C   UNL A   1     -27.439 -12.111  34.050  0.00  0.00    +0.408 C 
ATOM     20  O   UNL A   1     -26.838 -11.232  34.549  0.00  0.00    -0.241 OA
ATOM     21  O   UNL A   1     -28.290 -12.731  34.801  0.00  0.00    -0.241 OA
ENDBRANCH  18  19
ENDBRANCH  17  18
ENDBRANCH  13  17
ENDBRANCH   1  10
BRANCH   2  22
ATOM     22  O   UNL A   1     -33.289 -11.314  26.681  0.00  0.00    -0.421 OA
BRANCH  22  23
ATOM     23  C   UNL A   1     -34.001 -12.021  27.624  0.00  0.00    +0.346 C 
ATOM     24  O   UNL A   1     -35.216 -11.997  27.591  0.00  0.00    -0.244 OA
BRANCH  23  25
ATOM     25  C   UNL A   1     -33.215 -12.533  28.665  0.00  0.00    +0.082 C 
ATOM     26  C   UNL A   1     -32.493 -13.515  28.683  0.00  0.00    +0.007 C 
BRANCH  26  27
ATOM     27  C   UNL A   1     -31.624 -13.986  29.792  0.00  0.00    +0.000 A 
ATOM     28  C   UNL A   1     -30.871 -14.686  29.772  0.00  0.00    +0.000 A 
ATOM     29  C   UNL A   1     -30.016 -15.229  30.797  0.00  0.00    +0.000 A 
ATOM     30  C   UNL A   1     -30.201 -14.663  32.036  0.00  0.00    +0.000 A 
ATOM     31  C   UNL A   1     -31.128 -13.691  32.181  0.00  0.00    +0.000 A 
ATOM     32  C   UNL A   1     -31.906 -13.329  31.092  0.00  0.00    +0.000 A 
ENDBRANCH  26  27
ENDBRANCH  23  25
ENDBRANCH  22  23
ENDBRANCH   2  22
TORSDOF 8
ENDMDL
ENDMDL
