MODEL 3431
MODEL 1
REMARK VINA RESULT:    -4.265      0.000      0.000
REMARK INTER + INTRA:          -4.965
REMARK INTER:                  -4.763
REMARK INTRA:                  -0.201
REMARK UNBOUND:                -0.201
REMARK  Name = No_3431-gen_results/8p0m/2024-11-27-11-27-31/
REMARK  2 active torsions:
REMARK  status: ('A' for Active; 'I' for Inactive)
REMARK    1  A    between atoms: C_2  and  C_4
REMARK    2  A    between atoms: C_4  and  C_5
REMARK                            x       y       z     vdW  Elec       q    Type
REMARK                         _______ _______ _______ _____ _____    ______ ____
ROOT
ATOM      1  C   UNL A   1      -7.514  -9.276  19.910  0.00  0.00    +0.084 C 
ENDROOT
BRANCH   1   3
ATOM      2  F   UNL A   1      -6.869  -7.768  18.291  0.00  0.00    -0.198 F 
ATOM      3  C   UNL A   1      -7.043  -7.928  19.506  0.00  0.00    +0.319 C 
ATOM      4  F   UNL A   1      -6.997  -7.141  20.255  0.00  0.00    -0.198 F 
ENDBRANCH   1   3
BRANCH   1   5
ATOM      5  C   UNL A   1      -8.766  -9.549  19.425  0.00  0.00    +0.063 C 
ATOM      6 BR   UNL A   1      -9.192 -10.206  17.975  0.00  0.00    -0.082 Br
ATOM      7  C   UNL A   1      -9.952  -9.098  20.212  0.00  0.00    +0.012 C 
ENDBRANCH   1   5
TORSDOF 2
ENDMDL
ENDMDL
