MODEL 3432
MODEL 1
REMARK VINA RESULT:    -6.513      0.000      0.000
REMARK INTER + INTRA:          -7.688
REMARK INTER:                  -7.274
REMARK INTRA:                  -0.413
REMARK UNBOUND:                -0.413
REMARK  Name = No_3432-gen_results/8p0m/2024-11-27-11-27-31/
REMARK  2 active torsions:
REMARK  status: ('A' for Active; 'I' for Inactive)
REMARK    1  A    between atoms: N_7  and  C_8
REMARK    2  A    between atoms: N_7  and  C_14
REMARK                            x       y       z     vdW  Elec       q    Type
REMARK                         _______ _______ _______ _____ _____    ______ ____
ROOT
ATOM      1  N   UNL A   1     -25.396  -2.591  30.067  0.00  0.00    -0.229 NA
ATOM      2  C   UNL A   1     -24.432  -2.594  29.617  0.00  0.00    +0.139 A 
ATOM      3  C   UNL A   1     -23.901  -3.678  28.900  0.00  0.00    +0.035 A 
ATOM      4  C   UNL A   1     -24.668  -4.867  28.825  0.00  0.00    +0.004 A 
ATOM      5  C   UNL A   1     -25.918  -4.826  29.415  0.00  0.00    +0.021 A 
ATOM      6  C   UNL A   1     -26.333  -3.686  30.022  0.00  0.00    +0.100 A 
ATOM      7  N   UNL A   1     -23.633  -1.466  29.634  0.00  0.00    -0.250 N 
ENDROOT
BRANCH   7   8
ATOM      8  C   UNL A   1     -23.074  -0.897  28.876  0.00  0.00    +0.057 A 
ATOM      9  C   UNL A   1     -21.758  -0.746  28.884  0.00  0.00    +0.015 A 
ATOM     10  C   UNL A   1     -21.255   0.534  28.601  0.00  0.00    +0.001 A 
ATOM     11  C   UNL A   1     -21.852   1.287  27.605  0.00  0.00    +0.000 A 
ATOM     12  C   UNL A   1     -23.212   1.026  27.300  0.00  0.00    +0.001 A 
ATOM     13  C   UNL A   1     -23.826   0.028  28.000  0.00  0.00    +0.015 A 
ENDBRANCH   7   8
BRANCH   7  14
ATOM     14  C   UNL A   1     -23.502  -1.141  31.098  0.00  0.00    +0.071 C 
ATOM     15  C   UNL A   1     -23.773   0.066  31.504  0.00  0.00    +0.018 C 
ENDBRANCH   7  14
TORSDOF 2
ENDMDL
ENDMDL
