REMARK  Name = No_3432-gen_results/8p0m/2024-11-27-11-27-31/
REMARK  2 active torsions:
REMARK  status: ('A' for Active; 'I' for Inactive)
REMARK    1  A    between atoms: N_7  and  C_8
REMARK    2  A    between atoms: N_7  and  C_14
REMARK                            x       y       z     vdW  Elec       q    Type
REMARK                         _______ _______ _______ _____ _____    ______ ____
ROOT
ATOM      1  N   UNL A   1     -28.054  -1.050  28.725  0.00  0.00    -0.229 NA
ATOM      2  C   UNL A   1     -27.746  -0.073  29.010  0.00  0.00    +0.139 A 
ATOM      3  C   UNL A   1     -27.556   0.337  30.339  0.00  0.00    +0.035 A 
ATOM      4  C   UNL A   1     -27.856  -0.587  31.371  0.00  0.00    +0.004 A 
ATOM      5  C   UNL A   1     -28.248  -1.850  30.965  0.00  0.00    +0.021 A 
ATOM      6  C   UNL A   1     -28.327  -2.131  29.640  0.00  0.00    +0.100 A 
ATOM      7  N   UNL A   1     -27.419   0.877  28.061  0.00  0.00    -0.250 N 
ENDROOT
BRANCH   7   8
ATOM      8  C   UNL A   1     -26.567   1.554  27.899  0.00  0.00    +0.057 A 
ATOM      9  C   UNL A   1     -25.545   1.673  28.734  0.00  0.00    +0.015 A 
ATOM     10  C   UNL A   1     -25.087   2.971  29.012  0.00  0.00    +0.001 A 
ATOM     11  C   UNL A   1     -25.020   3.895  27.984  0.00  0.00    +0.000 A 
ATOM     12  C   UNL A   1     -25.887   3.720  26.876  0.00  0.00    +0.001 A 
ATOM     13  C   UNL A   1     -26.710   2.632  26.895  0.00  0.00    +0.015 A 
ENDBRANCH   7   8
BRANCH   7  14
ATOM     14  C   UNL A   1     -28.655   0.971  27.206  0.00  0.00    +0.071 C 
ATOM     15  C   UNL A   1     -28.541   1.374  25.973  0.00  0.00    +0.018 C 
ENDBRANCH   7  14
TORSDOF 2
