MODEL 3434
MODEL 1
REMARK VINA RESULT:    -5.208      0.000      0.000
REMARK INTER + INTRA:          -5.208
REMARK INTER:                  -5.208
REMARK INTRA:                   0.000
REMARK UNBOUND:                 0.000
REMARK  Name = No_3434-gen_results/8p0m/2024-11-27-11-27-31/
REMARK  0 active torsions:
REMARK  status: ('A' for Active; 'I' for Inactive)
REMARK                            x       y       z     vdW  Elec       q    Type
REMARK                         _______ _______ _______ _____ _____    ______ ____
ROOT
ATOM      1  C   UNL A   1     -25.745  -1.242  30.102  0.00  0.00    +0.099 A 
ATOM      2  C   UNL A   1     -25.538  -2.377  29.741  0.00  0.00    +0.019 A 
ATOM      3  C   UNL A   1     -26.416  -3.421  29.961  0.00  0.00    +0.002 A 
ATOM      4  C   UNL A   1     -26.180  -4.811  29.617  0.00  0.00    +0.000 A 
ATOM      5  C   UNL A   1     -24.963  -5.160  28.992  0.00  0.00    +0.000 A 
ATOM      6  C   UNL A   1     -24.033  -4.082  28.770  0.00  0.00    +0.000 A 
ATOM      7  C   UNL A   1     -24.262  -2.777  29.138  0.00  0.00    +0.003 A 
ATOM      8  N   UNL A   1     -24.742  -0.245  29.828  0.00  0.00    -0.242 NA
ATOM      9  C   UNL A   1     -23.482  -0.575  29.451  0.00  0.00    +0.099 A 
ATOM     10  C   UNL A   1     -23.223  -1.867  29.033  0.00  0.00    +0.021 A 
ENDROOT
TORSDOF 0
ENDMDL
ENDMDL
