MODEL 3435
MODEL 1
REMARK VINA RESULT:    -8.625      0.000      0.000
REMARK INTER + INTRA:         -10.151
REMARK INTER:                  -9.634
REMARK INTRA:                  -0.517
REMARK UNBOUND:                -0.517
REMARK  Name = No_3435-gen_results/8p0m/2024-11-27-11-27-31/
REMARK  2 active torsions:
REMARK  status: ('A' for Active; 'I' for Inactive)
REMARK    1  A    between atoms: C_3  and  C_4
REMARK    2  A    between atoms: P_31  and  O_34
REMARK                            x       y       z     vdW  Elec       q    Type
REMARK                         _______ _______ _______ _____ _____    ______ ____
ROOT
ATOM      1  C   UNL A   1     -27.550   1.622  29.030  0.00  0.00    +0.009 A 
ATOM      2  C   UNL A   1     -28.146   2.135  28.111  0.00  0.00    +0.000 A 
ATOM      3  C   UNL A   1     -28.136   1.567  26.842  0.00  0.00    +0.003 A 
ATOM      4  C   UNL A   1     -26.645   0.489  28.781  0.00  0.00    +0.110 A 
ATOM      5  C   UNL A   1     -26.620  -0.182  27.594  0.00  0.00    +0.152 A 
ATOM      6  C   UNL A   1     -27.390   0.348  26.545  0.00  0.00    +0.037 A 
ATOM      7  C   UNL A   1     -25.810  -0.110  29.883  0.00  0.00    +0.345 C 
ATOM      8  O   UNL A   1     -25.819  -1.305  30.070  0.00  0.00    -0.245 OA
ATOM      9  O   UNL A   1     -25.077   0.647  30.585  0.00  0.00    -0.435 OA
ATOM     10  C   UNL A   1     -24.409   0.196  31.691  0.00  0.00    +0.293 C 
ATOM     11  C   UNL A   1     -23.212  -0.262  31.515  0.00  0.00    +0.273 C 
ATOM     12  O   UNL A   1     -22.756  -1.095  32.112  0.00  0.00    -0.271 OA
ATOM     13  N   UNL A   1     -22.702  -0.121  30.169  0.00  0.00    -0.243 N 
ATOM     14  C   UNL A   1     -21.784  -0.191  29.691  0.00  0.00    +0.101 C 
ATOM     15  C   UNL A   1     -21.549   0.533  28.413  0.00  0.00    +0.048 C 
ATOM     16  C   UNL A   1     -22.656   1.189  27.831  0.00  0.00    -0.020 A 
ATOM     17  C   UNL A   1     -22.467   1.867  26.595  0.00  0.00    -0.004 A 
ATOM     18  C   UNL A   1     -23.648   2.577  26.031  0.00  0.00    -0.000 A 
ATOM     19  C   UNL A   1     -24.782   2.579  26.805  0.00  0.00    -0.000 A 
ATOM     20  C   UNL A   1     -24.739   2.236  28.138  0.00  0.00    +0.000 A 
ATOM     21  C   UNL A   1     -23.538   1.525  28.601  0.00  0.00    +0.030 A 
ATOM     22  C   UNL A   1     -23.628   0.786  29.807  0.00  0.00    +0.301 C 
ATOM     23  O   UNL A   1     -23.106   2.133  30.657  0.00  0.00    -0.187 OA
ATOM     24  P   UNL A   1     -24.272  -0.105  28.503  0.00  0.00    +0.407 P 
ATOM     25  O   UNL A   1     -25.049   0.170  27.332  0.00  0.00    -0.426 OA
ATOM     26  O   UNL A   1     -23.741  -1.275  28.511  0.00  0.00    -0.137 OA
ENDROOT
BRANCH   3  27
ATOM     27  C   UNL A   1     -28.819   2.105  25.631  0.00  0.00    +0.002 A 
ATOM     28  C   UNL A   1     -28.741   1.541  24.310  0.00  0.00    +0.000 A 
ATOM     29  C   UNL A   1     -29.437   2.144  23.303  0.00  0.00    +0.002 A 
ATOM     30  C   UNL A   1     -30.421   3.073  23.412  0.00  0.00    +0.030 A 
ATOM     31  C   UNL A   1     -29.833   3.140  25.763  0.00  0.00    +0.030 A 
ATOM     32  C   UNL A   1     -30.582   3.585  24.675  0.00  0.00    +0.140 A 
ATOM     33  F   UNL A   1     -31.488   4.539  24.933  0.00  0.00    -0.204 F 
ENDBRANCH   3  27
BRANCH  24  34
ATOM     34  O   UNL A   1     -25.026  -1.032  28.107  0.00  0.00    -0.103 OA
ATOM     35  F   UNL A   1     -25.162  -1.852  27.465  0.00  0.00    -0.039 F 
ENDBRANCH  24  34
TORSDOF 2
ENDMDL
ENDMDL
