MODEL 3436
MODEL 1
REMARK VINA RESULT:    -6.524      0.000      0.000
REMARK INTER + INTRA:         -15.456
REMARK INTER:                 -11.101
REMARK INTRA:                  -4.355
REMARK UNBOUND:                -4.355
REMARK  Name = No_3436-gen_results/8p0m/2024-11-27-11-27-31/
REMARK  12 active torsions:
REMARK  status: ('A' for Active; 'I' for Inactive)
REMARK    1  A    between atoms: C_4  and  P_15
REMARK    2  A    between atoms: C_5  and  C_8
REMARK    3  A    between atoms: P_15  and  O_18
REMARK    4  A    between atoms: O_18  and  C_19
REMARK    5  A    between atoms: C_19  and  C_20
REMARK    6  A    between atoms: C_21  and  C_22
REMARK    7  A    between atoms: C_22  and  O_23
REMARK    8  A    between atoms: O_23  and  C_25
REMARK    9  A    between atoms: C_26  and  C_27
REMARK   10  A    between atoms: C_27  and  C_28
REMARK   11  A    between atoms: C_28  and  C_29
REMARK   12  A    between atoms: C_29  and  C_30
REMARK                            x       y       z     vdW  Elec       q    Type
REMARK                         _______ _______ _______ _____ _____    ______ ____
ROOT
ATOM      1  O   UNL A   1     -28.437 -15.300   8.936  0.00  0.00    -0.285 OA
ENDROOT
BRANCH   1   2
ATOM      2  P   UNL A   1     -27.455 -15.688   7.807  0.00  0.00    +0.395 P 
ATOM      3  O   UNL A   1     -27.930 -16.389   6.852  0.00  0.00    -0.251 OA
ATOM      4  O   UNL A   1     -26.152 -16.199   8.503  0.00  0.00    -0.136 OA
BRANCH   2   8
ATOM      5  C   UNL A   1     -25.513 -12.652   5.813  0.00  0.00    +0.041 A 
ATOM      6  C   UNL A   1     -26.047 -11.836   6.212  0.00  0.00    +0.060 A 
ATOM      7  C   UNL A   1     -26.017 -13.956   6.261  0.00  0.00    +0.148 A 
ATOM      8  C   UNL A   1     -26.936 -14.078   7.221  0.00  0.00    +0.110 A 
ATOM      9  C   UNL A   1     -27.039 -11.719   7.253  0.00  0.00    +0.011 A 
ATOM     10  C   UNL A   1     -27.476 -12.940   7.674  0.00  0.00    +0.011 A 
ATOM     11  F   UNL A   1     -25.395 -15.043   5.697  0.00  0.00    -0.204 F 
ATOM     12 CL   UNL A   1     -25.516 -10.130   5.616  0.00  0.00    -0.082 Cl
BRANCH   9  13
ATOM     13  C   UNL A   1     -27.592 -10.415   7.720  0.00  0.00    +0.001 A 
ATOM     14  C   UNL A   1     -28.316  -9.756   7.461  0.00  0.00    +0.000 A 
ATOM     15  C   UNL A   1     -28.702  -8.449   8.076  0.00  0.00    +0.000 A 
ATOM     16  C   UNL A   1     -26.873 -10.026   9.059  0.00  0.00    +0.000 A 
ATOM     17  C   UNL A   1     -27.135  -8.867   9.725  0.00  0.00    +0.000 A 
ATOM     18  C   UNL A   1     -28.094  -8.056   9.209  0.00  0.00    +0.000 A 
ENDBRANCH   9  13
ENDBRANCH   2   8
ENDBRANCH   1   2
BRANCH   1  19
ATOM     19  C   UNL A   1     -29.038 -16.128   9.791  0.00  0.00    +0.178 C 
BRANCH  19  20
ATOM     20  C   UNL A   1     -30.446 -15.744  10.153  0.00  0.00    +0.013 C 
ATOM     21  C   UNL A   1     -30.756 -15.230  11.348  0.00  0.00    +0.080 C 
BRANCH  21  22
ATOM     22  C   UNL A   1     -29.737 -14.934  12.284  0.00  0.00    +0.346 C 
ATOM     23  O   UNL A   1     -29.305 -16.048  12.851  0.00  0.00    -0.244 OA
BRANCH  22  24
ATOM     24  O   UNL A   1     -29.388 -13.994  12.475  0.00  0.00    -0.418 OA
BRANCH  24  25
ATOM     25  C   UNL A   1     -30.095 -12.915  12.936  0.00  0.00    +0.178 C 
ATOM     26  C   UNL A   1     -29.922 -11.779  12.358  0.00  0.00    +0.015 C 
BRANCH  26  27
ATOM     27  C   UNL A   1     -29.386 -11.550  11.198  0.00  0.00    +0.030 C 
BRANCH  27  28
ATOM     28  C   UNL A   1     -30.251 -11.468  10.090  0.00  0.00    +0.009 C 
BRANCH  28  29
ATOM     29  C   UNL A   1     -31.481 -10.859  10.265  0.00  0.00    +0.027 C 
BRANCH  29  30
ATOM     30  C   UNL A   1     -31.778  -9.571   9.769  0.00  0.00    -0.022 A 
ATOM     31  C   UNL A   1     -32.158  -9.390   8.480  0.00  0.00    -0.004 A 
ATOM     32  C   UNL A   1     -32.469  -8.082   8.079  0.00  0.00    -0.000 A 
ATOM     33  C   UNL A   1     -32.175  -6.979   8.889  0.00  0.00    -0.000 A 
ATOM     34  C   UNL A   1     -31.718  -7.201  10.216  0.00  0.00    -0.000 A 
ATOM     35  C   UNL A   1     -31.483  -8.501  10.637  0.00  0.00    -0.004 A 
ENDBRANCH  29  30
ENDBRANCH  28  29
ENDBRANCH  27  28
ENDBRANCH  26  27
ENDBRANCH  24  25
ENDBRANCH  22  24
ENDBRANCH  21  22
ENDBRANCH  19  20
ENDBRANCH   1  19
TORSDOF 12
ENDMDL
ENDMDL
