REMARK  Name = outputs/IAG933/test6/raw/output_3436_IAG933_linker_design_.xyz
REMARK  14 active torsions:
REMARK  status: ('A' for Active; 'I' for Inactive)
REMARK    1  A    between atoms: C_1  and  C_2
REMARK    2  A    between atoms: C_1  and  C_8
REMARK    3  A    between atoms: C_9  and  C_38
REMARK    4  A    between atoms: C_14  and  C_15
REMARK    5  A    between atoms: C_15  and  O_18
REMARK    6  A    between atoms: O_18  and  C_36
REMARK    7  A    between atoms: C_21  and  O_22
REMARK    8  A    between atoms: O_22  and  C_23
REMARK    9  A    between atoms: C_23  and  C_24
REMARK   10  A    between atoms: C_29  and  N_35
REMARK   11  A    between atoms: C_34  and  C_37
REMARK   12  A    between atoms: N_35  and  C_41
REMARK   13  A    between atoms: C_37  and  O_42
REMARK   14  A    between atoms: O_39  and  O_42
REMARK                            x       y       z     vdW  Elec       q    Type
REMARK                         _______ _______ _______ _____ _____    ______ ____
ROOT
ATOM      1  C   UNL A   1     -25.209   3.275  32.479  0.00  0.00    +0.009 C 
ATOM      2  C   UNL A   1     -24.727   2.458  30.283  0.00  0.00    +0.099 C 
ATOM      3 CL   UNL A   1     -25.544   5.818  33.191  0.00  0.00    -0.082 Cl
ATOM      4  C   UNL A   1     -25.404   4.564  31.985  0.00  0.00    +0.060 C 
ATOM      5  C   UNL A   1     -25.481   4.816  30.558  0.00  0.00    +0.050 C 
ATOM      6  C   UNL A   1     -25.160   3.755  29.634  0.00  0.00    +0.162 C 
ATOM      7  C   UNL A   1     -25.052   2.195  31.599  0.00  0.00    -0.002 C 
ENDROOT
BRANCH   7   9
ATOM      8  C   UNL A   1     -25.387  -0.679  31.571  0.00  0.00    +0.081 C 
ATOM      9  C   UNL A   1     -25.189   0.773  32.028  0.00  0.00    +0.042 C 
ATOM     10  C   UNL A   1     -25.336   0.684  33.544  0.00  0.00    +0.025 C 
ATOM     11  C   UNL A   1     -24.829  -0.715  33.905  0.00  0.00    +0.089 C 
ATOM     12  N   UNL A   1     -24.758  -1.481  32.646  0.00  0.00    -0.219 NA
BRANCH   8  13
ATOM     13  C   UNL A   1     -24.855  -1.012  30.143  0.00  0.00    +0.044 C 
BRANCH  13  14
ATOM     14  C   UNL A   1     -24.973  -2.505  29.788  0.00  0.00    -0.021 C 
ATOM     15  C   UNL A   1     -23.906  -3.173  29.146  0.00  0.00    -0.004 C 
ATOM     16  C   UNL A   1     -23.989  -4.549  28.853  0.00  0.00    -0.000 C 
ATOM     17  C   UNL A   1     -25.137  -5.280  29.205  0.00  0.00    -0.000 C 
ATOM     18  C   UNL A   1     -26.232  -4.611  29.784  0.00  0.00    -0.000 C 
ATOM     19  C   UNL A   1     -26.155  -3.232  30.065  0.00  0.00    -0.004 C 
ENDBRANCH  13  14
ENDBRANCH   8  13
ENDBRANCH   7   9
BRANCH   6  20
ATOM     20  O   UNL A   1     -25.143   3.966  28.243  0.00  0.00    -0.435 OA
BRANCH  20  21
ATOM     21  C   UNL A   1     -25.642   4.093  27.123  0.00  0.00    +0.227 C 
ATOM     22  N   UNL A   1     -25.614   5.252  26.449  0.00  0.00    -0.235 NA
ATOM     23  C   UNL A   1     -25.026   6.479  26.963  0.00  0.00    +0.155 C 
BRANCH  21  25
ATOM     24  C   UNL A   1     -25.688   1.614  26.461  0.00  0.00    +0.041 C 
ATOM     25  C   UNL A   1     -26.250   2.920  26.395  0.00  0.00    +0.075 C 
ATOM     26  C   UNL A   1     -27.438   3.091  25.645  0.00  0.00    +0.107 C 
ATOM     27  N   UNL A   1     -28.075   2.089  25.003  0.00  0.00    -0.208 NA
ATOM     28  C   UNL A   1     -27.543   0.849  25.079  0.00  0.00    +0.253 C 
ATOM     29  C   UNL A   1     -26.354   0.576  25.777  0.00  0.00    +0.193 C 
ATOM     30  F   UNL A   1     -25.860  -0.681  25.795  0.00  0.00    -0.199 F 
BRANCH  28  31
ATOM     31  O   UNL A   1     -28.193  -0.208  24.477  0.00  0.00    -0.456 OA
BRANCH  31  32
ATOM     32  C   UNL A   1     -29.460   0.005  23.866  0.00  0.00    +0.243 C 
BRANCH  32  33
ATOM     33  C   UNL A   1     -30.065  -1.377  23.573  0.00  0.00    +0.229 C 
ATOM     34  O   UNL A   1     -30.729  -1.878  24.721  0.00  0.00    -0.216 OA
ENDBRANCH  32  33
ENDBRANCH  31  32
ENDBRANCH  28  31
ENDBRANCH  21  25
ENDBRANCH  20  21
ENDBRANCH   6  20
BRANCH   2  35
ATOM     35  N   UNL A   1     -23.633   1.536  29.985  0.00  0.00    -0.206 NA
BRANCH  35  38
ATOM     36  C   UNL A   1     -23.179   1.834  27.831  0.00  0.00    +0.198 C 
ATOM     37  O   UNL A   1     -22.001   1.487  28.457  0.00  0.00    -0.330 OA
ATOM     38  C   UNL A   1     -23.000   1.528  28.753  0.00  0.00    +0.239 C 
BRANCH  36  39
ATOM     39  C   UNL A   1     -23.273   2.149  26.611  0.00  0.00    +0.216 C 
BRANCH  39  40
ATOM     40  O   UNL A   1     -22.941   2.364  25.392  0.00  0.00    -0.217 OA
BRANCH  40  42
ATOM     41  C   UNL A   1     -21.066   1.714  27.104  0.00  0.00    +0.217 C 
ATOM     42  O   UNL A   1     -21.796   2.092  25.992  0.00  0.00    -0.217 OA
ENDBRANCH  40  42
ENDBRANCH  39  40
ENDBRANCH  36  39
ENDBRANCH  35  38
ENDBRANCH   2  35
TORSDOF 14
