MODEL 3438
MODEL 1
REMARK VINA RESULT:    -7.326      0.000      0.000
REMARK INTER + INTRA:          -7.326
REMARK INTER:                  -7.326
REMARK INTRA:                   0.000
REMARK UNBOUND:                 0.000
REMARK  Name = No_3438-gen_results/8p0m/2024-11-27-11-27-31/
REMARK  0 active torsions:
REMARK  status: ('A' for Active; 'I' for Inactive)
REMARK                            x       y       z     vdW  Elec       q    Type
REMARK                         _______ _______ _______ _____ _____    ______ ____
ROOT
ATOM      1  C   UNL A   1     -24.390   0.309  28.156  0.00  0.00    +0.008 A 
ATOM      2  C   UNL A   1     -24.170  -0.389  28.915  0.00  0.00    +0.088 A 
ATOM      3  C   UNL A   1     -23.210   1.103  27.642  0.00  0.00    +0.000 A 
ATOM      4  C   UNL A   1     -21.911   0.776  28.085  0.00  0.00    +0.003 A 
ATOM      5  C   UNL A   1     -22.932  -0.935  29.515  0.00  0.00    +0.145 A 
ATOM      6  C   UNL A   1     -21.825  -0.233  29.062  0.00  0.00    +0.037 A 
ATOM      7  C   UNL A   1     -25.402  -1.256  29.470  0.00  0.00    +0.254 C 
ATOM      8  O   UNL A   1     -26.392  -0.761  29.366  0.00  0.00    -0.270 OA
ATOM      9  N   UNL A   1     -25.228  -2.671  29.603  0.00  0.00    -0.244 N 
ATOM     10  C   UNL A   1     -26.374  -3.436  29.932  0.00  0.00    +0.097 C 
ATOM     11  C   UNL A   1     -26.319  -4.612  29.556  0.00  0.00    +0.022 C 
ATOM     12  C   UNL A   1     -25.161  -5.191  29.097  0.00  0.00    +0.007 C 
ATOM     13  C   UNL A   1     -24.146  -4.411  28.843  0.00  0.00    +0.066 C 
ATOM     14  C   UNL A   1     -24.117  -3.161  28.951  0.00  0.00    +0.247 C 
ATOM     15  O   UNL A   1     -22.973  -2.533  28.793  0.00  0.00    -0.460 OA
ENDROOT
TORSDOF 0
ENDMDL
ENDMDL
