MODEL 3439
MODEL 1
REMARK VINA RESULT:    -5.436      0.000      0.000
REMARK INTER + INTRA:          -6.319
REMARK INTER:                  -6.071
REMARK INTRA:                  -0.248
REMARK UNBOUND:                -0.248
REMARK  Name = No_3439-gen_results/8p0m/2024-11-27-11-27-31/
REMARK  2 active torsions:
REMARK  status: ('A' for Active; 'I' for Inactive)
REMARK    1  A    between atoms: C_3  and  C_4
REMARK    2  A    between atoms: C_4  and  C_8
REMARK                            x       y       z     vdW  Elec       q    Type
REMARK                         _______ _______ _______ _____ _____    ______ ____
ROOT
ATOM      1  C   UNL A   1     -26.414  -3.468  29.884  0.00  0.00    -0.000 A 
ATOM      2  C   UNL A   1     -25.539  -2.644  29.756  0.00  0.00    -0.004 A 
ATOM      3  C   UNL A   1     -24.320  -2.974  29.173  0.00  0.00    -0.018 A 
ATOM      4  C   UNL A   1     -26.128  -4.885  29.646  0.00  0.00    -0.000 A 
ATOM      5  C   UNL A   1     -24.995  -5.290  28.985  0.00  0.00    -0.000 A 
ATOM      6  C   UNL A   1     -24.021  -4.320  28.736  0.00  0.00    -0.004 A 
ENDROOT
BRANCH   3   7
ATOM      7  C   UNL A   1     -23.289  -2.029  28.934  0.00  0.00    +0.052 C 
BRANCH   7   8
ATOM      8  C   UNL A   1     -23.445  -0.690  29.072  0.00  0.00    -0.026 C 
ATOM      9  C   UNL A   1     -22.343   0.197  28.969  0.00  0.00    -0.030 C 
ATOM     10  C   UNL A   1     -21.062  -0.227  28.672  0.00  0.00    +0.030 C 
ENDBRANCH   7   8
ENDBRANCH   3   7
TORSDOF 2
ENDMDL
ENDMDL
