MODEL 3440
MODEL 1
REMARK VINA RESULT:    -7.568      0.000      0.000
REMARK INTER + INTRA:         -11.042
REMARK INTER:                  -9.780
REMARK INTRA:                  -1.262
REMARK UNBOUND:                -1.262
REMARK  Name = No_3440-gen_results/8p0m/2024-11-27-11-27-31/
REMARK  5 active torsions:
REMARK  status: ('A' for Active; 'I' for Inactive)
REMARK    1  A    between atoms: C_4  and  C_6
REMARK    2  A    between atoms: C_5  and  C_14
REMARK    3  A    between atoms: N_15  and  C_16
REMARK    4  A    between atoms: C_18  and  C_19
REMARK    5  A    between atoms: C_19  and  C_20
REMARK                            x       y       z     vdW  Elec       q    Type
REMARK                         _______ _______ _______ _____ _____    ______ ____
ROOT
ATOM      1  C   UNL A   1     -26.116   0.840  33.621  0.00  0.00    +0.011 A 
ATOM      2  C   UNL A   1     -25.271   0.564  33.055  0.00  0.00    +0.005 A 
ATOM      3  C   UNL A   1     -26.257   0.203  34.899  0.00  0.00    +0.058 A 
ATOM      4  C   UNL A   1     -25.476  -0.803  35.303  0.00  0.00    +0.011 A 
ATOM      5  C   UNL A   1     -24.310  -0.505  33.284  0.00  0.00    +0.055 A 
ATOM      6  C   UNL A   1     -24.454  -1.095  34.437  0.00  0.00    +0.005 A 
ATOM      7 CL   UNL A   1     -27.586   0.731  35.903  0.00  0.00    -0.082 Cl
ENDROOT
BRANCH   4   8
ATOM      8  C   UNL A   1     -25.637  -1.460  36.562  0.00  0.00    +0.001 A 
ATOM      9  C   UNL A   1     -26.216  -2.321  37.032  0.00  0.00    +0.000 A 
ATOM     10  C   UNL A   1     -26.303  -2.836  38.410  0.00  0.00    +0.000 A 
ATOM     11  C   UNL A   1     -25.557  -2.152  39.379  0.00  0.00    +0.000 A 
ATOM     12  C   UNL A   1     -24.848  -1.065  39.003  0.00  0.00    +0.000 A 
ATOM     13  C   UNL A   1     -24.836  -0.638  37.702  0.00  0.00    +0.000 A 
ENDBRANCH   4   8
BRANCH   5  14
ATOM     14  C   UNL A   1     -23.195  -0.832  32.288  0.00  0.00    +0.269 C 
ATOM     15  N   UNL A   1     -23.226  -0.393  31.161  0.00  0.00    -0.174 NA
ATOM     16  O   UNL A   1     -22.253  -1.478  32.751  0.00  0.00    -0.268 OA
BRANCH  15  17
ATOM     17  C   UNL A   1     -22.321  -0.493  30.296  0.00  0.00    +0.085 C 
ATOM     18  C   UNL A   1     -22.566  -1.140  29.116  0.00  0.00    -0.004 C 
BRANCH  18  19
ATOM     19  C   UNL A   1     -23.827  -1.203  28.604  0.00  0.00    +0.055 C 
BRANCH  19  20
ATOM     20  C   UNL A   1     -24.635  -2.299  28.862  0.00  0.00    -0.001 A 
ATOM     21  C   UNL A   1     -24.051  -3.645  28.489  0.00  0.00    -0.003 A 
ATOM     22  C   UNL A   1     -24.893  -4.756  28.840  0.00  0.00    -0.000 A 
ATOM     23  C   UNL A   1     -25.582  -4.768  29.588  0.00  0.00    +0.001 A 
ATOM     24  C   UNL A   1     -26.266  -3.519  30.089  0.00  0.00    +0.018 A 
ATOM     25  C   UNL A   1     -25.666  -2.373  29.733  0.00  0.00    +0.085 A 
ATOM     26  N   UNL A   1     -26.829  -1.837  28.926  0.00  0.00    -0.128 NA
ENDBRANCH  19  20
ENDBRANCH  18  19
ENDBRANCH  15  17
ENDBRANCH   5  14
TORSDOF 5
ENDMDL
ENDMDL
