REMARK  Name = No_3440-gen_results/8p0m/2024-11-27-11-27-31/
REMARK  5 active torsions:
REMARK  status: ('A' for Active; 'I' for Inactive)
REMARK    1  A    between atoms: C_4  and  C_6
REMARK    2  A    between atoms: C_5  and  C_14
REMARK    3  A    between atoms: N_15  and  C_16
REMARK    4  A    between atoms: C_18  and  C_19
REMARK    5  A    between atoms: C_19  and  C_20
REMARK                            x       y       z     vdW  Elec       q    Type
REMARK                         _______ _______ _______ _____ _____    ______ ____
ROOT
ATOM      1  C   UNL A   1     -28.016  -0.814  28.878  0.00  0.00    +0.011 A 
ATOM      2  C   UNL A   1     -28.469  -0.785  29.829  0.00  0.00    +0.005 A 
ATOM      3  C   UNL A   1     -28.196   0.348  28.055  0.00  0.00    +0.058 A 
ATOM      4  C   UNL A   1     -29.019   1.350  28.378  0.00  0.00    +0.011 A 
ATOM      5  C   UNL A   1     -29.411   0.180  30.378  0.00  0.00    +0.055 A 
ATOM      6  C   UNL A   1     -29.587   1.224  29.619  0.00  0.00    +0.005 A 
ATOM      7 CL   UNL A   1     -27.357   0.369  26.523  0.00  0.00    -0.082 Cl
ENDROOT
BRANCH   4   8
ATOM      8  C   UNL A   1     -29.224   2.492  27.543  0.00  0.00    +0.001 A 
ATOM      9  C   UNL A   1     -29.622   2.761  26.511  0.00  0.00    +0.000 A 
ATOM     10  C   UNL A   1     -29.705   4.031  25.768  0.00  0.00    +0.000 A 
ATOM     11  C   UNL A   1     -29.186   5.163  26.411  0.00  0.00    +0.000 A 
ATOM     12  C   UNL A   1     -28.622   5.015  27.630  0.00  0.00    +0.000 A 
ATOM     13  C   UNL A   1     -28.566   3.793  28.244  0.00  0.00    +0.000 A 
ENDBRANCH   4   8
BRANCH   5  14
ATOM     14  C   UNL A   1     -30.056   0.003  31.755  0.00  0.00    +0.269 C 
ATOM     15  N   UNL A   1     -30.089   0.920  32.543  0.00  0.00    -0.174 NA
ATOM     16  O   UNL A   1     -30.601  -1.087  31.941  0.00  0.00    -0.268 OA
BRANCH  15  17
ATOM     17  C   UNL A   1     -30.688   0.934  33.647  0.00  0.00    +0.085 C 
ATOM     18  C   UNL A   1     -30.020   0.608  34.796  0.00  0.00    -0.004 C 
BRANCH  18  19
ATOM     19  C   UNL A   1     -28.674   0.795  34.896  0.00  0.00    +0.055 C 
BRANCH  19  20
ATOM     20  C   UNL A   1     -28.020   1.659  34.033  0.00  0.00    -0.001 A 
ATOM     21  C   UNL A   1     -26.525   1.784  34.239  0.00  0.00    -0.003 A 
ATOM     22  C   UNL A   1     -25.879   2.634  33.276  0.00  0.00    -0.000 A 
ATOM     23  C   UNL A   1     -26.210   2.825  32.334  0.00  0.00    +0.001 A 
ATOM     24  C   UNL A   1     -27.668   2.748  31.948  0.00  0.00    +0.018 A 
ATOM     25  C   UNL A   1     -28.442   2.086  32.822  0.00  0.00    +0.085 A 
ATOM     26  N   UNL A   1     -29.324   3.266  33.168  0.00  0.00    -0.128 NA
ENDBRANCH  19  20
ENDBRANCH  18  19
ENDBRANCH  15  17
ENDBRANCH   5  14
TORSDOF 5
