REMARK  Name = No_3441-gen_results/8p0m/2024-11-27-11-27-31/
REMARK  0 active torsions:
REMARK  status: ('A' for Active; 'I' for Inactive)
REMARK                            x       y       z     vdW  Elec       q    Type
REMARK                         _______ _______ _______ _____ _____    ______ ____
ROOT
ATOM      1  C   UNL A   1     -28.016  -0.814  28.878  0.00  0.00    +0.021 A 
ATOM      2  C   UNL A   1     -27.064  -0.119  28.608  0.00  0.00    +0.099 A 
ATOM      3  N   UNL A   1     -26.985   0.597  27.522  0.00  0.00    -0.242 NA
ATOM      4  C   UNL A   1     -29.291  -0.437  28.366  0.00  0.00    +0.003 A 
ATOM      5  C   UNL A   1     -29.320   0.408  27.306  0.00  0.00    +0.021 A 
ATOM      6  C   UNL A   1     -28.119   0.986  26.906  0.00  0.00    +0.099 A 
ENDROOT
TORSDOF 0
