REMARK  Name = No_3442-gen_results/8p0m/2024-11-27-11-27-31/
REMARK  5 active torsions:
REMARK  status: ('A' for Active; 'I' for Inactive)
REMARK    1  A    between atoms: C_2  and  C_6
REMARK    2  A    between atoms: C_3  and  C_12
REMARK    3  A    between atoms: C_6  and  N_8
REMARK    4  A    between atoms: C_12  and  C_13
REMARK    5  A    between atoms: C_12  and  C_14
REMARK                            x       y       z     vdW  Elec       q    Type
REMARK                         _______ _______ _______ _____ _____    ______ ____
ROOT
ATOM      1  C   UNL A   1     -28.016  -0.814  28.878  0.00  0.00    -0.006 A 
ATOM      2  C   UNL A   1     -28.469  -0.785  29.829  0.00  0.00    -0.001 A 
ATOM      3  C   UNL A   1     -28.196   0.348  28.055  0.00  0.00    -0.008 A 
ATOM      4  C   UNL A   1     -29.019   1.350  28.378  0.00  0.00    -0.003 A 
ATOM      5  C   UNL A   1     -29.625   1.268  29.601  0.00  0.00    -0.001 A 
ATOM      6  C   UNL A   1     -29.377   0.189  30.381  0.00  0.00    -0.003 A 
ENDROOT
BRANCH   2   7
ATOM      7  C   UNL A   1     -28.286  -2.025  30.830  0.00  0.00    +0.144 C 
BRANCH   7   8
ATOM      8  N   UNL A   1     -28.649  -3.100  30.621  0.00  0.00    -0.171 NA
ATOM      9  C   UNL A   1     -29.601  -3.745  31.233  0.00  0.00    +0.410 C 
ATOM     10  F   UNL A   1     -29.962  -3.469  32.234  0.00  0.00    -0.142 F 
ATOM     11  O   UNL A   1     -29.396  -5.149  31.107  0.00  0.00    -0.234 OA
ENDBRANCH   7   8
ENDBRANCH   2   7
BRANCH   3  12
ATOM     12  C   UNL A   1     -27.450   0.344  26.694  0.00  0.00    +0.148 C 
BRANCH  12  13
ATOM     13  C   UNL A   1     -25.989   0.215  26.720  0.00  0.00    -0.008 A 
ATOM     14  C   UNL A   1     -25.248  -0.038  27.890  0.00  0.00    -0.003 A 
ATOM     15  C   UNL A   1     -23.972   0.343  28.077  0.00  0.00    -0.000 A 
ATOM     16  C   UNL A   1     -23.325   1.135  27.064  0.00  0.00    -0.000 A 
ATOM     17  C   UNL A   1     -24.075   1.470  25.898  0.00  0.00    -0.000 A 
ATOM     18  C   UNL A   1     -25.371   1.119  25.755  0.00  0.00    -0.003 A 
ENDBRANCH  12  13
BRANCH  12  19
ATOM     19  C   UNL A   1     -28.013   0.453  25.506  0.00  0.00    +0.372 C 
ATOM     20  O   UNL A   1     -28.807   1.034  25.246  0.00  0.00    -0.245 OA
ATOM     21  O   UNL A   1     -27.592  -0.436  24.610  0.00  0.00    -0.245 OA
ENDBRANCH  12  19
ENDBRANCH   3  12
TORSDOF 5
