MODEL 3442
MODEL 1
REMARK VINA RESULT:    -7.413      0.000      0.000
REMARK INTER + INTRA:         -10.614
REMARK INTER:                  -9.579
REMARK INTRA:                  -1.034
REMARK UNBOUND:                -1.034
REMARK  Name = No_3442-gen_results/8p0m/2024-11-27-11-27-31/
REMARK  5 active torsions:
REMARK  status: ('A' for Active; 'I' for Inactive)
REMARK    1  A    between atoms: C_2  and  C_6
REMARK    2  A    between atoms: C_3  and  C_12
REMARK    3  A    between atoms: C_6  and  N_8
REMARK    4  A    between atoms: C_12  and  C_13
REMARK    5  A    between atoms: C_12  and  C_14
REMARK                            x       y       z     vdW  Elec       q    Type
REMARK                         _______ _______ _______ _____ _____    ______ ____
ROOT
ATOM      1  C   UNL A   1     -23.940   0.404  27.818  0.00  0.00    -0.006 A 
ATOM      2  C   UNL A   1     -23.500   1.090  27.150  0.00  0.00    -0.001 A 
ATOM      3  C   UNL A   1     -23.094  -0.092  28.865  0.00  0.00    -0.008 A 
ATOM      4  C   UNL A   1     -21.781   0.152  28.919  0.00  0.00    -0.003 A 
ATOM      5  C   UNL A   1     -21.280   0.994  27.966  0.00  0.00    -0.001 A 
ATOM      6  C   UNL A   1     -22.123   1.498  27.033  0.00  0.00    -0.003 A 
ENDROOT
BRANCH   2   7
ATOM      7  C   UNL A   1     -24.385   1.725  25.972  0.00  0.00    +0.144 C 
BRANCH   7   8
ATOM      8  N   UNL A   1     -25.418   1.335  25.640  0.00  0.00    -0.171 NA
ATOM      9  C   UNL A   1     -25.666   0.339  24.838  0.00  0.00    +0.410 C 
ATOM     10  F   UNL A   1     -24.927  -0.052  24.124  0.00  0.00    -0.142 F 
ATOM     11  O   UNL A   1     -26.950   0.502  24.243  0.00  0.00    -0.234 OA
ENDBRANCH   7   8
ENDBRANCH   2   7
BRANCH   3  12
ATOM     12  C   UNL A   1     -23.769  -1.027  29.904  0.00  0.00    +0.148 C 
BRANCH  12  13
ATOM     13  C   UNL A   1     -24.605  -2.119  29.394  0.00  0.00    -0.008 A 
ATOM     14  C   UNL A   1     -25.847  -2.477  29.951  0.00  0.00    -0.003 A 
ATOM     15  C   UNL A   1     -26.377  -3.712  29.893  0.00  0.00    -0.000 A 
ATOM     16  C   UNL A   1     -25.606  -4.774  29.303  0.00  0.00    -0.000 A 
ATOM     17  C   UNL A   1     -24.311  -4.457  28.795  0.00  0.00    -0.000 A 
ATOM     18  C   UNL A   1     -23.780  -3.221  28.909  0.00  0.00    -0.003 A 
ENDBRANCH  12  13
BRANCH  12  19
ATOM     19  C   UNL A   1     -23.663  -0.926  31.215  0.00  0.00    +0.372 C 
ATOM     20  O   UNL A   1     -23.266  -1.606  31.860  0.00  0.00    -0.245 OA
ATOM     21  O   UNL A   1     -24.315   0.106  31.745  0.00  0.00    -0.245 OA
ENDBRANCH  12  19
ENDBRANCH   3  12
TORSDOF 5
ENDMDL
ENDMDL
