REMARK  Name = No_3443-gen_results/8p0m/2024-11-27-11-27-31/
REMARK  3 active torsions:
REMARK  status: ('A' for Active; 'I' for Inactive)
REMARK    1  A    between atoms: C_3  and  C_9
REMARK    2  A    between atoms: C_9  and  C_10
REMARK    3  A    between atoms: C_10  and  C_11
REMARK                            x       y       z     vdW  Elec       q    Type
REMARK                         _______ _______ _______ _____ _____    ______ ____
ROOT
ATOM      1  O   UNL A   1     -28.123  -1.335  28.487  0.00  0.00    -0.273 OA
ATOM      2  C   UNL A   1     -27.481  -0.404  28.709  0.00  0.00    +0.243 C 
ATOM      3  C   UNL A   1     -27.190   0.246  29.527  0.00  0.00    +0.079 C 
ATOM      4  N   UNL A   1     -26.602  -0.158  27.552  0.00  0.00    -0.173 NA
ATOM      5  C   UNL A   1     -25.642   0.903  27.582  0.00  0.00    +0.256 C 
ATOM      6  C   UNL A   1     -25.500   1.614  28.737  0.00  0.00    +0.059 C 
ATOM      7  C   UNL A   1     -26.255   1.316  29.813  0.00  0.00    +0.014 C 
ATOM      8  F   UNL A   1     -24.922   1.120  26.523  0.00  0.00    -0.213 F 
ENDROOT
BRANCH   3   9
ATOM      9  C   UNL A   1     -28.024  -0.060  30.934  0.00  0.00    +0.014 C 
BRANCH   9  10
ATOM     10  C   UNL A   1     -27.528  -0.263  31.942  0.00  0.00    +0.026 C 
BRANCH  10  11
ATOM     11  C   UNL A   1     -26.170  -0.134  32.167  0.00  0.00    -0.026 C 
ATOM     12  C   UNL A   1     -25.206   0.747  31.863  0.00  0.00    -0.005 C 
ENDBRANCH  10  11
ENDBRANCH   9  10
ENDBRANCH   3   9
TORSDOF 3
