MODEL 3443
MODEL 1
REMARK VINA RESULT:    -5.306      0.000      0.000
REMARK INTER + INTRA:          -6.491
REMARK INTER:                  -6.236
REMARK INTRA:                  -0.254
REMARK UNBOUND:                -0.254
REMARK  Name = No_3443-gen_results/8p0m/2024-11-27-11-27-31/
REMARK  3 active torsions:
REMARK  status: ('A' for Active; 'I' for Inactive)
REMARK    1  A    between atoms: C_3  and  C_9
REMARK    2  A    between atoms: C_9  and  C_10
REMARK    3  A    between atoms: C_10  and  C_11
REMARK                            x       y       z     vdW  Elec       q    Type
REMARK                         _______ _______ _______ _____ _____    ______ ____
ROOT
ATOM      1  O   UNL A   1     -25.518  -0.558  27.331  0.00  0.00    -0.273 OA
ATOM      2  C   UNL A   1     -24.507  -0.373  27.853  0.00  0.00    +0.243 C 
ATOM      3  C   UNL A   1     -23.820  -0.838  28.552  0.00  0.00    +0.079 C 
ATOM      4  N   UNL A   1     -23.834   0.752  27.181  0.00  0.00    -0.173 NA
ATOM      5  C   UNL A   1     -22.521   1.157  27.582  0.00  0.00    +0.256 C 
ATOM      6  C   UNL A   1     -21.878   0.419  28.531  0.00  0.00    +0.059 C 
ATOM      7  C   UNL A   1     -22.479  -0.660  29.072  0.00  0.00    +0.014 C 
ATOM      8  F   UNL A   1     -21.983   2.186  27.000  0.00  0.00    -0.213 F 
ENDROOT
BRANCH   3   9
ATOM      9  C   UNL A   1     -24.434  -2.216  29.254  0.00  0.00    +0.014 C 
BRANCH   9  10
ATOM     10  C   UNL A   1     -23.867  -3.204  29.331  0.00  0.00    +0.026 C 
BRANCH  10  11
ATOM     11  C   UNL A   1     -24.260  -4.365  28.690  0.00  0.00    -0.026 C 
ATOM     12  C   UNL A   1     -24.970  -5.460  28.996  0.00  0.00    -0.005 C 
ENDBRANCH  10  11
ENDBRANCH   9  10
ENDBRANCH   3   9
TORSDOF 3
ENDMDL
ENDMDL
