MODEL 3444
MODEL 1
REMARK VINA RESULT:    -5.386      0.000      0.000
REMARK INTER + INTRA:          -6.207
REMARK INTER:                  -6.016
REMARK INTRA:                  -0.191
REMARK UNBOUND:                -0.191
REMARK  Name = No_3444-gen_results/8p0m/2024-11-27-11-27-31/
REMARK  2 active torsions:
REMARK  status: ('A' for Active; 'I' for Inactive)
REMARK    1  A    between atoms: C_2  and  C_8
REMARK    2  A    between atoms: C_6  and  C_12
REMARK                            x       y       z     vdW  Elec       q    Type
REMARK                         _______ _______ _______ _____ _____    ______ ____
ROOT
ATOM      1  C   UNL A   1     -23.826  -2.963  28.972  0.00  0.00    +0.019 A 
ATOM      2  C   UNL A   1     -24.023  -1.957  29.213  0.00  0.00    +0.081 A 
ATOM      3  C   UNL A   1     -24.973  -3.923  29.198  0.00  0.00    +0.069 A 
ATOM      4  C   UNL A   1     -25.998  -3.514  29.684  0.00  0.00    +0.075 A 
ATOM      5  C   UNL A   1     -25.189  -1.231  29.725  0.00  0.00    +0.014 A 
ATOM      6  C   UNL A   1     -26.226  -2.115  29.982  0.00  0.00    +0.091 A 
ATOM      7 CL   UNL A   1     -27.368  -4.533  30.025  0.00  0.00    -0.081 Cl
ATOM      8 CL   UNL A   1     -24.784  -5.653  28.907  0.00  0.00    -0.081 Cl
ENDROOT
BRANCH   2   9
ATOM      9  C   UNL A   1     -22.842  -0.861  28.925  0.00  0.00    +0.388 C 
ATOM     10  O   UNL A   1     -23.181   0.084  28.713  0.00  0.00    -0.241 OA
ATOM     11  O   UNL A   1     -21.565  -1.211  29.003  0.00  0.00    -0.241 OA
ENDBRANCH   2   9
BRANCH   6  12
ATOM     12  C   UNL A   1     -27.531  -1.629  30.590  0.00  0.00    +0.389 C 
ATOM     13  O   UNL A   1     -27.686  -1.402  31.588  0.00  0.00    -0.240 OA
ATOM     14  O   UNL A   1     -28.500  -1.288  29.671  0.00  0.00    -0.240 OA
ENDBRANCH   6  12
TORSDOF 2
ENDMDL
ENDMDL
