REMARK  Name = No_3444-gen_results/8p0m/2024-11-27-11-27-31/
REMARK  2 active torsions:
REMARK  status: ('A' for Active; 'I' for Inactive)
REMARK    1  A    between atoms: C_2  and  C_8
REMARK    2  A    between atoms: C_6  and  C_12
REMARK                            x       y       z     vdW  Elec       q    Type
REMARK                         _______ _______ _______ _____ _____    ______ ____
ROOT
ATOM      1  C   UNL A   1     -28.016  -0.814  28.878  0.00  0.00    +0.019 A 
ATOM      2  C   UNL A   1     -28.469  -0.785  29.829  0.00  0.00    +0.081 A 
ATOM      3  C   UNL A   1     -26.504  -0.778  28.877  0.00  0.00    +0.069 A 
ATOM      4  C   UNL A   1     -25.915  -0.658  29.923  0.00  0.00    +0.075 A 
ATOM      5  C   UNL A   1     -27.969  -0.724  31.205  0.00  0.00    +0.014 A 
ATOM      6  C   UNL A   1     -26.585  -0.639  31.206  0.00  0.00    +0.091 A 
ATOM      7 CL   UNL A   1     -24.181  -0.566  30.038  0.00  0.00    -0.081 Cl
ATOM      8 CL   UNL A   1     -25.595  -0.753  27.365  0.00  0.00    -0.081 Cl
ENDROOT
BRANCH   2   9
ATOM      9  C   UNL A   1     -30.101  -0.890  29.897  0.00  0.00    +0.388 C 
ATOM     10  O   UNL A   1     -30.580  -0.647  29.023  0.00  0.00    -0.241 OA
ATOM     11  O   UNL A   1     -30.704  -1.292  31.008  0.00  0.00    -0.241 OA
ENDBRANCH   2   9
BRANCH   6  12
ATOM     12  C   UNL A   1     -25.815  -0.492  32.508  0.00  0.00    +0.389 C 
ATOM     13  O   UNL A   1     -26.192  -0.111  33.394  0.00  0.00    -0.240 OA
ATOM     14  O   UNL A   1     -24.583  -1.111  32.519  0.00  0.00    -0.240 OA
ENDBRANCH   6  12
TORSDOF 2
