MODEL 3445
MODEL 1
REMARK VINA RESULT:    -6.527      0.000      0.000
REMARK INTER + INTRA:          -6.979
REMARK INTER:                  -6.908
REMARK INTRA:                  -0.071
REMARK UNBOUND:                -0.071
REMARK  Name = No_3445-gen_results/8p0m/2024-11-27-11-27-31/
REMARK  1 active torsions:
REMARK  status: ('A' for Active; 'I' for Inactive)
REMARK    1  A    between atoms: C_5  and  C_11
REMARK                            x       y       z     vdW  Elec       q    Type
REMARK                         _______ _______ _______ _____ _____    ______ ____
ROOT
ATOM      1  C   UNL A   1     -30.618  -9.873  29.616  0.00  0.00    +0.003 A 
ATOM      2  C   UNL A   1     -29.937 -10.284  30.526  0.00  0.00    +0.031 A 
ATOM      3  C   UNL A   1     -29.907  -9.751  31.804  0.00  0.00    +0.173 C 
ATOM      4  C   UNL A   1     -29.046 -10.168  32.884  0.00  0.00    +0.081 C 
ATOM      5  C   UNL A   1     -28.135 -11.226  32.653  0.00  0.00    +0.115 C 
ATOM      6  C   UNL A   1     -28.117 -11.819  31.364  0.00  0.00    +0.038 C 
ATOM      7  C   UNL A   1     -28.948 -11.335  30.401  0.00  0.00    -0.019 A 
ATOM      8  C   UNL A   1     -30.656 -10.617  28.317  0.00  0.00    +0.000 A 
ATOM      9  C   UNL A   1     -29.623 -11.563  28.049  0.00  0.00    -0.000 A 
ATOM     10  C   UNL A   1     -28.847 -11.995  29.076  0.00  0.00    -0.004 A 
ATOM     11  O   UNL A   1     -30.673  -8.708  32.093  0.00  0.00    -0.291 OA
ENDROOT
BRANCH   5  12
ATOM     12  C   UNL A   1     -27.255 -11.717  33.737  0.00  0.00    +0.365 C 
ATOM     13  O   UNL A   1     -26.804 -12.827  33.717  0.00  0.00    -0.246 OA
ATOM     14  O   UNL A   1     -26.967 -10.933  34.762  0.00  0.00    -0.246 OA
ENDBRANCH   5  12
TORSDOF 1
ENDMDL
ENDMDL
