REMARK  Name = outputs/IAG933/test6/raw/output_3446_IAG933_linker_design_.xyz
REMARK  11 active torsions:
REMARK  status: ('A' for Active; 'I' for Inactive)
REMARK    1  A    between atoms: C_1  and  C_2
REMARK    2  A    between atoms: C_1  and  C_8
REMARK    3  A    between atoms: C_9  and  C_41
REMARK    4  A    between atoms: C_13  and  C_28
REMARK    5  A    between atoms: C_14  and  C_15
REMARK    6  A    between atoms: C_21  and  O_22
REMARK    7  A    between atoms: O_22  and  C_23
REMARK    8  A    between atoms: C_23  and  C_24
REMARK    9  A    between atoms: C_30  and  C_41
REMARK   10  A    between atoms: N_31  and  C_34
REMARK   11  A    between atoms: N_31  and  C_41
REMARK                            x       y       z     vdW  Elec       q    Type
REMARK                         _______ _______ _______ _____ _____    ______ ____
ROOT
ATOM      1  C   UNL A   1     -24.449   1.362  27.051  0.00  0.00    +0.105 C 
ATOM      2  F   UNL A   1     -23.220   2.888  25.635  0.00  0.00    -0.201 F 
ATOM      3  C   UNL A   1     -23.971   1.669  28.420  0.00  0.00    +0.085 C 
ATOM      4  F   UNL A   1     -20.947   1.940  26.557  0.00  0.00    -0.231 F 
ATOM      5  C   UNL A   1     -22.086   0.113  29.392  0.00  0.00    +0.004 C 
ATOM      6  C   UNL A   1     -22.434   1.314  28.456  0.00  0.00    +0.055 C 
ATOM      7  F   UNL A   1     -23.316   0.925  24.951  0.00  0.00    -0.201 F 
ATOM      8  C   UNL A   1     -23.260   1.633  26.122  0.00  0.00    +0.298 C 
ATOM      9  C   UNL A   1     -22.049   1.167  26.965  0.00  0.00    +0.223 C 
ENDROOT
BRANCH   1  10
ATOM     10  C   UNL A   1     -25.688   1.614  26.461  0.00  0.00    +0.022 C 
ATOM     11  C   UNL A   1     -26.250   2.920  26.395  0.00  0.00    +0.073 C 
ATOM     12  C   UNL A   1     -27.438   3.091  25.645  0.00  0.00    +0.106 C 
ATOM     13  N   UNL A   1     -28.075   2.089  25.003  0.00  0.00    -0.208 NA
ATOM     14  C   UNL A   1     -27.543   0.849  25.079  0.00  0.00    +0.253 C 
ATOM     15  C   UNL A   1     -26.354   0.576  25.777  0.00  0.00    +0.189 C 
ATOM     16  F   UNL A   1     -25.860  -0.681  25.795  0.00  0.00    -0.200 F 
BRANCH  11  17
ATOM     17  C   UNL A   1     -25.642   4.093  27.123  0.00  0.00    +0.266 C 
ATOM     18  N   UNL A   1     -25.614   5.252  26.449  0.00  0.00    -0.200 NA
ATOM     19  C   UNL A   1     -25.026   6.479  26.963  0.00  0.00    +0.139 C 
ATOM     20  O   UNL A   1     -25.143   3.966  28.243  0.00  0.00    -0.268 OA
ENDBRANCH  11  17
BRANCH  14  21
ATOM     21  O   UNL A   1     -28.193  -0.208  24.477  0.00  0.00    -0.456 OA
BRANCH  21  22
ATOM     22  C   UNL A   1     -29.460   0.005  23.866  0.00  0.00    +0.243 C 
BRANCH  22  23
ATOM     23  C   UNL A   1     -30.065  -1.377  23.573  0.00  0.00    +0.229 C 
ATOM     24  O   UNL A   1     -30.729  -1.878  24.721  0.00  0.00    -0.216 OA
ENDBRANCH  22  23
ENDBRANCH  21  22
ENDBRANCH  14  21
ENDBRANCH   1  10
BRANCH   3  25
ATOM     25  N   UNL A   1     -24.432   1.658  29.724  0.00  0.00    -0.220 NA
BRANCH  25  26
ATOM     26  C   UNL A   1     -25.042   1.922  31.041  0.00  0.00    +0.076 C 
BRANCH  26  28
ATOM     27  C   UNL A   1     -26.969   3.394  32.096  0.00  0.00    +0.143 C 
ATOM     28  C   UNL A   1     -25.554   3.315  31.513  0.00  0.00    +0.046 C 
ATOM     29  C   UNL A   1     -27.023   5.677  30.855  0.00  0.00    +0.032 C 
ATOM     30  C   UNL A   1     -27.858   4.588  30.093  0.00  0.00    +0.142 C 
ATOM     31  O   UNL A   1     -27.868   3.443  30.947  0.00  0.00    -0.354 OA
ATOM     32  C   UNL A   1     -25.546   5.105  31.248  0.00  0.00    +0.006 C 
ENDBRANCH  26  28
BRANCH  26  34
ATOM     33  C   UNL A   1     -25.387  -0.679  31.571  0.00  0.00    +0.079 C 
ATOM     34  C   UNL A   1     -25.189   0.773  32.028  0.00  0.00    +0.034 C 
ATOM     35  C   UNL A   1     -25.336   0.684  33.544  0.00  0.00    +0.022 C 
ATOM     36  C   UNL A   1     -24.829  -0.715  33.905  0.00  0.00    +0.089 C 
ATOM     37  N   UNL A   1     -24.758  -1.481  32.646  0.00  0.00    -0.219 NA
BRANCH  33  38
ATOM     38  C   UNL A   1     -24.855  -1.012  30.143  0.00  0.00    +0.044 C 
BRANCH  38  39
ATOM     39  C   UNL A   1     -24.973  -2.505  29.788  0.00  0.00    -0.021 C 
ATOM     40  C   UNL A   1     -23.906  -3.173  29.146  0.00  0.00    -0.004 C 
ATOM     41  C   UNL A   1     -23.989  -4.549  28.853  0.00  0.00    -0.000 C 
ATOM     42  C   UNL A   1     -25.137  -5.280  29.205  0.00  0.00    -0.000 C 
ATOM     43  C   UNL A   1     -26.232  -4.611  29.784  0.00  0.00    -0.000 C 
ATOM     44  C   UNL A   1     -26.155  -3.232  30.065  0.00  0.00    -0.004 C 
ENDBRANCH  38  39
ENDBRANCH  33  38
ENDBRANCH  26  34
ENDBRANCH  25  26
ENDBRANCH   3  25
TORSDOF 11
