MODEL 3446
MODEL 1
REMARK VINA RESULT:    -6.006      0.000      0.000
REMARK INTER + INTRA:          -7.281
REMARK INTER:                  -6.708
REMARK INTRA:                  -0.573
REMARK UNBOUND:                -0.573
REMARK  Name = No_3446-gen_results/8p0m/2024-11-27-11-27-31/
REMARK  2 active torsions:
REMARK  status: ('A' for Active; 'I' for Inactive)
REMARK    1  A    between atoms: C_13  and  C_16
REMARK    2  A    between atoms: C_17  and  C_18
REMARK                            x       y       z     vdW  Elec       q    Type
REMARK                         _______ _______ _______ _____ _____    ______ ____
ROOT
ATOM      1  C   UNL A   1     -22.443   1.907  26.825  0.00  0.00    +0.014 A 
ATOM      2  C   UNL A   1     -22.971   2.636  26.277  0.00  0.00    +0.001 A 
ATOM      3  C   UNL A   1     -23.221   0.760  27.318  0.00  0.00    +0.044 A 
ATOM      4  C   UNL A   1     -24.586   0.594  26.940  0.00  0.00    -0.009 A 
ATOM      5  C   UNL A   1     -25.123   1.595  26.171  0.00  0.00    -0.003 A 
ATOM      6  C   UNL A   1     -24.368   2.640  25.768  0.00  0.00    -0.000 A 
ATOM      7  C   UNL A   1     -25.359  -0.531  27.398  0.00  0.00    +0.029 C 
ATOM      8  C   UNL A   1     -24.965  -1.400  28.246  0.00  0.00    +0.025 C 
ATOM      9  C   UNL A   1     -25.801  -1.994  29.183  0.00  0.00    +0.002 C 
ATOM     10  C   UNL A   1     -25.337  -2.728  30.275  0.00  0.00    +0.000 C 
ATOM     11  C   UNL A   1     -24.412  -1.964  31.095  0.00  0.00    +0.002 C 
ATOM     12  C   UNL A   1     -23.538  -1.032  30.465  0.00  0.00    +0.022 C 
ATOM     13  C   UNL A   1     -24.063  -0.325  29.300  0.00  0.00    +0.077 C 
ATOM     14  N   UNL A   1     -22.881   0.075  28.484  0.00  0.00    -0.306 N 
ATOM     15  C   UNL A   1     -21.500  -0.036  28.788  0.00  0.00    +0.112 C 
ENDROOT
BRANCH  13  16
ATOM     16  C   UNL A   1     -24.873   0.827  29.905  0.00  0.00    -0.007 C 
ATOM     17  C   UNL A   1     -24.276   1.609  30.862  0.00  0.00    +0.019 C 
BRANCH  17  18
ATOM     18  C   UNL A   1     -24.964   2.763  31.308  0.00  0.00    +0.122 C 
ATOM     19  N   UNL A   1     -24.241   3.647  32.060  0.00  0.00    -0.146 NA
ENDBRANCH  17  18
ENDBRANCH  13  16
TORSDOF 2
ENDMDL
ENDMDL
