MODEL 3448
MODEL 1
REMARK VINA RESULT:    -6.286      0.000      0.000
REMARK INTER + INTRA:         -11.380
REMARK INTER:                  -9.226
REMARK INTRA:                  -2.154
REMARK UNBOUND:                -2.154
REMARK  Name = No_3448-gen_results/8p0m/2024-11-27-11-27-31/
REMARK  8 active torsions:
REMARK  status: ('A' for Active; 'I' for Inactive)
REMARK    1  A    between atoms: C_2  and  C_11
REMARK    2  A    between atoms: C_3  and  C_7
REMARK    3  A    between atoms: C_6  and  C_14
REMARK    4  A    between atoms: C_11  and  O_13
REMARK    5  A    between atoms: O_13  and  C_25
REMARK    6  A    between atoms: C_20  and  C_22
REMARK    7  A    between atoms: C_26  and  C_27
REMARK    8  A    between atoms: C_28  and  C_29
REMARK                            x       y       z     vdW  Elec       q    Type
REMARK                         _______ _______ _______ _____ _____    ______ ____
ROOT
ATOM      1  C   UNL A   1     -30.109  -8.858   9.447  0.00  0.00    +0.010 A 
ATOM      2  C   UNL A   1     -30.840  -9.260  10.090  0.00  0.00    +0.076 A 
ATOM      3  C   UNL A   1     -28.866  -9.629   9.417  0.00  0.00    +0.072 A 
ATOM      4  C   UNL A   1     -28.702 -10.778  10.151  0.00  0.00    +0.008 A 
ATOM      5  C   UNL A   1     -30.945 -10.430  10.963  0.00  0.00    +0.011 A 
ATOM      6  C   UNL A   1     -29.747 -11.184  10.941  0.00  0.00    +0.054 A 
ENDROOT
BRANCH   6   7
ATOM      7  C   UNL A   1     -29.622 -12.403  11.777  0.00  0.00    +0.249 C 
ATOM      8  O   UNL A   1     -29.397 -12.443  12.858  0.00  0.00    -0.270 OA
ATOM      9  N   UNL A   1     -29.974 -13.584  11.075  0.00  0.00    -0.276 N 
ATOM     10  C   UNL A   1     -30.126 -14.667  11.589  0.00  0.00    +0.094 C 
ATOM     11  C   UNL A   1     -29.908 -15.754  10.883  0.00  0.00    +0.022 C 
ATOM     12  C   UNL A   1     -30.180 -15.733   9.570  0.00  0.00    +0.015 C 
ATOM     13  C   UNL A   1     -30.149 -14.457   8.915  0.00  0.00    +0.123 C 
ATOM     14  C   UNL A   1     -29.984 -13.443   9.668  0.00  0.00    +0.105 C 
BRANCH  13  15
ATOM     15  C   UNL A   1     -30.256 -14.460   7.441  0.00  0.00    +0.366 C 
ATOM     16  O   UNL A   1     -29.501 -14.513   6.680  0.00  0.00    -0.246 OA
ATOM     17  O   UNL A   1     -31.584 -14.238   7.090  0.00  0.00    -0.246 OA
ENDBRANCH  13  15
ENDBRANCH   6   7
BRANCH   3  18
ATOM     18  C   UNL A   1     -27.730  -9.241   8.525  0.00  0.00    +0.419 C 
ATOM     19  F   UNL A   1     -27.955  -9.323   7.442  0.00  0.00    -0.166 F 
ATOM     20  F   UNL A   1     -26.611 -10.056   8.759  0.00  0.00    -0.166 F 
ATOM     21  F   UNL A   1     -27.266  -7.975   8.886  0.00  0.00    -0.166 F 
ENDBRANCH   3  18
BRANCH   2  22
ATOM     22  C   UNL A   1     -32.306  -8.527  10.121  0.00  0.00    +0.346 C 
ATOM     23  O   UNL A   1     -32.654  -7.879  11.124  0.00  0.00    -0.244 OA
BRANCH  22  24
ATOM     24  O   UNL A   1     -33.074  -8.509   9.175  0.00  0.00    -0.418 OA
BRANCH  24  25
ATOM     25  C   UNL A   1     -33.730  -9.253   8.675  0.00  0.00    +0.183 C 
ATOM     26  C   UNL A   1     -34.037 -10.470   9.032  0.00  0.00    +0.041 C 
BRANCH  26  27
ATOM     27  C   UNL A   1     -34.635 -11.341   8.714  0.00  0.00    +0.003 C 
ATOM     28  C   UNL A   1     -34.834 -12.736   9.260  0.00  0.00    -0.000 C 
BRANCH  28  29
ATOM     29  C   UNL A   1     -34.059 -13.030  10.395  0.00  0.00    -0.005 C 
ATOM     30  C   UNL A   1     -33.572 -14.283  10.567  0.00  0.00    -0.026 C 
ATOM     31  C   UNL A   1     -33.849 -15.258   9.625  0.00  0.00    +0.031 C 
ENDBRANCH  28  29
ENDBRANCH  26  27
ENDBRANCH  24  25
ENDBRANCH  22  24
ENDBRANCH   2  22
TORSDOF 8
ENDMDL
ENDMDL
