MODEL 344
MODEL 1
REMARK VINA RESULT:    -6.122      0.000      0.000
REMARK INTER + INTRA:          -7.223
REMARK INTER:                  -6.838
REMARK INTRA:                  -0.385
REMARK UNBOUND:                -0.385
REMARK  Name = No_344-gen_results/8p0m/2024-11-27-11-27-31/
REMARK  2 active torsions:
REMARK  status: ('A' for Active; 'I' for Inactive)
REMARK    1  A    between atoms: C_3  and  C_8
REMARK    2  A    between atoms: C_5  and  C_6
REMARK                            x       y       z     vdW  Elec       q    Type
REMARK                         _______ _______ _______ _____ _____    ______ ____
ROOT
ATOM      1  C   UNL A   1     -24.605   0.141  27.365  0.00  0.00    +0.004 A 
ATOM      2  C   UNL A   1     -24.817  -0.852  27.648  0.00  0.00    -0.000 A 
ATOM      3  C   UNL A   1     -23.277   0.600  27.790  0.00  0.00    +0.071 A 
ATOM      4  C   UNL A   1     -22.502  -0.112  28.610  0.00  0.00    +0.004 A 
ATOM      5  C   UNL A   1     -24.162  -1.789  28.527  0.00  0.00    -0.000 A 
ATOM      6  C   UNL A   1     -22.950  -1.320  28.928  0.00  0.00    -0.000 A 
ENDROOT
BRANCH   3   7
ATOM      7  C   UNL A   1     -22.883   2.037  27.293  0.00  0.00    +0.419 C 
ATOM      8  F   UNL A   1     -23.597   2.879  27.655  0.00  0.00    -0.166 F 
ATOM      9  F   UNL A   1     -21.571   2.322  27.742  0.00  0.00    -0.166 F 
ATOM     10  F   UNL A   1     -22.622   2.039  25.915  0.00  0.00    -0.166 F 
ENDBRANCH   3   7
BRANCH   5  11
ATOM     11  C   UNL A   1     -24.641  -3.081  28.890  0.00  0.00    -0.005 C 
ATOM     12  C   UNL A   1     -24.381  -4.070  28.848  0.00  0.00    -0.026 C 
ATOM     13  C   UNL A   1     -25.066  -5.308  29.305  0.00  0.00    +0.031 C 
ENDBRANCH   5  11
TORSDOF 2
ENDMDL
ENDMDL
