MODEL 3451
MODEL 1
REMARK VINA RESULT:    -5.545      0.000      0.000
REMARK INTER + INTRA:          -5.545
REMARK INTER:                  -5.545
REMARK INTRA:                   0.000
REMARK UNBOUND:                 0.000
REMARK  Name = No_3451-gen_results/8p0m/2024-11-27-11-27-31/
REMARK  0 active torsions:
REMARK  status: ('A' for Active; 'I' for Inactive)
REMARK                            x       y       z     vdW  Elec       q    Type
REMARK                         _______ _______ _______ _____ _____    ______ ____
ROOT
ATOM      1  C   UNL A   1     -24.012  -4.142  28.738  0.00  0.00    +0.000 A 
ATOM      2  C   UNL A   1     -24.247  -3.021  29.126  0.00  0.00    +0.000 A 
ATOM      3  C   UNL A   1     -25.404  -2.655  29.734  0.00  0.00    +0.000 A 
ATOM      4  C   UNL A   1     -26.396  -3.636  29.926  0.00  0.00    +0.000 A 
ATOM      5  C   UNL A   1     -24.941  -5.214  28.987  0.00  0.00    +0.000 A 
ATOM      6  C   UNL A   1     -26.132  -4.894  29.568  0.00  0.00    +0.000 A 
ATOM      7  C   UNL A   1     -23.250  -1.883  28.983  0.00  0.00    +0.000 A 
ATOM      8  C   UNL A   1     -23.148  -0.959  30.095  0.00  0.00    +0.000 A 
ATOM      9  C   UNL A   1     -24.347  -0.383  30.532  0.00  0.00    +0.000 A 
ATOM     10  C   UNL A   1     -25.468  -1.450  30.581  0.00  0.00    +0.000 A 
ENDROOT
TORSDOF 0
ENDMDL
ENDMDL
