MODEL 3453
MODEL 1
REMARK VINA RESULT:    -4.303      0.000      0.000
REMARK INTER + INTRA:          -4.303
REMARK INTER:                  -4.303
REMARK INTRA:                   0.000
REMARK UNBOUND:                 0.000
REMARK  Name = No_3453-gen_results/8p0m/2024-11-27-11-27-31/
REMARK  0 active torsions:
REMARK  status: ('A' for Active; 'I' for Inactive)
REMARK                            x       y       z     vdW  Elec       q    Type
REMARK                         _______ _______ _______ _____ _____    ______ ____
ROOT
ATOM      1  C   UNL A   1     -24.948  -5.369  28.983  0.00  0.00    +0.000 A 
ATOM      2  C   UNL A   1     -24.182  -4.685  28.747  0.00  0.00    +0.000 A 
ATOM      3  C   UNL A   1     -26.117  -4.749  29.605  0.00  0.00    +0.000 A 
ATOM      4  C   UNL A   1     -26.193  -3.397  29.830  0.00  0.00    +0.000 A 
ATOM      5  C   UNL A   1     -23.991  -3.239  28.863  0.00  0.00    +0.000 A 
ATOM      6  C   UNL A   1     -25.118  -2.629  29.464  0.00  0.00    +0.000 A 
ENDROOT
TORSDOF 0
ENDMDL
ENDMDL
