REMARK  Name = outputs/IAG933/test6/raw/output_3453_IAG933_linker_design_.xyz
REMARK  13 active torsions:
REMARK  status: ('A' for Active; 'I' for Inactive)
REMARK    1  A    between atoms: C_1  and  C_2
REMARK    2  A    between atoms: C_1  and  C_8
REMARK    3  A    between atoms: C_1  and  C_37
REMARK    4  A    between atoms: C_13  and  N_28
REMARK    5  A    between atoms: C_14  and  C_15
REMARK    6  A    between atoms: C_21  and  O_22
REMARK    7  A    between atoms: O_22  and  C_23
REMARK    8  A    between atoms: C_23  and  C_24
REMARK    9  A    between atoms: C_30  and  C_31
REMARK   10  A    between atoms: C_30  and  C_38
REMARK   11  A    between atoms: C_31  and  C_43
REMARK   12  A    between atoms: N_33  and  C_37
REMARK   13  A    between atoms: C_36  and  C_37
REMARK                            x       y       z     vdW  Elec       q    Type
REMARK                         _______ _______ _______ _____ _____    ______ ____
ROOT
ATOM      1  N   UNK     1     -24.505   1.315  27.141  0.00  0.00    -0.264 N 
ATOM      2  F   UNK     1     -21.003   1.811  27.343  0.00  0.00    -0.195 F 
ATOM      3  C   UNK     1     -22.247   1.441  27.485  0.00  0.00    +0.192 C 
ATOM      4  C   UNK     1     -24.458   0.744  28.340  0.00  0.00    +0.152 C 
ATOM      5  C   UNK     1     -23.239   1.731  26.645  0.00  0.00    +0.145 C 
ATOM      6 CL   UNK     1     -22.837   2.426  25.124  0.00  0.00    -0.063 Cl
ATOM      7  S   UNK     1     -22.774   0.444  28.836  0.00  0.00    -0.061 S 
ENDROOT
BRANCH   1   8
ATOM      8  C   UNK     1     -25.688   1.614  26.461  0.00  0.00    +0.091 C 
ATOM      9  C   UNK     1     -26.250   2.920  26.395  0.00  0.00    +0.090 C 
ATOM     10  C   UNK     1     -27.438   3.091  25.645  0.00  0.00    +0.108 C 
ATOM     11  N   UNK     1     -28.075   2.089  25.003  0.00  0.00    -0.208 NA
ATOM     12  C   UNK     1     -27.543   0.849  25.079  0.00  0.00    +0.255 C 
ATOM     13  C   UNK     1     -26.354   0.576  25.777  0.00  0.00    +0.207 C 
ATOM     14  F   UNK     1     -25.860  -0.681  25.795  0.00  0.00    -0.198 F 
BRANCH   9  15
ATOM     15  C   UNK     1     -25.642   4.093  27.123  0.00  0.00    +0.268 C 
ATOM     16  N   UNK     1     -25.614   5.252  26.449  0.00  0.00    -0.200 NA
ATOM     17  C   UNK     1     -25.026   6.479  26.963  0.00  0.00    +0.139 C 
ATOM     18  O   UNK     1     -25.143   3.966  28.243  0.00  0.00    -0.268 OA
ENDBRANCH   9  15
BRANCH  12  19
ATOM     19  O   UNK     1     -28.193  -0.208  24.477  0.00  0.00    -0.456 OA
BRANCH  19  20
ATOM     20  C   UNK     1     -29.460   0.005  23.866  0.00  0.00    +0.243 C 
BRANCH  20  21
ATOM     21  C   UNK     1     -30.065  -1.377  23.573  0.00  0.00    +0.229 C 
ATOM     22  O   UNK     1     -30.729  -1.878  24.721  0.00  0.00    -0.216 OA
ENDBRANCH  20  21
ENDBRANCH  19  20
ENDBRANCH  12  19
ENDBRANCH   1   8
BRANCH   4  23
ATOM     23  C   UNK     1     -25.593  -0.188  28.964  0.00  0.00    +0.130 C 
BRANCH  23  24
ATOM     24  N   UNK     1     -26.775   0.676  29.159  0.00  0.00    -0.204 NA
ATOM     25  C   UNK     1     -27.852   0.242  29.712  0.00  0.00    +0.243 C 
ATOM     26  O   UNK     1     -28.305  -0.765  29.208  0.00  0.00    -0.273 OA
BRANCH  25  27
ATOM     27  C   UNK     1     -28.374   0.973  30.913  0.00  0.00    +0.108 C 
BRANCH  27  28
ATOM     28  C   UNK     1     -28.439   2.516  30.993  0.00  0.00    +0.134 C 
ATOM     29  N   UNK     1     -27.371   3.378  31.698  0.00  0.00    -0.130 NA
BRANCH  28  31
ATOM     30  O   UNK     1     -30.830   2.060  31.344  0.00  0.00    -0.219 OA
ATOM     31  C   UNK     1     -29.711   2.809  31.833  0.00  0.00    +0.201 C 
ENDBRANCH  28  31
ENDBRANCH  27  28
ENDBRANCH  25  27
ENDBRANCH  23  24
BRANCH  23  32
ATOM     32  C   UNK     1     -24.855  -1.012  30.143  0.00  0.00    +0.061 C 
BRANCH  32  33
ATOM     33  C   UNK     1     -24.973  -2.505  29.788  0.00  0.00    -0.019 C 
ATOM     34  C   UNK     1     -23.906  -3.173  29.146  0.00  0.00    -0.004 C 
ATOM     35  C   UNK     1     -23.989  -4.549  28.853  0.00  0.00    -0.000 C 
ATOM     36  C   UNK     1     -25.137  -5.280  29.205  0.00  0.00    -0.000 C 
ATOM     37  C   UNK     1     -26.232  -4.611  29.784  0.00  0.00    -0.000 C 
ATOM     38  C   UNK     1     -26.155  -3.232  30.065  0.00  0.00    -0.004 C 
ENDBRANCH  32  33
BRANCH  32  39
ATOM     39  C   UNK     1     -25.387  -0.679  31.571  0.00  0.00    +0.079 C 
ATOM     40  C   UNK     1     -25.189   0.773  32.028  0.00  0.00    +0.019 C 
ATOM     41  C   UNK     1     -25.336   0.684  33.544  0.00  0.00    +0.020 C 
ATOM     42  C   UNK     1     -24.829  -0.715  33.905  0.00  0.00    +0.089 C 
ATOM     43  N   UNK     1     -24.758  -1.481  32.646  0.00  0.00    -0.219 NA
ENDBRANCH  32  39
ENDBRANCH  23  32
ENDBRANCH   4  23
TORSDOF 13
