MODEL 3454
MODEL 1
REMARK VINA RESULT:    -8.569      0.000      0.000
REMARK INTER + INTRA:         -11.895
REMARK INTER:                 -11.574
REMARK INTRA:                  -0.321
REMARK UNBOUND:                -0.321
REMARK  Name = No_3454-gen_results/8p0m/2024-11-27-11-27-31/
REMARK  6 active torsions:
REMARK  status: ('A' for Active; 'I' for Inactive)
REMARK    1  A    between atoms: C_3  and  C_7
REMARK    2  A    between atoms: C_6  and  O_17
REMARK    3  A    between atoms: O_17  and  C_18
REMARK    4  A    between atoms: N_21  and  C_26
REMARK    5  A    between atoms: C_26  and  C_27
REMARK    6  A    between atoms: C_26  and  C_34
REMARK                            x       y       z     vdW  Elec       q    Type
REMARK                         _______ _______ _______ _____ _____    ______ ____
ROOT
ATOM      1  C   UNL A   1     -24.702   1.793  27.571  0.00  0.00    +0.244 C 
ATOM      2  C   UNL A   1     -24.183   0.556  27.997  0.00  0.00    +0.266 C 
ATOM      3  O   UNL A   1     -23.975  -0.298  27.311  0.00  0.00    -0.271 OA
ATOM      4  N   UNL A   1     -24.374   0.293  29.388  0.00  0.00    -0.274 N 
ATOM      5  C   UNL A   1     -24.875   1.232  30.362  0.00  0.00    +0.127 C 
ATOM      6  C   UNL A   1     -25.523   2.247  29.715  0.00  0.00    +0.176 C 
ATOM      7  C   UNL A   1     -25.293   2.648  28.397  0.00  0.00    +0.088 C 
ATOM      8  O   UNL A   1     -25.665   3.367  30.612  0.00  0.00    -0.221 OA
ENDROOT
BRANCH   4   9
ATOM      9  C   UNL A   1     -23.727  -0.979  29.840  0.00  0.00    +0.080 C 
ATOM     10  C   UNL A   1     -22.358  -1.015  29.405  0.00  0.00    +0.024 C 
BRANCH   9  11
ATOM     11  C   UNL A   1     -24.487  -2.098  29.690  0.00  0.00    -0.006 A 
ATOM     12  C   UNL A   1     -25.578  -2.175  30.085  0.00  0.00    -0.003 A 
ATOM     13  C   UNL A   1     -26.419  -3.391  29.997  0.00  0.00    -0.000 A 
ATOM     14  C   UNL A   1     -25.841  -4.506  29.366  0.00  0.00    -0.000 A 
ATOM     15  C   UNL A   1     -24.527  -4.440  28.921  0.00  0.00    -0.000 A 
ATOM     16  C   UNL A   1     -23.844  -3.298  29.055  0.00  0.00    -0.003 A 
ENDBRANCH   9  11
BRANCH   9  17
ATOM     17  C   UNL A   1     -23.759  -0.857  31.487  0.00  0.00    +0.022 C 
ATOM     18  C   UNL A   1     -23.023  -1.132  32.244  0.00  0.00    +0.002 C 
ENDBRANCH   9  17
ENDBRANCH   4   9
BRANCH   1  19
ATOM     19  O   UNL A   1     -24.796   1.875  26.185  0.00  0.00    -0.470 OA
BRANCH  19  25
ATOM     20  C   UNL A   1     -27.199   2.197  25.967  0.00  0.00    +0.037 A 
ATOM     21  C   UNL A   1     -28.250   1.875  25.461  0.00  0.00    -0.001 A 
ATOM     22  C   UNL A   1     -28.389   0.791  24.595  0.00  0.00    -0.017 A 
ATOM     23  C   UNL A   1     -27.212   0.030  24.223  0.00  0.00    -0.001 A 
ATOM     24  C   UNL A   1     -26.020   0.447  24.813  0.00  0.00    +0.037 A 
ATOM     25  C   UNL A   1     -25.977   1.493  25.615  0.00  0.00    +0.139 A 
BRANCH  22  26
ATOM     26  C   UNL A   1     -29.649   0.325  23.933  0.00  0.00    +0.067 C 
ATOM     27  C   UNL A   1     -30.402   1.137  23.247  0.00  0.00    +0.018 A 
ATOM     28  C   UNL A   1     -30.422   2.129  22.858  0.00  0.00    +0.001 A 
ATOM     29  C   UNL A   1     -31.473   2.810  22.128  0.00  0.00    +0.021 A 
ATOM     30  C   UNL A   1     -32.649   2.091  21.952  0.00  0.00    +0.100 A 
ATOM     31  C   UNL A   1     -31.767   0.325  22.913  0.00  0.00    +0.162 A 
ATOM     32  N   UNL A   1     -32.726   0.900  22.288  0.00  0.00    -0.227 NA
ATOM     33  C   UNL A   1     -29.906  -1.155  24.035  0.00  0.00    +0.122 C 
ATOM     34  N   UNL A   1     -31.864  -1.010  23.262  0.00  0.00    -0.129 NA
ATOM     35  N   UNL A   1     -31.062  -1.678  23.769  0.00  0.00    -0.109 NA
ENDBRANCH  22  26
ENDBRANCH  19  25
ENDBRANCH   1  19
TORSDOF 6
ENDMDL
ENDMDL
