REMARK  Name = outputs/IAG933/test6/raw/output_3455_IAG933_linker_design_.xyz
REMARK  15 active torsions:
REMARK  status: ('A' for Active; 'I' for Inactive)
REMARK    1  A    between atoms: C_1  and  C_2
REMARK    2  A    between atoms: C_1  and  C_8
REMARK    3  A    between atoms: C_1  and  O_40
REMARK    4  A    between atoms: C_13  and  C_29
REMARK    5  A    between atoms: C_14  and  C_15
REMARK    6  A    between atoms: C_21  and  O_22
REMARK    7  A    between atoms: O_22  and  C_23
REMARK    8  A    between atoms: C_23  and  C_24
REMARK    9  A    between atoms: C_30  and  C_45
REMARK   10  A    between atoms: O_31  and  C_43
REMARK   11  A    between atoms: O_31  and  C_45
REMARK   12  A    between atoms: C_32  and  N_37
REMARK   13  A    between atoms: C_32  and  O_40
REMARK   14  A    between atoms: C_32  and  C_42
REMARK   15  A    between atoms: N_37  and  C_43
REMARK                            x       y       z     vdW  Elec       q    Type
REMARK                         _______ _______ _______ _____ _____    ______ ____
ROOT
ATOM      1  C   UNL A   1     -24.319   0.802  29.106  0.00  0.00    +0.220 C 
ENDROOT
BRANCH   1   8
ATOM      2  N   UNL A   1     -21.562   0.854  28.915  0.00  0.00    -0.088 NA
ATOM      3  C   UNL A   1     -24.229   1.566  26.606  0.00  0.00    -0.012 C 
ATOM      4  C   UNL A   1     -22.033   2.250  25.701  0.00  0.00    +0.233 C 
ATOM      5  O   UNL A   1     -21.389   1.852  26.813  0.00  0.00    -0.456 OA
ATOM      6  C   UNL A   1     -22.144   1.251  27.892  0.00  0.00    +0.230 C 
ATOM      7  C   UNL A   1     -23.428   2.093  25.515  0.00  0.00    +0.017 C 
ATOM      8  C   UNL A   1     -23.561   1.166  27.801  0.00  0.00    +0.070 C 
BRANCH   3   9
ATOM      9  C   UNL A   1     -25.688   1.614  26.461  0.00  0.00    +0.092 C 
ATOM     10  C   UNL A   1     -26.250   2.920  26.395  0.00  0.00    +0.059 C 
ATOM     11  C   UNL A   1     -27.438   3.091  25.645  0.00  0.00    +0.102 C 
ATOM     12  N   UNL A   1     -28.075   2.089  25.003  0.00  0.00    -0.212 NA
ATOM     13  C   UNL A   1     -27.543   0.849  25.079  0.00  0.00    +0.234 C 
ATOM     14  C   UNL A   1     -26.354   0.576  25.777  0.00  0.00    +0.244 C 
ATOM     15  F   UNL A   1     -25.860  -0.681  25.795  0.00  0.00    -0.227 F 
BRANCH  10  16
ATOM     16  C   UNL A   1     -25.642   4.093  27.123  0.00  0.00    +0.263 C 
ATOM     17  N   UNL A   1     -25.614   5.252  26.449  0.00  0.00    -0.200 NA
ATOM     18  C   UNL A   1     -25.026   6.479  26.963  0.00  0.00    +0.139 C 
ATOM     19  O   UNL A   1     -25.143   3.966  28.243  0.00  0.00    -0.269 OA
ENDBRANCH  10  16
BRANCH  13  20
ATOM     20  O   UNL A   1     -28.193  -0.208  24.477  0.00  0.00    -0.459 OA
BRANCH  20  21
ATOM     21  C   UNL A   1     -29.460   0.005  23.866  0.00  0.00    +0.242 C 
BRANCH  21  22
ATOM     22  C   UNL A   1     -30.065  -1.377  23.573  0.00  0.00    +0.229 C 
ATOM     23  O   UNL A   1     -30.729  -1.878  24.721  0.00  0.00    -0.216 OA
ENDBRANCH  21  22
ENDBRANCH  20  21
ENDBRANCH  13  20
ENDBRANCH   3   9
ENDBRANCH   1   8
BRANCH   1  24
ATOM     24  N   UNL A   1     -24.250   2.164  30.009  0.00  0.00    -0.157 NA
BRANCH  24  25
ATOM     25  C   UNL A   1     -24.453   3.116  31.039  0.00  0.00    +0.237 C 
BRANCH  25  26
ATOM     26  O   UNL A   1     -24.988   4.290  30.668  0.00  0.00    -0.336 OA
BRANCH  26  27
ATOM     27  C   UNL A   1     -25.750   5.096  31.590  0.00  0.00    +0.146 C 
BRANCH  27  28
ATOM     28  C   UNL A   1     -24.938   6.160  32.370  0.00  0.00    +0.062 C 
ATOM     29  C   UNL A   1     -23.820   5.704  33.225  0.00  0.00    +0.145 C 
ATOM     30  C   UNL A   1     -24.611   7.526  31.807  0.00  0.00    +0.037 C 
ATOM     31  C   UNL A   1     -23.484   7.994  32.684  0.00  0.00    +0.142 C 
ATOM     32  O   UNL A   1     -22.862   6.778  33.136  0.00  0.00    -0.354 OA
ENDBRANCH  27  28
ENDBRANCH  26  27
ENDBRANCH  25  26
ENDBRANCH  24  25
ENDBRANCH   1  24
BRANCH   1  33
ATOM     33  O   UNL A   1     -25.373  -0.121  29.142  0.00  0.00    -0.332 OA
BRANCH  33  34
ATOM     34  C   UNL A   1     -24.855  -1.012  30.143  0.00  0.00    +0.155 C 
BRANCH  34  35
ATOM     35  C   UNL A   1     -24.973  -2.505  29.788  0.00  0.00    +0.006 C 
ATOM     36  C   UNL A   1     -23.906  -3.173  29.146  0.00  0.00    -0.002 C 
ATOM     37  C   UNL A   1     -23.989  -4.549  28.853  0.00  0.00    -0.000 C 
ATOM     38  C   UNL A   1     -25.137  -5.280  29.205  0.00  0.00    -0.000 C 
ATOM     39  C   UNL A   1     -26.232  -4.611  29.784  0.00  0.00    -0.000 C 
ATOM     40  C   UNL A   1     -26.155  -3.232  30.065  0.00  0.00    -0.002 C 
ENDBRANCH  34  35
BRANCH  34  41
ATOM     41  C   UNL A   1     -25.387  -0.679  31.571  0.00  0.00    +0.104 C 
ATOM     42  C   UNL A   1     -25.189   0.773  32.028  0.00  0.00    +0.022 C 
ATOM     43  C   UNL A   1     -25.336   0.684  33.544  0.00  0.00    +0.020 C 
ATOM     44  C   UNL A   1     -24.829  -0.715  33.905  0.00  0.00    +0.089 C 
ATOM     45  N   UNL A   1     -24.758  -1.481  32.646  0.00  0.00    -0.217 NA
ENDBRANCH  34  41
ENDBRANCH  33  34
ENDBRANCH   1  33
TORSDOF 15
