MODEL 3456
MODEL 1
REMARK VINA RESULT:    -6.124      0.000      0.000
REMARK INTER + INTRA:          -9.419
REMARK INTER:                  -8.272
REMARK INTRA:                  -1.147
REMARK UNBOUND:                -1.147
REMARK  Name = No_3456-gen_results/8p0m/2024-11-27-11-27-31/
REMARK  6 active torsions:
REMARK  status: ('A' for Active; 'I' for Inactive)
REMARK    1  A    between atoms: C_3  and  C_4
REMARK    2  A    between atoms: C_10  and  C_13
REMARK    3  A    between atoms: N_14  and  C_15
REMARK    4  A    between atoms: C_15  and  C_16
REMARK    5  A    between atoms: C_16  and  C_17
REMARK    6  A    between atoms: C_17  and  C_18
REMARK                            x       y       z     vdW  Elec       q    Type
REMARK                         _______ _______ _______ _____ _____    ______ ____
ROOT
ATOM      1  C   UNL A   1     -24.798   0.394  25.499  0.00  0.00    +0.005 A 
ATOM      2  C   UNL A   1     -25.790  -0.037  24.959  0.00  0.00    +0.000 A 
ATOM      3  C   UNL A   1     -26.950   0.712  24.767  0.00  0.00    +0.000 A 
ATOM      4  C   UNL A   1     -24.819   1.690  26.178  0.00  0.00    +0.055 A 
ATOM      5  C   UNL A   1     -25.861   2.579  25.973  0.00  0.00    +0.005 A 
ATOM      6  C   UNL A   1     -27.003   2.095  25.293  0.00  0.00    +0.000 A 
ENDROOT
BRANCH   3   7
ATOM      7  C   UNL A   1     -28.206   0.266  24.132  0.00  0.00    +0.000 A 
ATOM      8  C   UNL A   1     -29.153   1.293  23.839  0.00  0.00    +0.000 A 
ATOM      9  C   UNL A   1     -30.378   0.941  23.274  0.00  0.00    +0.000 A 
ATOM     10  C   UNL A   1     -30.701  -0.417  23.156  0.00  0.00    +0.000 A 
ATOM     11  C   UNL A   1     -29.801  -1.411  23.456  0.00  0.00    +0.000 A 
ATOM     12  C   UNL A   1     -28.546  -1.048  23.992  0.00  0.00    +0.000 A 
ENDBRANCH   3   7
BRANCH   4  13
ATOM     13  C   UNL A   1     -23.634   2.213  26.892  0.00  0.00    +0.265 C 
ATOM     14  N   UNL A   1     -22.433   1.746  26.632  0.00  0.00    -0.202 NA
ATOM     15  O   UNL A   1     -23.780   3.116  27.713  0.00  0.00    -0.268 OA
BRANCH  14  16
ATOM     16  C   UNL A   1     -21.440   1.693  27.598  0.00  0.00    +0.117 C 
BRANCH  16  17
ATOM     17  C   UNL A   1     -21.218   0.430  28.187  0.00  0.00    +0.037 C 
BRANCH  17  18
ATOM     18  C   UNL A   1     -22.110   0.097  29.125  0.00  0.00    +0.079 C 
BRANCH  18  19
ATOM     19  C   UNL A   1     -22.749  -1.054  28.924  0.00  0.00    -0.078 C 
ATOM     20  C   UNL A   1     -23.960  -1.014  29.079  0.00  0.00    -0.014 C 
ENDBRANCH  18  19
ENDBRANCH  17  18
ENDBRANCH  16  17
ENDBRANCH  14  16
ENDBRANCH   4  13
TORSDOF 6
ENDMDL
ENDMDL
