MODEL 3457
MODEL 1
REMARK VINA RESULT:   -10.425      0.000      0.000
REMARK INTER + INTRA:         -12.659
REMARK INTER:                 -12.253
REMARK INTRA:                  -0.406
REMARK UNBOUND:                -0.406
REMARK  Name = No_3457-gen_results/8p0m/2024-11-27-11-27-31/
REMARK  3 active torsions:
REMARK  status: ('A' for Active; 'I' for Inactive)
REMARK    1  A    between atoms: C_18  and  C_22
REMARK    2  A    between atoms: C_22  and  C_23
REMARK    3  A    between atoms: N_25  and  C_29
REMARK                            x       y       z     vdW  Elec       q    Type
REMARK                         _______ _______ _______ _____ _____    ______ ____
ROOT
ATOM      1  C   UNL A   1     -26.557  -0.808  24.357  0.00  0.00    +0.006 A 
ATOM      2  C   UNL A   1     -27.293   0.139  24.204  0.00  0.00    +0.039 A 
ATOM      3  C   UNL A   1     -27.193   1.343  24.880  0.00  0.00    +0.006 A 
ATOM      4  C   UNL A   1     -26.116   1.481  25.805  0.00  0.00    +0.035 A 
ATOM      5  C   UNL A   1     -25.224   0.478  25.839  0.00  0.00    +0.145 A 
ATOM      6  C   UNL A   1     -25.376  -0.604  25.132  0.00  0.00    +0.038 A 
ATOM      7  C   UNL A   1     -28.217   2.441  24.756  0.00  0.00    +0.000 A 
ATOM      8  C   UNL A   1     -29.405   2.012  24.298  0.00  0.00    +0.003 A 
ATOM      9  C   UNL A   1     -30.432   3.008  23.972  0.00  0.00    +0.000 A 
ATOM     10  C   UNL A   1     -31.639   2.608  23.296  0.00  0.00    +0.000 A 
ATOM     11  C   UNL A   1     -31.919   1.298  23.058  0.00  0.00    +0.000 A 
ATOM     12  C   UNL A   1     -30.994   0.302  23.453  0.00  0.00    +0.003 A 
ATOM     13  C   UNL A   1     -29.766   0.676  24.005  0.00  0.00    +0.039 A 
ATOM     14  C   UNL A   1     -28.704  -0.185  23.728  0.00  0.00    +0.196 A 
ATOM     15  O   UNL A   1     -28.911  -1.380  23.304  0.00  0.00    -0.287 OA
ATOM     16  C   UNL A   1     -27.926   3.745  25.241  0.00  0.00    +0.000 A 
ATOM     17  O   UNL A   1     -24.099   0.673  26.575  0.00  0.00    -0.458 OA
ATOM     18  C   UNL A   1     -23.712   1.442  27.142  0.00  0.00    +0.123 A 
ATOM     19  C   UNL A   1     -25.854   2.704  26.519  0.00  0.00    +0.006 A 
ATOM     20  C   UNL A   1     -24.579   2.732  27.265  0.00  0.00    +0.033 A 
ATOM     21  C   UNL A   1     -26.710   3.872  26.257  0.00  0.00    +0.000 A 
ENDROOT
BRANCH  18  22
ATOM     22  C   UNL A   1     -22.588   1.554  28.052  0.00  0.00    +0.066 C 
BRANCH  22  23
ATOM     23  C   UNL A   1     -22.734   0.704  29.131  0.00  0.00    +0.027 C 
ATOM     24  C   UNL A   1     -23.301  -0.534  28.838  0.00  0.00    +0.091 C 
ATOM     25  N   UNL A   1     -23.947  -1.155  29.644  0.00  0.00    -0.307 N 
ATOM     26  C   UNL A   1     -24.509  -0.748  30.618  0.00  0.00    +0.091 C 
ATOM     27  C   UNL A   1     -24.015   0.520  31.179  0.00  0.00    +0.021 C 
ATOM     28  C   UNL A   1     -23.714   1.398  30.138  0.00  0.00    +0.004 C 
BRANCH  25  29
ATOM     29  C   UNL A   1     -24.312  -2.676  29.332  0.00  0.00    +0.048 A 
ATOM     30  C   UNL A   1     -23.785  -3.418  28.842  0.00  0.00    +0.015 A 
ATOM     31  C   UNL A   1     -25.676  -3.051  29.928  0.00  0.00    +0.015 A 
ATOM     32  C   UNL A   1     -26.165  -4.310  29.708  0.00  0.00    +0.001 A 
ATOM     33  C   UNL A   1     -24.195  -4.823  28.574  0.00  0.00    +0.001 A 
ATOM     34  C   UNL A   1     -25.421  -5.205  29.042  0.00  0.00    +0.000 A 
ENDBRANCH  25  29
ENDBRANCH  22  23
ENDBRANCH  18  22
TORSDOF 3
ENDMDL
ENDMDL
