REMARK  Name = No_3457-gen_results/8p0m/2024-11-27-11-27-31/
REMARK  3 active torsions:
REMARK  status: ('A' for Active; 'I' for Inactive)
REMARK    1  A    between atoms: C_18  and  C_22
REMARK    2  A    between atoms: C_22  and  C_23
REMARK    3  A    between atoms: N_25  and  C_29
REMARK                            x       y       z     vdW  Elec       q    Type
REMARK                         _______ _______ _______ _____ _____    ______ ____
ROOT
ATOM      1  C   UNL A   1     -28.016  -0.814  28.878  0.00  0.00    +0.006 A 
ATOM      2  C   UNL A   1     -27.064  -0.119  28.608  0.00  0.00    +0.039 A 
ATOM      3  C   UNL A   1     -26.972   0.714  27.506  0.00  0.00    +0.006 A 
ATOM      4  C   UNL A   1     -28.105   0.774  26.642  0.00  0.00    +0.035 A 
ATOM      5  C   UNL A   1     -29.204   0.118  27.048  0.00  0.00    +0.145 A 
ATOM      6  C   UNL A   1     -29.213  -0.609  28.128  0.00  0.00    +0.038 A 
ATOM      7  C   UNL A   1     -25.711   1.452  27.138  0.00  0.00    +0.000 A 
ATOM      8  C   UNL A   1     -24.605   0.925  27.690  0.00  0.00    +0.003 A 
ATOM      9  C   UNL A   1     -23.338   1.651  27.549  0.00  0.00    +0.000 A 
ATOM     10  C   UNL A   1     -22.176   1.228  28.287  0.00  0.00    +0.000 A 
ATOM     11  C   UNL A   1     -22.181   0.085  29.026  0.00  0.00    +0.000 A 
ATOM     12  C   UNL A   1     -23.361  -0.694  29.101  0.00  0.00    +0.003 A 
ATOM     13  C   UNL A   1     -24.531  -0.241  28.487  0.00  0.00    +0.039 A 
ATOM     14  C   UNL A   1     -25.716  -0.607  29.126  0.00  0.00    +0.196 A 
ATOM     15  O   UNL A   1     -25.738  -1.557  29.991  0.00  0.00    -0.287 OA
ATOM     16  C   UNL A   1     -25.753   2.498  26.176  0.00  0.00    +0.000 A 
ATOM     17  O   UNL A   1     -30.343   0.315  26.335  0.00  0.00    -0.458 OA
ATOM     18  C   UNL A   1     -30.614   0.883  25.519  0.00  0.00    +0.123 A 
ATOM     19  C   UNL A   1     -28.170   1.653  25.502  0.00  0.00    +0.006 A 
ATOM     20  C   UNL A   1     -29.494   1.739  24.854  0.00  0.00    +0.033 A 
ATOM     21  C   UNL A   1     -27.035   2.552  25.239  0.00  0.00    +0.000 A 
ENDROOT
BRANCH  18  22
ATOM     22  C   UNL A   1     -31.797   0.939  24.681  0.00  0.00    +0.066 C 
BRANCH  22  23
ATOM     23  C   UNL A   1     -32.650  -0.114  24.951  0.00  0.00    +0.027 C 
ATOM     24  C   UNL A   1     -33.168  -0.140  26.243  0.00  0.00    +0.091 C 
ATOM     25  N   UNL A   1     -33.476  -1.166  26.795  0.00  0.00    -0.307 N 
ATOM     26  C   UNL A   1     -33.103  -2.278  26.558  0.00  0.00    +0.091 C 
ATOM     27  C   UNL A   1     -32.592  -2.523  25.199  0.00  0.00    +0.021 C 
ATOM     28  C   UNL A   1     -31.820  -1.434  24.794  0.00  0.00    +0.004 C 
BRANCH  25  29
ATOM     29  C   UNL A   1     -34.323  -1.093  28.144  0.00  0.00    +0.048 A 
ATOM     30  C   UNL A   1     -34.721  -1.837  28.741  0.00  0.00    +0.015 A 
ATOM     31  C   UNL A   1     -34.507   0.360  28.604  0.00  0.00    +0.015 A 
ATOM     32  C   UNL A   1     -35.257   0.604  29.723  0.00  0.00    +0.001 A 
ATOM     33  C   UNL A   1     -35.519  -1.696  29.989  0.00  0.00    +0.001 A 
ATOM     34  C   UNL A   1     -35.754  -0.422  30.427  0.00  0.00    +0.000 A 
ENDBRANCH  25  29
ENDBRANCH  22  23
ENDBRANCH  18  22
TORSDOF 3
