REMARK  Name = No_3458-gen_results/8p0m/2024-11-27-11-27-31/
REMARK  4 active torsions:
REMARK  status: ('A' for Active; 'I' for Inactive)
REMARK    1  A    between atoms: C_2  and  C_5
REMARK    2  A    between atoms: C_3  and  O_13
REMARK    3  A    between atoms: C_6  and  C_21
REMARK    4  A    between atoms: O_13  and  C_14
REMARK                            x       y       z     vdW  Elec       q    Type
REMARK                         _______ _______ _______ _____ _____    ______ ____
ROOT
ATOM      1  C   UNL A   1     -28.016  -0.814  28.878  0.00  0.00    +0.042 A 
ATOM      2  C   UNL A   1     -28.469  -0.785  29.829  0.00  0.00    +0.057 A 
ATOM      3  C   UNL A   1     -28.196   0.348  28.055  0.00  0.00    +0.145 A 
ATOM      4  C   UNL A   1     -29.019   1.350  28.378  0.00  0.00    +0.041 A 
ATOM      5  C   UNL A   1     -29.595   1.286  29.605  0.00  0.00    +0.045 A 
ATOM      6  C   UNL A   1     -29.346   0.209  30.375  0.00  0.00    +0.008 A 
ENDROOT
BRANCH   2   7
ATOM      7  C   UNL A   1     -28.317  -1.981  30.856  0.00  0.00    +0.253 C 
ATOM      8  N   UNL A   1     -29.215  -2.917  30.867  0.00  0.00    -0.254 N 
ATOM      9  C   UNL A   1     -28.900  -4.154  30.463  0.00  0.00    +0.063 C 
ATOM     10  C   UNL A   1     -30.044  -5.113  30.276  0.00  0.00    -0.008 C 
ATOM     11  C   UNL A   1     -30.960  -4.712  31.043  0.00  0.00    +0.049 C 
ATOM     12  C   UNL A   1     -30.485  -3.083  31.507  0.00  0.00    +0.103 C 
ATOM     13  O   UNL A   1     -27.311  -1.941  31.589  0.00  0.00    -0.270 OA
ENDBRANCH   2   7
BRANCH   5  14
ATOM     14  C   UNL A   1     -30.509   2.373  30.080  0.00  0.00    +0.234 C 
ATOM     15  O   UNL A   1     -30.355   2.933  31.032  0.00  0.00    -0.283 OA
ENDBRANCH   5  14
BRANCH   3  16
ATOM     16  O   UNL A   1     -27.553   0.327  26.790  0.00  0.00    -0.454 OA
BRANCH  16  17
ATOM     17  C   UNL A   1     -26.869   1.479  26.385  0.00  0.00    +0.145 A 
ATOM     18  C   UNL A   1     -25.563   1.132  25.957  0.00  0.00    +0.037 A 
ATOM     19  C   UNL A   1     -24.448   1.972  26.420  0.00  0.00    +0.003 A 
ATOM     20  C   UNL A   1     -24.763   3.252  26.842  0.00  0.00    +0.000 A 
ATOM     21  C   UNL A   1     -26.134   3.625  27.091  0.00  0.00    +0.003 A 
ATOM     22  C   UNL A   1     -27.118   2.678  26.962  0.00  0.00    +0.037 A 
ENDBRANCH  16  17
ENDBRANCH   3  16
TORSDOF 4
