REMARK  Name = outputs/IAG933/test6/raw/output_3459_IAG933_linker_design_.xyz
REMARK  16 active torsions:
REMARK  status: ('A' for Active; 'I' for Inactive)
REMARK    1  A    between atoms: C_1  and  C_2
REMARK    2  A    between atoms: C_1  and  C_8
REMARK    3  A    between atoms: C_1  and  C_45
REMARK    4  A    between atoms: C_13  and  C_49
REMARK    5  A    between atoms: C_14  and  C_15
REMARK    6  A    between atoms: C_21  and  O_22
REMARK    7  A    between atoms: O_22  and  C_23
REMARK    8  A    between atoms: C_23  and  C_24
REMARK    9  A    between atoms: C_28  and  C_40
REMARK   10  A    between atoms: N_30  and  C_35
REMARK   11  A    between atoms: C_31  and  O_36
REMARK   12  A    between atoms: C_31  and  C_41
REMARK   13  A    between atoms: C_33  and  C_47
REMARK   14  A    between atoms: N_34  and  C_41
REMARK   15  A    between atoms: C_35  and  C_45
REMARK   16  A    between atoms: C_37  and  C_45
REMARK                            x       y       z     vdW  Elec       q    Type
REMARK                         _______ _______ _______ _____ _____    ______ ____
ROOT
ATOM      1  C   UNL A   1     -24.684   0.228  29.279  0.00  0.00    +0.027 C 
ENDROOT
BRANCH   1   2
ATOM      2  C   UNL A   1     -23.503   0.594  28.457  0.00  0.00    +0.003 C 
ATOM      3  C   UNL A   1     -23.578   0.889  27.260  0.00  0.00    +0.016 C 
ATOM      4  C   UNL A   1     -24.355   1.439  26.695  0.00  0.00    +0.022 C 
ATOM      5  C   UNL A   1     -21.703   1.698  27.585  0.00  0.00    +0.015 C 
ATOM      6 CL   UNL A   1     -22.494   2.149  25.113  0.00  0.00    -0.116 Cl
ATOM      7  C   UNL A   1     -23.096   1.510  26.639  0.00  0.00    +0.068 C 
ATOM      8  C   UNL A   1     -22.181   0.886  28.575  0.00  0.00    +0.001 C 
BRANCH   4   9
ATOM      9  C   UNL A   1     -25.688   1.614  26.461  0.00  0.00    +0.071 C 
ATOM     10  C   UNL A   1     -26.250   2.920  26.395  0.00  0.00    +0.055 C 
ATOM     11  C   UNL A   1     -27.438   3.091  25.645  0.00  0.00    +0.102 C 
ATOM     12  N   UNL A   1     -28.075   2.089  25.003  0.00  0.00    -0.212 NA
ATOM     13  C   UNL A   1     -27.543   0.849  25.079  0.00  0.00    +0.234 C 
ATOM     14  C   UNL A   1     -26.354   0.576  25.777  0.00  0.00    +0.240 C 
ATOM     15  F   UNL A   1     -25.860  -0.681  25.795  0.00  0.00    -0.227 F 
BRANCH  10  16
ATOM     16  C   UNL A   1     -25.642   4.093  27.123  0.00  0.00    +0.262 C 
ATOM     17  N   UNL A   1     -25.614   5.252  26.449  0.00  0.00    -0.200 NA
ATOM     18  C   UNL A   1     -25.026   6.479  26.963  0.00  0.00    +0.139 C 
ATOM     19  O   UNL A   1     -25.143   3.966  28.243  0.00  0.00    -0.269 OA
ENDBRANCH  10  16
BRANCH  13  20
ATOM     20  O   UNL A   1     -28.193  -0.208  24.477  0.00  0.00    -0.459 OA
BRANCH  20  21
ATOM     21  C   UNL A   1     -29.460   0.005  23.866  0.00  0.00    +0.242 C 
BRANCH  21  22
ATOM     22  C   UNL A   1     -30.065  -1.377  23.573  0.00  0.00    +0.229 C 
ATOM     23  O   UNL A   1     -30.729  -1.878  24.721  0.00  0.00    -0.216 OA
ENDBRANCH  21  22
ENDBRANCH  20  21
ENDBRANCH  13  20
ENDBRANCH   4   9
ENDBRANCH   1   2
BRANCH   1  24
ATOM     24  C   UNL A   1     -25.961   1.155  29.255  0.00  0.00    +0.116 C 
BRANCH  24  25
ATOM     25  N   UNL A   1     -25.977   2.341  30.244  0.00  0.00    -0.202 NA
ATOM     26  C   UNL A   1     -26.564   3.588  30.457  0.00  0.00    +0.264 C 
ATOM     27  O   UNL A   1     -25.890   4.602  30.745  0.00  0.00    -0.268 OA
BRANCH  26  28
ATOM     28  C   UNL A   1     -27.990   3.884  30.330  0.00  0.00    +0.047 C 
ATOM     29  C   UNL A   1     -30.078   3.318  29.114  0.00  0.00    +0.026 C 
ATOM     30  C   UNL A   1     -30.113   5.134  30.669  0.00  0.00    +0.025 C 
ATOM     31  C   UNL A   1     -28.707   3.133  29.423  0.00  0.00    -0.022 C 
ATOM     32  C   UNL A   1     -28.467   5.769  32.061  0.00  0.00    -0.004 C 
ATOM     33  C   UNL A   1     -30.913   4.133  29.968  0.00  0.00    +0.009 C 
ATOM     34  C   UNL A   1     -28.828   4.931  31.055  0.00  0.00    -0.018 C 
BRANCH  30  40
ATOM     35  N   UNL A   1     -30.205   8.227  32.610  0.00  0.00    -0.217 NA
ATOM     36  N   UNL A   1     -32.080   8.293  30.297  0.00  0.00    -0.272 NA
ATOM     37  C   UNL A   1     -33.838   9.313  31.880  0.00  0.00    +0.018 C 
ATOM     38  C   UNL A   1     -29.904   7.137  31.802  0.00  0.00    +0.090 C 
ATOM     39  C   UNL A   1     -30.961   9.318  32.519  0.00  0.00    +0.103 C 
ATOM     40  C   UNL A   1     -30.476   6.461  30.751  0.00  0.00    +0.037 C 
ATOM     41  C   UNL A   1     -32.217   9.361  31.741  0.00  0.00    +0.062 C 
ATOM     42  C   UNL A   1     -32.968  10.462  32.160  0.00  0.00    +0.018 C 
ATOM     43  C   UNL A   1     -31.037   7.081  29.980  0.00  0.00    +0.074 C 
BRANCH  36  44
ATOM     44  C   UNL A   1     -32.801   8.492  29.125  0.00  0.00    +0.104 C 
BRANCH  44  45
ATOM     45  C   UNL A   1     -32.152   9.690  28.701  0.00  0.00    +0.160 C 
BRANCH  45  46
ATOM     46  O   UNL A   1     -30.909   9.279  27.957  0.00  0.00    -0.350 OA
ATOM     47  C   UNL A   1     -30.950   8.063  27.155  0.00  0.00    +0.174 C 
ENDBRANCH  45  46
ENDBRANCH  44  45
ENDBRANCH  36  44
ENDBRANCH  30  40
ENDBRANCH  26  28
ENDBRANCH  24  25
ENDBRANCH   1  24
BRANCH   1  48
ATOM     48  C   UNL A   1     -24.855  -1.012  30.143  0.00  0.00    +0.040 C 
BRANCH  48  49
ATOM     49  C   UNL A   1     -24.973  -2.505  29.788  0.00  0.00    -0.021 C 
ATOM     50  C   UNL A   1     -23.906  -3.173  29.146  0.00  0.00    -0.004 C 
ATOM     51  C   UNL A   1     -23.989  -4.549  28.853  0.00  0.00    -0.000 C 
ATOM     52  C   UNL A   1     -25.137  -5.280  29.205  0.00  0.00    -0.000 C 
ATOM     53  C   UNL A   1     -26.232  -4.611  29.784  0.00  0.00    -0.000 C 
ATOM     54  C   UNL A   1     -26.155  -3.232  30.065  0.00  0.00    -0.004 C 
ENDBRANCH  48  49
BRANCH  48  55
ATOM     55  C   UNL A   1     -25.387  -0.679  31.571  0.00  0.00    +0.077 C 
ATOM     56  C   UNL A   1     -25.189   0.773  32.028  0.00  0.00    +0.019 C 
ATOM     57  C   UNL A   1     -25.336   0.684  33.544  0.00  0.00    +0.020 C 
ATOM     58  C   UNL A   1     -24.829  -0.715  33.905  0.00  0.00    +0.089 C 
ATOM     59  N   UNL A   1     -24.758  -1.481  32.646  0.00  0.00    -0.219 NA
ENDBRANCH  48  55
ENDBRANCH   1  48
TORSDOF 16
