MODEL 3459
MODEL 1
REMARK VINA RESULT:    -6.503      0.000      0.000
REMARK INTER + INTRA:          -7.251
REMARK INTER:                  -6.883
REMARK INTRA:                  -0.368
REMARK UNBOUND:                -0.368
REMARK  Name = No_3459-gen_results/8p0m/2024-11-27-11-27-31/
REMARK  1 active torsions:
REMARK  status: ('A' for Active; 'I' for Inactive)
REMARK    1  A    between atoms: C_3  and  C_7
REMARK                            x       y       z     vdW  Elec       q    Type
REMARK                         _______ _______ _______ _____ _____    ______ ____
ROOT
ATOM      1  C   UNL A   1     -24.757  -4.990  28.992  0.00  0.00    +0.000 A 
ATOM      2  C   UNL A   1     -24.103  -4.015  28.702  0.00  0.00    +0.000 A 
ATOM      3  C   UNL A   1     -24.502  -2.708  28.978  0.00  0.00    +0.000 A 
ATOM      4  C   UNL A   1     -25.795  -2.480  29.594  0.00  0.00    +0.000 A 
ATOM      5  C   UNL A   1     -26.506  -3.663  29.895  0.00  0.00    +0.000 A 
ATOM      6  C   UNL A   1     -26.051  -4.852  29.590  0.00  0.00    +0.000 A 
ENDROOT
BRANCH   3   7
ATOM      7  C   UNL A   1     -23.746  -1.467  28.663  0.00  0.00    +0.000 A 
ATOM      8  C   UNL A   1     -22.533  -1.198  29.220  0.00  0.00    +0.000 A 
ATOM      9  C   UNL A   1     -21.989  -0.255  29.171  0.00  0.00    +0.000 A 
ATOM     10  C   UNL A   1     -22.443   0.904  28.318  0.00  0.00    +0.000 A 
ATOM     11  C   UNL A   1     -23.659   0.723  27.707  0.00  0.00    +0.000 A 
ATOM     12  C   UNL A   1     -24.339  -0.441  27.889  0.00  0.00    +0.000 A 
ENDBRANCH   3   7
TORSDOF 1
ENDMDL
ENDMDL
