MODEL 345
MODEL 1
REMARK VINA RESULT:    -6.064      0.000      0.000
REMARK INTER + INTRA:         -12.379
REMARK INTER:                  -9.609
REMARK INTRA:                  -2.771
REMARK UNBOUND:                -2.771
REMARK  Name = No_345-gen_results/8p0m/2024-11-27-11-27-31/
REMARK  10 active torsions:
REMARK  status: ('A' for Active; 'I' for Inactive)
REMARK    1  A    between atoms: C_2  and  C_17
REMARK    2  A    between atoms: C_3  and  C_7
REMARK    3  A    between atoms: C_6  and  O_11
REMARK    4  A    between atoms: C_7  and  C_8
REMARK    5  A    between atoms: O_11  and  C_12
REMARK    6  A    between atoms: C_12  and  C_13
REMARK    7  A    between atoms: C_17  and  O_19
REMARK    8  A    between atoms: O_19  and  C_20
REMARK    9  A    between atoms: C_26  and  O_30
REMARK   10  A    between atoms: O_30  and  C_31
REMARK                            x       y       z     vdW  Elec       q    Type
REMARK                         _______ _______ _______ _____ _____    ______ ____
ROOT
ATOM      1  C   UNL A   1     -28.733 -11.232  10.967  0.00  0.00    +0.043 A 
ATOM      2  C   UNL A   1     -28.897 -10.442  10.066  0.00  0.00    +0.076 A 
ATOM      3  C   UNL A   1     -30.113  -9.811   9.806  0.00  0.00    -0.004 A 
ATOM      4  C   UNL A   1     -31.270 -10.149  10.611  0.00  0.00    -0.000 A 
ATOM      5  C   UNL A   1     -31.041 -11.078  11.625  0.00  0.00    +0.037 A 
ATOM      6  C   UNL A   1     -29.858 -11.636  11.795  0.00  0.00    +0.140 A 
ENDROOT
BRANCH   2   7
ATOM      7  C   UNL A   1     -27.733  -9.903   9.269  0.00  0.00    +0.346 C 
ATOM      8  O   UNL A   1     -27.062  -9.102   9.616  0.00  0.00    -0.244 OA
BRANCH   7   9
ATOM      9  O   UNL A   1     -27.771 -10.248   7.914  0.00  0.00    -0.418 OA
BRANCH   9  10
ATOM     10  C   UNL A   1     -26.859 -10.737   7.496  0.00  0.00    +0.183 A 
ATOM     11  C   UNL A   1     -26.377 -10.102   6.248  0.00  0.00    +0.041 A 
ATOM     12  C   UNL A   1     -26.902 -12.223   7.142  0.00  0.00    +0.180 A 
ATOM     13  C   UNL A   1     -26.213 -12.881   6.742  0.00  0.00    +0.041 A 
ATOM     14  C   UNL A   1     -25.339 -10.784   5.409  0.00  0.00    +0.003 A 
ATOM     15  C   UNL A   1     -25.482 -12.256   5.421  0.00  0.00    +0.003 A 
BRANCH  12  16
ATOM     16  O   UNL A   1     -28.057 -12.803   7.694  0.00  0.00    -0.448 OA
BRANCH  16  17
ATOM     17  C   UNL A   1     -29.150 -12.956   6.961  0.00  0.00    +0.175 C 
ATOM     18  C   UNL A   1     -30.149 -12.469   7.076  0.00  0.00    +0.015 C 
ATOM     19  C   UNL A   1     -31.241 -12.583   6.173  0.00  0.00    +0.034 C 
ENDBRANCH  16  17
ENDBRANCH  12  16
ENDBRANCH   9  10
ENDBRANCH   7   9
ENDBRANCH   2   7
BRANCH   3  20
ATOM     20  C   UNL A   1     -30.398  -8.821   8.718  0.00  0.00    +0.141 C 
BRANCH  20  21
ATOM     21  C   UNL A   1     -30.510  -7.519   8.940  0.00  0.00    +0.369 C 
ATOM     22  O   UNL A   1     -29.674  -6.920   9.773  0.00  0.00    -0.245 OA
ATOM     23  O   UNL A   1     -31.353  -6.799   8.257  0.00  0.00    -0.245 OA
ENDBRANCH  20  21
ENDBRANCH   3  20
BRANCH   6  24
ATOM     24  O   UNL A   1     -29.699 -12.591  12.792  0.00  0.00    -0.466 OA
BRANCH  24  25
ATOM     25  C   UNL A   1     -30.474 -13.744  12.807  0.00  0.00    +0.290 C 
BRANCH  25  26
ATOM     26  C   UNL A   1     -29.765 -14.842  12.173  0.00  0.00    +0.270 C 
ATOM     27  O   UNL A   1     -28.967 -15.269  12.646  0.00  0.00    -0.271 OA
ATOM     28  N   UNL A   1     -30.195 -15.070  10.858  0.00  0.00    -0.277 N 
ATOM     29  C   UNL A   1     -29.484 -16.072  10.047  0.00  0.00    +0.093 C 
ATOM     30  C   UNL A   1     -29.946 -16.137   8.860  0.00  0.00    +0.022 C 
ATOM     31  C   UNL A   1     -30.958 -15.791   8.488  0.00  0.00    +0.004 C 
ATOM     32  C   UNL A   1     -31.841 -14.887   9.280  0.00  0.00    +0.022 C 
ATOM     33  C   UNL A   1     -31.400 -14.615  10.485  0.00  0.00    +0.093 C 
ENDBRANCH  25  26
ENDBRANCH  24  25
ENDBRANCH   6  24
TORSDOF 10
ENDMDL
ENDMDL
