MODEL 3460
MODEL 1
REMARK VINA RESULT:    -6.733      0.000      0.000
REMARK INTER + INTRA:          -9.989
REMARK INTER:                  -9.095
REMARK INTRA:                  -0.894
REMARK UNBOUND:                -0.894
REMARK  Name = No_3460-gen_results/8p0m/2024-11-27-11-27-31/
REMARK  6 active torsions:
REMARK  status: ('A' for Active; 'I' for Inactive)
REMARK    1  A    between atoms: C_3  and  C_4
REMARK    2  A    between atoms: C_7  and  C_13
REMARK    3  A    between atoms: C_12  and  O_16
REMARK    4  A    between atoms: C_13  and  O_14
REMARK    5  A    between atoms: O_14  and  C_17
REMARK    6  A    between atoms: C_17  and  C_18
REMARK                            x       y       z     vdW  Elec       q    Type
REMARK                         _______ _______ _______ _____ _____    ______ ____
ROOT
ATOM      1  C   UNL A   1     -26.785   2.194  25.626  0.00  0.00    +0.006 A 
ATOM      2  C   UNL A   1     -25.909   1.905  26.408  0.00  0.00    +0.000 A 
ATOM      3  C   UNL A   1     -25.183   0.716  26.349  0.00  0.00    +0.000 A 
ATOM      4  C   UNL A   1     -27.231   1.160  24.644  0.00  0.00    +0.076 A 
ATOM      5  C   UNL A   1     -26.535  -0.001  24.450  0.00  0.00    +0.006 A 
ATOM      6  C   UNL A   1     -25.472  -0.326  25.336  0.00  0.00    +0.000 A 
ENDROOT
BRANCH   3   7
ATOM      7  C   UNL A   1     -24.110   0.279  27.264  0.00  0.00    +0.003 A 
ATOM      8  C   UNL A   1     -22.911   1.017  27.567  0.00  0.00    +0.000 A 
ATOM      9  C   UNL A   1     -21.959   0.506  28.470  0.00  0.00    +0.003 A 
ATOM     10  C   UNL A   1     -22.261  -0.597  29.328  0.00  0.00    +0.037 A 
ATOM     11  C   UNL A   1     -24.286  -0.882  28.134  0.00  0.00    +0.037 A 
ATOM     12  C   UNL A   1     -23.390  -1.275  29.085  0.00  0.00    +0.139 A 
BRANCH  12  13
ATOM     13  O   UNL A   1     -23.712  -2.354  29.834  0.00  0.00    -0.471 OA
ATOM     14  C   UNL A   1     -24.154  -3.443  29.072  0.00  0.00    +0.253 C 
ENDBRANCH  12  13
ENDBRANCH   3   7
BRANCH   4  15
ATOM     15  C   UNL A   1     -28.341   1.450  23.701  0.00  0.00    +0.345 C 
ATOM     16  O   UNL A   1     -28.815   2.701  23.721  0.00  0.00    -0.245 OA
BRANCH  15  17
ATOM     17  O   UNL A   1     -28.876   0.603  23.150  0.00  0.00    -0.391 OA
BRANCH  17  18
ATOM     18  C   UNL A   1     -30.080   0.069  23.583  0.00  0.00    +0.502 C 
ATOM     19  F   UNL A   1     -30.207   0.602  24.910  0.00  0.00    -0.156 F 
ATOM     20  F   UNL A   1     -30.957   0.794  22.917  0.00  0.00    -0.156 F 
BRANCH  18  21
ATOM     21  C   UNL A   1     -30.271  -1.227  23.670  0.00  0.00    +0.497 C 
ATOM     22  F   UNL A   1     -30.354  -1.618  24.861  0.00  0.00    -0.162 F 
ATOM     23  F   UNL A   1     -31.321  -1.742  22.888  0.00  0.00    -0.162 F 
ATOM     24  F   UNL A   1     -29.180  -1.836  23.083  0.00  0.00    -0.162 F 
ENDBRANCH  18  21
ENDBRANCH  17  18
ENDBRANCH  15  17
ENDBRANCH   4  15
TORSDOF 6
ENDMDL
ENDMDL
