MODEL 3461
MODEL 1
REMARK VINA RESULT:    -6.620      0.000      0.000
REMARK INTER + INTRA:          -8.650
REMARK INTER:                  -7.781
REMARK INTRA:                  -0.869
REMARK UNBOUND:                -0.869
REMARK  Name = No_3461-gen_results/8p0m/2024-11-27-11-27-31/
REMARK  3 active torsions:
REMARK  status: ('A' for Active; 'I' for Inactive)
REMARK    1  A    between atoms: C_2  and  C_9
REMARK    2  A    between atoms: C_9  and  N_10
REMARK    3  A    between atoms: C_11  and  C_12
REMARK                            x       y       z     vdW  Elec       q    Type
REMARK                         _______ _______ _______ _____ _____    ______ ____
ROOT
ATOM      1  N   UNL A   1     -22.522   0.550  28.710  0.00  0.00    -0.270 N 
ATOM      2  C   UNL A   1     -23.365   1.175  28.063  0.00  0.00    +0.249 C 
ATOM      3  O   UNL A   1     -23.193   2.533  27.968  0.00  0.00    -0.270 OA
ATOM      4  C   UNL A   1     -21.136   0.498  28.178  0.00  0.00    +0.116 C 
ENDROOT
BRANCH   2   5
ATOM      5  C   UNL A   1     -24.391   0.813  27.316  0.00  0.00    +0.054 A 
ATOM      6  C   UNL A   1     -25.520   0.840  27.538  0.00  0.00    +0.004 A 
ATOM      7  C   UNL A   1     -26.629   0.616  26.480  0.00  0.00    +0.000 A 
ATOM      8  C   UNL A   1     -26.115   0.481  25.151  0.00  0.00    +0.000 A 
ATOM      9  C   UNL A   1     -24.143   0.689  25.763  0.00  0.00    +0.004 A 
ATOM     10  C   UNL A   1     -24.965   0.372  24.862  0.00  0.00    +0.000 A 
ENDBRANCH   2   5
BRANCH   1  11
ATOM     11  C   UNL A   1     -22.683  -0.142  29.743  0.00  0.00    +0.121 C 
BRANCH  11  13
ATOM     12  C   UNL A   1     -24.730  -1.246  30.527  0.00  0.00    +0.056 A 
ATOM     13  C   UNL A   1     -23.790  -1.287  29.768  0.00  0.00    +0.008 A 
ATOM     14  C   UNL A   1     -23.506  -2.371  28.960  0.00  0.00    -0.001 A 
ATOM     15  C   UNL A   1     -24.395  -3.482  28.998  0.00  0.00    +0.011 A 
ATOM     16  C   UNL A   1     -25.520  -3.319  29.732  0.00  0.00    +0.059 A 
ATOM     17  C   UNL A   1     -25.729  -2.228  30.444  0.00  0.00    +0.022 A 
ATOM     18 CL   UNL A   1     -25.032   0.170  31.488  0.00  0.00    -0.083 Cl
ATOM     19 CL   UNL A   1     -26.540  -4.751  29.755  0.00  0.00    -0.082 Cl
ENDBRANCH  11  13
ENDBRANCH   1  11
TORSDOF 3
ENDMDL
ENDMDL
