MODEL 3463
MODEL 1
REMARK VINA RESULT:    -7.756      0.000      0.000
REMARK INTER + INTRA:         -12.491
REMARK INTER:                 -10.477
REMARK INTRA:                  -2.014
REMARK UNBOUND:                -2.014
REMARK  Name = No_3463-gen_results/8p0m/2024-11-27-11-27-31/
REMARK  6 active torsions:
REMARK  status: ('A' for Active; 'I' for Inactive)
REMARK    1  A    between atoms: C_2  and  C_3
REMARK    2  A    between atoms: N_4  and  C_6
REMARK    3  A    between atoms: C_10  and  C_16
REMARK    4  A    between atoms: C_16  and  C_17
REMARK    5  A    between atoms: C_16  and  C_18
REMARK    6  A    between atoms: C_17  and  C_21
REMARK                            x       y       z     vdW  Elec       q    Type
REMARK                         _______ _______ _______ _____ _____    ______ ____
ROOT
ATOM      1  C   UNL A   1     -25.202   0.694  26.287  0.00  0.00    +0.055 A 
ATOM      2  C   UNL A   1     -25.368   0.252  27.479  0.00  0.00    +0.000 A 
ATOM      3  C   UNL A   1     -23.867   1.417  26.002  0.00  0.00    +0.005 A 
ATOM      4  C   UNL A   1     -22.878   1.505  27.034  0.00  0.00    -0.000 A 
ATOM      5  C   UNL A   1     -23.086   0.933  28.285  0.00  0.00    -0.004 A 
ATOM      6  C   UNL A   1     -24.368   0.359  28.568  0.00  0.00    -0.018 A 
ENDROOT
BRANCH   1   8
ATOM      7  O   UNL A   1     -25.819   0.181  24.273  0.00  0.00    -0.268 OA
ATOM      8  C   UNL A   1     -26.150   0.654  25.264  0.00  0.00    +0.269 C 
ATOM      9  N   UNL A   1     -27.380   1.172  25.477  0.00  0.00    -0.175 NA
BRANCH   9  10
ATOM     10  C   UNL A   1     -28.326   1.170  24.597  0.00  0.00    +0.074 A 
ATOM     11  C   UNL A   1     -28.997   0.059  24.431  0.00  0.00    +0.017 A 
ATOM     12  C   UNL A   1     -29.986  -0.150  23.794  0.00  0.00    +0.001 A 
ATOM     13  C   UNL A   1     -30.550   1.014  22.981  0.00  0.00    +0.000 A 
ATOM     14  C   UNL A   1     -29.944   2.228  23.125  0.00  0.00    +0.001 A 
ATOM     15  C   UNL A   1     -28.867   2.298  23.973  0.00  0.00    +0.017 A 
ENDBRANCH   9  10
ENDBRANCH   1   8
BRANCH   6  16
ATOM     16  C   UNL A   1     -24.625  -0.194  29.892  0.00  0.00    +0.070 C 
BRANCH  16  17
ATOM     17  C   UNL A   1     -25.489   0.656  30.713  0.00  0.00    +0.221 C 
ATOM     18  F   UNL A   1     -26.597   0.330  30.880  0.00  0.00    -0.224 F 
ATOM     19 BR   UNL A   1     -24.772   2.164  31.531  0.00  0.00    -0.043 Br
ENDBRANCH  16  17
BRANCH  16  20
ATOM     20  C   UNL A   1     -24.140  -1.198  30.187  0.00  0.00    +0.030 C 
ATOM     21  C   UNL A   1     -23.113  -1.267  31.307  0.00  0.00    +0.005 C 
BRANCH  20  22
ATOM     22  C   UNL A   1     -24.541  -2.442  29.655  0.00  0.00    -0.022 A 
ATOM     23  C   UNL A   1     -23.786  -3.230  28.993  0.00  0.00    -0.004 A 
ATOM     24  C   UNL A   1     -24.123  -4.603  28.623  0.00  0.00    -0.000 A 
ATOM     25  C   UNL A   1     -25.404  -4.998  29.028  0.00  0.00    -0.000 A 
ATOM     26  C   UNL A   1     -26.257  -4.211  29.739  0.00  0.00    -0.000 A 
ATOM     27  C   UNL A   1     -25.901  -2.947  30.069  0.00  0.00    -0.004 A 
ENDBRANCH  20  22
ENDBRANCH  16  20
ENDBRANCH   6  16
TORSDOF 6
ENDMDL
ENDMDL
