MODEL 3464
MODEL 1
REMARK VINA RESULT:    -6.326      0.000      0.000
REMARK INTER + INTRA:          -7.163
REMARK INTER:                  -7.066
REMARK INTRA:                  -0.097
REMARK UNBOUND:                -0.097
REMARK  Name = No_3464-gen_results/8p0m/2024-11-27-11-27-31/
REMARK  2 active torsions:
REMARK  status: ('A' for Active; 'I' for Inactive)
REMARK    1  A    between atoms: C_2  and  C_13
REMARK    2  A    between atoms: C_9  and  C_11
REMARK                            x       y       z     vdW  Elec       q    Type
REMARK                         _______ _______ _______ _____ _____    ______ ____
ROOT
ATOM      1  C   UNL A   1     -28.163 -11.932  31.252  0.00  0.00    +0.007 A 
ATOM      2  C   UNL A   1     -28.327 -11.612  32.243  0.00  0.00    +0.080 A 
ATOM      3  C   UNL A   1     -29.032 -11.273  30.204  0.00  0.00    +0.000 A 
ATOM      4  C   UNL A   1     -29.108 -11.632  28.810  0.00  0.00    +0.001 A 
ATOM      5  C   UNL A   1     -29.090 -10.486  32.795  0.00  0.00    +0.007 A 
ATOM      6  C   UNL A   1     -29.889  -9.816  31.893  0.00  0.00    +0.000 A 
ATOM      7  C   UNL A   1     -29.870 -10.158  30.566  0.00  0.00    +0.001 A 
ATOM      8  C   UNL A   1     -30.210 -11.246  28.024  0.00  0.00    +0.010 A 
ATOM      9  C   UNL A   1     -30.956 -10.109  28.420  0.00  0.00    +0.068 A 
ATOM     10  C   UNL A   1     -30.872  -9.642  29.662  0.00  0.00    +0.010 A 
ENDROOT
BRANCH   2  11
ATOM     11  C   UNL A   1     -27.385 -12.247  33.363  0.00  0.00    +0.388 C 
ATOM     12  O   UNL A   1     -27.578 -12.321  34.477  0.00  0.00    -0.241 OA
ATOM     13  O   UNL A   1     -26.446 -13.002  32.832  0.00  0.00    -0.241 OA
ENDBRANCH   2  11
BRANCH   9  14
ATOM     14  C   UNL A   1     -31.984  -9.607  27.465  0.00  0.00    +0.100 C 
ATOM     15  N   UNL A   1     -32.421  -8.791  26.773  0.00  0.00    -0.191 NA
ENDBRANCH   9  14
TORSDOF 2
ENDMDL
ENDMDL
