REMARK  Name = outputs/IAG933/test6/raw/output_3464_IAG933_linker_design_.xyz
REMARK  12 active torsions:
REMARK  status: ('A' for Active; 'I' for Inactive)
REMARK    1  A    between atoms: C_1  and  C_2
REMARK    2  A    between atoms: C_13  and  C_28
REMARK    3  A    between atoms: C_14  and  C_15
REMARK    4  A    between atoms: C_21  and  O_22
REMARK    5  A    between atoms: O_22  and  C_23
REMARK    6  A    between atoms: C_23  and  C_24
REMARK    7  A    between atoms: C_28  and  N_40
REMARK    8  A    between atoms: C_31  and  C_41
REMARK    9  A    between atoms: C_31  and  C_44
REMARK   10  A    between atoms: C_36  and  O_37
REMARK   11  A    between atoms: C_36  and  C_38
REMARK   12  A    between atoms: C_39  and  N_40
REMARK                            x       y       z     vdW  Elec       q    Type
REMARK                         _______ _______ _______ _____ _____    ______ ____
ROOT
ATOM      1  C   UNL A   1     -24.613   1.171  27.184  0.00  0.00    +0.097 C 
ATOM      2  C   UNL A   1     -23.302   1.567  26.976  0.00  0.00    +0.133 C 
ENDROOT
BRANCH   1   3
ATOM      3  C   UNL A   1     -25.688   1.614  26.461  0.00  0.00    +0.056 C 
ATOM      4  C   UNL A   1     -26.250   2.920  26.395  0.00  0.00    +0.078 C 
ATOM      5  C   UNL A   1     -27.438   3.091  25.645  0.00  0.00    +0.107 C 
ATOM      6  N   UNL A   1     -28.075   2.089  25.003  0.00  0.00    -0.208 NA
ATOM      7  C   UNL A   1     -27.543   0.849  25.079  0.00  0.00    +0.253 C 
ATOM      8  C   UNL A   1     -26.354   0.576  25.777  0.00  0.00    +0.194 C 
ATOM      9  F   UNL A   1     -25.860  -0.681  25.795  0.00  0.00    -0.199 F 
BRANCH   4  10
ATOM     10  C   UNL A   1     -25.642   4.093  27.123  0.00  0.00    +0.267 C 
ATOM     11  N   UNL A   1     -25.614   5.252  26.449  0.00  0.00    -0.200 NA
ATOM     12  C   UNL A   1     -25.026   6.479  26.963  0.00  0.00    +0.139 C 
ATOM     13  O   UNL A   1     -25.143   3.966  28.243  0.00  0.00    -0.268 OA
ENDBRANCH   4  10
BRANCH   7  14
ATOM     14  O   UNL A   1     -28.193  -0.208  24.477  0.00  0.00    -0.456 OA
BRANCH  14  15
ATOM     15  C   UNL A   1     -29.460   0.005  23.866  0.00  0.00    +0.243 C 
BRANCH  15  16
ATOM     16  C   UNL A   1     -30.065  -1.377  23.573  0.00  0.00    +0.229 C 
ATOM     17  O   UNL A   1     -30.729  -1.878  24.721  0.00  0.00    -0.216 OA
ENDBRANCH  15  16
ENDBRANCH  14  15
ENDBRANCH   7  14
ENDBRANCH   1   3
BRANCH   2  22
ATOM     18  C   UNL A   1     -20.790  -0.176  28.643  0.00  0.00    +0.116 C 
ATOM     19  O   UNL A   1     -19.931   0.769  28.051  0.00  0.00    -0.356 OA
ATOM     20  C   UNL A   1     -22.177   0.294  28.652  0.00  0.00    +0.039 C 
ATOM     21  C   UNL A   1     -20.829   1.582  27.615  0.00  0.00    +0.150 C 
ATOM     22  C   UNL A   1     -22.102   1.223  27.728  0.00  0.00    +0.090 C 
ATOM     23  C   UNL A   1     -21.920  -0.708  29.130  0.00  0.00    +0.033 C 
ENDBRANCH   2  22
BRANCH   2  25
ATOM     24  C   UNL A   1     -22.262   2.230  25.115  0.00  0.00    +0.252 C 
ATOM     25  O   UNL A   1     -23.026   2.526  26.145  0.00  0.00    -0.474 OA
ENDBRANCH   2  25
BRANCH   1  26
ATOM     26  N   UNL A   1     -24.789   0.189  28.094  0.00  0.00    -0.236 NA
BRANCH  26  33
ATOM     27  C   UNL A   1     -24.855  -1.012  30.143  0.00  0.00    +0.058 C 
ATOM     28  C   UNL A   1     -25.387  -0.679  31.571  0.00  0.00    +0.079 C 
ATOM     29  C   UNL A   1     -25.189   0.773  32.028  0.00  0.00    +0.020 C 
ATOM     30  C   UNL A   1     -25.336   0.684  33.544  0.00  0.00    +0.020 C 
ATOM     31  C   UNL A   1     -24.829  -0.715  33.905  0.00  0.00    +0.089 C 
ATOM     32  N   UNL A   1     -24.758  -1.481  32.646  0.00  0.00    -0.219 NA
ATOM     33  C   UNL A   1     -24.467   0.329  29.412  0.00  0.00    +0.098 C 
ATOM     34  C   UNL A   1     -24.937   1.434  30.660  0.00  0.00    +0.033 C 
BRANCH  27  35
ATOM     35  C   UNL A   1     -24.973  -2.505  29.788  0.00  0.00    -0.019 C 
ATOM     36  C   UNL A   1     -23.906  -3.173  29.146  0.00  0.00    -0.004 C 
ATOM     37  C   UNL A   1     -23.989  -4.549  28.853  0.00  0.00    -0.000 C 
ATOM     38  C   UNL A   1     -25.137  -5.280  29.205  0.00  0.00    -0.000 C 
ATOM     39  C   UNL A   1     -26.232  -4.611  29.784  0.00  0.00    -0.000 C 
ATOM     40  C   UNL A   1     -26.155  -3.232  30.065  0.00  0.00    -0.004 C 
ENDBRANCH  27  35
BRANCH  34  41
ATOM     41  C   UNL A   1     -24.095   2.695  31.183  0.00  0.00    +0.116 C 
BRANCH  41  44
ATOM     42  O   UNL A   1     -24.308   4.928  32.083  0.00  0.00    -0.246 OA
ATOM     43  O   UNL A   1     -26.127   4.068  31.274  0.00  0.00    -0.246 OA
ATOM     44  C   UNL A   1     -25.016   3.919  31.570  0.00  0.00    +0.365 C 
ENDBRANCH  41  44
ENDBRANCH  34  41
ENDBRANCH  26  33
ENDBRANCH   1  26
TORSDOF 12
