REMARK  Name = No_3466-gen_results/8p0m/2024-11-27-11-27-31/
REMARK  7 active torsions:
REMARK  status: ('A' for Active; 'I' for Inactive)
REMARK    1  A    between atoms: C_2  and  C_11
REMARK    2  A    between atoms: C_3  and  C_7
REMARK    3  A    between atoms: C_6  and  C_14
REMARK    4  A    between atoms: C_11  and  O_13
REMARK    5  A    between atoms: O_13  and  C_21
REMARK    6  A    between atoms: C_21  and  C_22
REMARK    7  A    between atoms: C_21  and  C_24
REMARK                            x       y       z     vdW  Elec       q    Type
REMARK                         _______ _______ _______ _____ _____    ______ ____
ROOT
ATOM      1  C   UNL A   1     -28.016  -0.814  28.878  0.00  0.00    +0.010 A 
ATOM      2  C   UNL A   1     -28.469  -0.785  29.829  0.00  0.00    +0.076 A 
ATOM      3  C   UNL A   1     -27.136   0.236  28.535  0.00  0.00    +0.072 A 
ATOM      4  C   UNL A   1     -26.875   1.282  29.398  0.00  0.00    +0.004 A 
ATOM      5  C   UNL A   1     -28.361   0.199  30.924  0.00  0.00    +0.006 A 
ATOM      6  C   UNL A   1     -27.528   1.223  30.636  0.00  0.00    +0.000 A 
ENDROOT
BRANCH   6   7
ATOM      7  C   UNL A   1     -27.277   2.337  31.602  0.00  0.00    +0.000 A 
ATOM      8  C   UNL A   1     -27.520   2.464  32.586  0.00  0.00    +0.001 A 
ATOM      9  C   UNL A   1     -27.192   3.634  33.512  0.00  0.00    +0.011 A 
ATOM     10  C   UNL A   1     -26.445   4.666  32.951  0.00  0.00    +0.058 A 
ATOM     11  C   UNL A   1     -26.058   4.529  31.598  0.00  0.00    +0.011 A 
ATOM     12  C   UNL A   1     -26.387   3.421  30.883  0.00  0.00    +0.001 A 
ATOM     13 CL   UNL A   1     -25.993   6.016  33.896  0.00  0.00    -0.082 Cl
ENDBRANCH   6   7
BRANCH   3  14
ATOM     14  C   UNL A   1     -26.388   0.291  27.233  0.00  0.00    +0.419 C 
ATOM     15  F   UNL A   1     -25.779  -0.523  27.034  0.00  0.00    -0.166 F 
ATOM     16  F   UNL A   1     -27.410   0.497  26.241  0.00  0.00    -0.166 F 
ATOM     17  F   UNL A   1     -25.663   1.501  26.997  0.00  0.00    -0.166 F 
ENDBRANCH   3  14
BRANCH   2  18
ATOM     18  C   UNL A   1     -29.395  -2.022  30.318  0.00  0.00    +0.342 C 
ATOM     19  O   UNL A   1     -29.773  -2.012  31.504  0.00  0.00    -0.245 OA
BRANCH  18  20
ATOM     20  O   UNL A   1     -29.226  -3.135  29.799  0.00  0.00    -0.442 OA
BRANCH  20  21
ATOM     21  C   UNL A   1     -30.053  -4.201  30.123  0.00  0.00    +0.227 C 
BRANCH  21  22
ATOM     22  C   UNL A   1     -29.787  -5.221  28.943  0.00  0.00    +0.065 C 
ATOM     23  C   UNL A   1     -30.989  -5.320  28.102  0.00  0.00    +0.233 C 
ATOM     24  O   UNL A   1     -31.854  -4.536  28.159  0.00  0.00    -0.283 OA
ENDBRANCH  21  22
BRANCH  21  25
ATOM     25  C   UNL A   1     -29.802  -4.808  31.240  0.00  0.00    +0.230 C 
ATOM     26  O   UNL A   1     -28.792  -4.813  31.663  0.00  0.00    -0.216 OA
ENDBRANCH  21  25
ENDBRANCH  20  21
ENDBRANCH  18  20
ENDBRANCH   2  18
TORSDOF 7
