MODEL 3466
MODEL 1
REMARK VINA RESULT:    -7.195      0.000      0.000
REMARK INTER + INTRA:         -11.378
REMARK INTER:                 -10.140
REMARK INTRA:                  -1.239
REMARK UNBOUND:                -1.239
REMARK  Name = No_3466-gen_results/8p0m/2024-11-27-11-27-31/
REMARK  7 active torsions:
REMARK  status: ('A' for Active; 'I' for Inactive)
REMARK    1  A    between atoms: C_2  and  C_11
REMARK    2  A    between atoms: C_3  and  C_7
REMARK    3  A    between atoms: C_6  and  C_14
REMARK    4  A    between atoms: C_11  and  O_13
REMARK    5  A    between atoms: O_13  and  C_21
REMARK    6  A    between atoms: C_21  and  C_22
REMARK    7  A    between atoms: C_21  and  C_24
REMARK                            x       y       z     vdW  Elec       q    Type
REMARK                         _______ _______ _______ _____ _____    ______ ____
ROOT
ATOM      1  C   UNL A   1     -11.024   0.932  36.522  0.00  0.00    +0.010 A 
ATOM      2  C   UNL A   1     -10.461   1.358  35.740  0.00  0.00    +0.076 A 
ATOM      3  C   UNL A   1     -10.525  -0.239  37.132  0.00  0.00    +0.072 A 
ATOM      4  C   UNL A   1      -9.346  -0.831  36.723  0.00  0.00    +0.004 A 
ATOM      5  C   UNL A   1      -9.188   0.936  35.122  0.00  0.00    +0.006 A 
ATOM      6  C   UNL A   1      -8.676  -0.185  35.676  0.00  0.00    +0.000 A 
ENDROOT
BRANCH   6   7
ATOM      7  C   UNL A   1      -7.395  -0.792  35.198  0.00  0.00    +0.000 A 
ATOM      8  C   UNL A   1      -7.191  -1.637  34.662  0.00  0.00    +0.001 A 
ATOM      9  C   UNL A   1      -5.840  -2.169  34.187  0.00  0.00    +0.011 A 
ATOM     10  C   UNL A   1      -4.731  -1.394  34.510  0.00  0.00    +0.058 A 
ATOM     11  C   UNL A   1      -4.959  -0.198  35.230  0.00  0.00    +0.011 A 
ATOM     12  C   UNL A   1      -6.217   0.185  35.571  0.00  0.00    +0.001 A 
ATOM     13 CL   UNL A   1      -3.168  -1.872  34.010  0.00  0.00    -0.082 Cl
ENDBRANCH   6   7
BRANCH   3  14
ATOM     14  C   UNL A   1     -11.203  -0.918  38.288  0.00  0.00    +0.419 C 
ATOM     15  F   UNL A   1     -11.969  -0.381  38.734  0.00  0.00    -0.166 F 
ATOM     16  F   UNL A   1     -11.627  -2.188  37.760  0.00  0.00    -0.166 F 
ATOM     17  F   UNL A   1     -10.326  -1.428  39.296  0.00  0.00    -0.166 F 
ENDBRANCH   3  14
BRANCH   2  18
ATOM     18  C   UNL A   1     -10.927   2.764  35.084  0.00  0.00    +0.342 C 
ATOM     19  O   UNL A   1     -10.981   3.751  35.840  0.00  0.00    -0.245 OA
BRANCH  18  20
ATOM     20  O   UNL A   1     -11.729   2.745  34.139  0.00  0.00    -0.442 OA
BRANCH  20  21
ATOM     21  C   UNL A   1     -12.884   1.978  34.205  0.00  0.00    +0.227 C 
BRANCH  21  22
ATOM     22  C   UNL A   1     -14.023   3.071  34.312  0.00  0.00    +0.065 C 
ATOM     23  C   UNL A   1     -14.594   3.052  35.667  0.00  0.00    +0.233 C 
ATOM     24  O   UNL A   1     -14.061   2.517  36.559  0.00  0.00    -0.283 OA
ENDBRANCH  21  22
BRANCH  21  25
ATOM     25  C   UNL A   1     -13.141   1.231  33.178  0.00  0.00    +0.230 C 
ATOM     26  O   UNL A   1     -12.388   1.064  32.402  0.00  0.00    -0.216 OA
ENDBRANCH  21  25
ENDBRANCH  20  21
ENDBRANCH  18  20
ENDBRANCH   2  18
TORSDOF 7
ENDMDL
ENDMDL
