MODEL 3467
MODEL 1
REMARK VINA RESULT:    -4.975      0.000      0.000
REMARK INTER + INTRA:          -5.338
REMARK INTER:                  -5.266
REMARK INTRA:                  -0.072
REMARK UNBOUND:                -0.072
REMARK  Name = No_3467-gen_results/8p0m/2024-11-27-11-27-31/
REMARK  1 active torsions:
REMARK  status: ('A' for Active; 'I' for Inactive)
REMARK    1  A    between atoms: C_2  and  C_7
REMARK                            x       y       z     vdW  Elec       q    Type
REMARK                         _______ _______ _______ _____ _____    ______ ____
ROOT
ATOM      1  C   UNL A   1      -8.931  -9.783  19.335  0.00  0.00    +0.006 A 
ATOM      2  C   UNL A   1      -8.855  -9.582  18.303  0.00  0.00    +0.068 A 
ATOM      3  C   UNL A   1      -7.948  -9.123  20.209  0.00  0.00    +0.000 A 
ATOM      4  C   UNL A   1      -7.044  -8.155  19.682  0.00  0.00    +0.000 A 
ATOM      5  C   UNL A   1      -8.062  -8.595  17.520  0.00  0.00    +0.006 A 
ATOM      6  C   UNL A   1      -7.132  -7.969  18.295  0.00  0.00    +0.000 A 
ENDROOT
BRANCH   2   7
ATOM      7  C   UNL A   1      -9.913 -10.263  17.325  0.00  0.00    +0.333 C 
ATOM      8  O   UNL A   1     -10.968 -10.524  17.579  0.00  0.00    -0.254 OA
ATOM      9  F   UNL A   1      -9.220 -11.022  16.461  0.00  0.00    -0.159 F 
ENDBRANCH   2   7
TORSDOF 1
ENDMDL
ENDMDL
