MODEL 3469
MODEL 1
REMARK VINA RESULT:    -6.209      0.000      0.000
REMARK INTER + INTRA:          -8.196
REMARK INTER:                  -7.661
REMARK INTRA:                  -0.534
REMARK UNBOUND:                -0.534
REMARK  Name = No_3469-gen_results/8p0m/2024-11-27-11-27-31/
REMARK  4 active torsions:
REMARK  status: ('A' for Active; 'I' for Inactive)
REMARK    1  A    between atoms: C_3  and  C_8
REMARK    2  A    between atoms: C_6  and  O_7
REMARK    3  A    between atoms: O_7  and  C_14
REMARK    4  A    between atoms: C_15  and  C_16
REMARK                            x       y       z     vdW  Elec       q    Type
REMARK                         _______ _______ _______ _____ _____    ______ ____
ROOT
ATOM      1  C   UNL A   1      -9.820   0.535  36.232  0.00  0.00    +0.037 A 
ATOM      2  C   UNL A   1     -10.844   1.049  36.619  0.00  0.00    +0.003 A 
ATOM      3  C   UNL A   1     -11.616   1.838  35.774  0.00  0.00    +0.000 A 
ATOM      4  C   UNL A   1     -11.197   2.105  34.422  0.00  0.00    +0.003 A 
ATOM      5  C   UNL A   1      -9.990   1.491  34.064  0.00  0.00    +0.037 A 
ATOM      6  C   UNL A   1      -9.289   0.768  34.907  0.00  0.00    +0.145 A 
ENDROOT
BRANCH   3   7
ATOM      7  C   UNL A   1     -12.911   2.521  36.153  0.00  0.00    +0.000 A 
ATOM      8  C   UNL A   1     -13.868   2.796  35.328  0.00  0.00    +0.000 A 
ATOM      9  C   UNL A   1     -15.115   3.374  35.792  0.00  0.00    +0.000 A 
ATOM     10  C   UNL A   1     -15.364   3.369  37.199  0.00  0.00    +0.000 A 
ATOM     11  C   UNL A   1     -13.264   2.537  37.562  0.00  0.00    +0.000 A 
ATOM     12  C   UNL A   1     -14.427   3.022  38.026  0.00  0.00    +0.000 A 
ENDBRANCH   3   7
BRANCH   6  13
ATOM     13  O   UNL A   1      -8.180   0.339  34.326  0.00  0.00    -0.450 OA
BRANCH  13  14
ATOM     14  C   UNL A   1      -7.766  -0.902  34.537  0.00  0.00    +0.179 C 
ATOM     15  C   UNL A   1      -6.737  -1.337  34.503  0.00  0.00    +0.040 C 
BRANCH  15  16
ATOM     16  C   UNL A   1      -6.129  -2.205  34.474  0.00  0.00    -0.001 C 
ATOM     17  C   UNL A   1      -4.850  -2.197  34.619  0.00  0.00    -0.026 C 
ATOM     18  C   UNL A   1      -4.364  -0.787  34.479  0.00  0.00    +0.031 C 
ENDBRANCH  15  16
ENDBRANCH  13  14
ENDBRANCH   6  13
TORSDOF 4
ENDMDL
ENDMDL
