REMARK  Name = outputs/IAG933/test6/raw/output_3469_IAG933_linker_design_.xyz
REMARK  7 active torsions:
REMARK  status: ('A' for Active; 'I' for Inactive)
REMARK    1  A    between atoms: C_1  and  C_2
REMARK    2  A    between atoms: C_13  and  C_36
REMARK    3  A    between atoms: C_14  and  C_15
REMARK    4  A    between atoms: C_21  and  O_22
REMARK    5  A    between atoms: O_22  and  C_23
REMARK    6  A    between atoms: C_23  and  C_24
REMARK    7  A    between atoms: C_32  and  N_43
REMARK                            x       y       z     vdW  Elec       q    Type
REMARK                         _______ _______ _______ _____ _____    ______ ____
ROOT
ATOM      1  C   UNL A   1     -24.855  -1.012  30.143  0.00  0.00    +0.204 C 
ATOM      2  C   UNL A   1     -25.387  -0.679  31.571  0.00  0.00    +0.118 C 
ATOM      3  C   UNL A   1     -25.189   0.773  32.028  0.00  0.00    +0.040 C 
ATOM      4  C   UNL A   1     -25.336   0.684  33.544  0.00  0.00    +0.022 C 
ATOM      5  C   UNL A   1     -24.829  -0.715  33.905  0.00  0.00    +0.089 C 
ATOM      6  N   UNL A   1     -24.758  -1.481  32.646  0.00  0.00    -0.215 NA
ATOM      7  C   UNL A   1     -21.897   1.437  28.922  0.00  0.00    +0.003 C 
ATOM      8  C   UNL A   1     -21.988   1.813  26.352  0.00  0.00    +0.011 C 
ATOM      9  C   UNL A   1     -23.322   1.597  25.949  0.00  0.00    +0.061 C 
ATOM     10  C   UNL A   1     -24.857   2.356  31.608  0.00  0.00    +0.083 C 
ATOM     11  C   UNL A   1     -21.393   1.796  27.624  0.00  0.00    +0.001 C 
ATOM     12  C   UNL A   1     -24.377   1.390  26.922  0.00  0.00    +0.047 C 
ATOM     13  C   UNL A   1     -23.624   2.120  30.574  0.00  0.00    -0.007 C 
ATOM     14  O   UNL A   1     -25.014  -0.086  29.051  0.00  0.00    -0.473 OA
ATOM     15  C   UNL A   1     -23.329   1.438  29.234  0.00  0.00    +0.031 C 
ATOM     16  C   UNL A   1     -24.243   0.991  28.371  0.00  0.00    +0.139 C 
ATOM     17 CL   UNL A   1     -23.541   1.548  24.186  0.00  0.00    -0.082 Cl
ENDROOT
BRANCH  12  18
ATOM     18  C   UNL A   1     -25.688   1.614  26.461  0.00  0.00    +0.042 C 
ATOM     19  C   UNL A   1     -26.250   2.920  26.395  0.00  0.00    +0.077 C 
ATOM     20  C   UNL A   1     -27.438   3.091  25.645  0.00  0.00    +0.107 C 
ATOM     21  N   UNL A   1     -28.075   2.089  25.003  0.00  0.00    -0.208 NA
ATOM     22  C   UNL A   1     -27.543   0.849  25.079  0.00  0.00    +0.253 C 
ATOM     23  C   UNL A   1     -26.354   0.576  25.777  0.00  0.00    +0.193 C 
ATOM     24  F   UNL A   1     -25.860  -0.681  25.795  0.00  0.00    -0.199 F 
BRANCH  19  25
ATOM     25  C   UNL A   1     -25.642   4.093  27.123  0.00  0.00    +0.266 C 
ATOM     26  N   UNL A   1     -25.614   5.252  26.449  0.00  0.00    -0.200 NA
ATOM     27  C   UNL A   1     -25.026   6.479  26.963  0.00  0.00    +0.139 C 
ATOM     28  O   UNL A   1     -25.143   3.966  28.243  0.00  0.00    -0.268 OA
ENDBRANCH  19  25
BRANCH  22  29
ATOM     29  O   UNL A   1     -28.193  -0.208  24.477  0.00  0.00    -0.456 OA
BRANCH  29  30
ATOM     30  C   UNL A   1     -29.460   0.005  23.866  0.00  0.00    +0.243 C 
BRANCH  30  31
ATOM     31  C   UNL A   1     -30.065  -1.377  23.573  0.00  0.00    +0.229 C 
ATOM     32  O   UNL A   1     -30.729  -1.878  24.721  0.00  0.00    -0.216 OA
ENDBRANCH  30  31
ENDBRANCH  29  30
ENDBRANCH  22  29
ENDBRANCH  12  18
BRANCH   1  33
ATOM     33  C   UNL A   1     -24.973  -2.505  29.788  0.00  0.00    +0.019 C 
ATOM     34  C   UNL A   1     -23.906  -3.173  29.146  0.00  0.00    -0.001 C 
ATOM     35  C   UNL A   1     -23.989  -4.549  28.853  0.00  0.00    -0.000 C 
ATOM     36  C   UNL A   1     -25.137  -5.280  29.205  0.00  0.00    -0.000 C 
ATOM     37  C   UNL A   1     -26.232  -4.611  29.784  0.00  0.00    -0.000 C 
ATOM     38  C   UNL A   1     -26.155  -3.232  30.065  0.00  0.00    -0.001 C 
ENDBRANCH   1  33
BRANCH  10  44
ATOM     39  C   UNL A   1     -26.133   4.413  30.653  0.00  0.00    +0.220 C 
ATOM     40  C   UNL A   1     -25.014   6.025  32.777  0.00  0.00    +0.050 C 
ATOM     41  C   UNL A   1     -24.452   4.606  32.611  0.00  0.00    +0.077 C 
ATOM     42  O   UNL A   1     -26.567   5.723  31.029  0.00  0.00    -0.337 OA
ATOM     43  C   UNL A   1     -26.536   5.967  32.428  0.00  0.00    +0.145 C 
ATOM     44  N   UNL A   1     -25.209   3.827  31.639  0.00  0.00    -0.245 NA
ENDBRANCH  10  44
TORSDOF 7
