MODEL 346
MODEL 1
REMARK VINA RESULT:    -5.329      0.000      0.000
REMARK INTER + INTRA:          -5.725
REMARK INTER:                  -5.640
REMARK INTRA:                  -0.085
REMARK UNBOUND:                -0.085
REMARK  Name = No_346-gen_results/8p0m/2024-11-27-11-27-31/
REMARK  1 active torsions:
REMARK  status: ('A' for Active; 'I' for Inactive)
REMARK    1  A    between atoms: C_5  and  C_7
REMARK                            x       y       z     vdW  Elec       q    Type
REMARK                         _______ _______ _______ _____ _____    ______ ____
ROOT
ATOM      1  C   UNL A   1     -26.286  -4.375  29.703  0.00  0.00    +0.000 A 
ATOM      2  C   UNL A   1     -25.570  -5.263  29.303  0.00  0.00    +0.000 A 
ATOM      3  C   UNL A   1     -24.334  -5.083  28.706  0.00  0.00    +0.000 A 
ATOM      4  C   UNL A   1     -23.861  -3.743  28.585  0.00  0.00    +0.005 A 
ATOM      5  C   UNL A   1     -24.614  -2.792  29.175  0.00  0.00    +0.055 A 
ATOM      6  C   UNL A   1     -25.753  -3.087  29.804  0.00  0.00    +0.005 A 
ENDROOT
BRANCH   5   7
ATOM      7  C   UNL A   1     -23.945  -1.448  28.932  0.00  0.00    +0.265 C 
ATOM      8  O   UNL A   1     -24.391  -0.447  28.602  0.00  0.00    -0.268 OA
ATOM      9  N   UNL A   1     -22.538  -1.540  29.053  0.00  0.00    -0.200 NA
ATOM     10  C   UNL A   1     -21.771  -0.344  28.938  0.00  0.00    +0.139 C 
ENDBRANCH   5   7
TORSDOF 1
ENDMDL
ENDMDL
