MODEL 3470
MODEL 1
REMARK VINA RESULT:    -4.512      0.000      0.000
REMARK INTER + INTRA:          -4.512
REMARK INTER:                  -4.512
REMARK INTRA:                   0.000
REMARK UNBOUND:                 0.000
REMARK  Name = No_3470-gen_results/8p0m/2024-11-27-11-27-31/
REMARK  0 active torsions:
REMARK  status: ('A' for Active; 'I' for Inactive)
REMARK                            x       y       z     vdW  Elec       q    Type
REMARK                         _______ _______ _______ _____ _____    ______ ____
ROOT
ATOM      1  C   UNL A   1     -25.662  -2.631  29.258  0.00  0.00    +0.011 A 
ATOM      2  C   UNL A   1     -24.588  -2.947  28.801  0.00  0.00    +0.058 A 
ATOM      3 CL   UNL A   1     -23.292  -2.097  28.996  0.00  0.00    -0.082 Cl
ATOM      4  C   UNL A   1     -26.375  -3.728  29.856  0.00  0.00    +0.001 A 
ATOM      5  C   UNL A   1     -26.116  -4.823  29.608  0.00  0.00    +0.000 A 
ATOM      6  C   UNL A   1     -24.924  -5.339  28.974  0.00  0.00    +0.001 A 
ATOM      7  C   UNL A   1     -24.056  -4.309  28.645  0.00  0.00    +0.011 A 
ENDROOT
TORSDOF 0
ENDMDL
ENDMDL
