REMARK  Name = outputs/IAG933/test6/raw/output_3470_IAG933_linker_design_.xyz
REMARK  15 active torsions:
REMARK  status: ('A' for Active; 'I' for Inactive)
REMARK    1  A    between atoms: C_1  and  C_2
REMARK    2  A    between atoms: C_1  and  C_8
REMARK    3  A    between atoms: C_1  and  N_40
REMARK    4  A    between atoms: C_14  and  C_15
REMARK    5  A    between atoms: C_15  and  O_18
REMARK    6  A    between atoms: O_18  and  C_38
REMARK    7  A    between atoms: C_21  and  O_22
REMARK    8  A    between atoms: O_22  and  C_23
REMARK    9  A    between atoms: C_23  and  C_24
REMARK   10  A    between atoms: S_29  and  C_42
REMARK   11  A    between atoms: C_30  and  C_39
REMARK   12  A    between atoms: C_30  and  S_41
REMARK   13  A    between atoms: C_33  and  C_39
REMARK   14  A    between atoms: N_40  and  S_41
REMARK   15  A    between atoms: N_40  and  C_42
REMARK                            x       y       z     vdW  Elec       q    Type
REMARK                         _______ _______ _______ _____ _____    ______ ____
ROOT
ATOM      1  C   UNL A   1     -26.266   3.062  31.237  0.00  0.00    -0.001 C 
ATOM      2  C   UNL A   1     -26.553   3.509  30.049  0.00  0.00    +0.013 C 
ATOM      3  C   UNL A   1     -25.826   3.954  32.148  0.00  0.00    -0.000 C 
ATOM      4  C   UNL A   1     -25.601   5.451  30.343  0.00  0.00    +0.037 C 
ATOM      5  C   UNL A   1     -25.716   5.261  31.711  0.00  0.00    +0.003 C 
ATOM      6  C   UNL A   1     -25.805   4.401  29.504  0.00  0.00    +0.143 C 
ENDROOT
BRANCH   6   7
ATOM      7  O   UNL A   1     -25.143   3.966  28.243  0.00  0.00    -0.437 OA
BRANCH   7   8
ATOM      8  C   UNL A   1     -25.642   4.093  27.123  0.00  0.00    +0.227 C 
ATOM      9  N   UNL A   1     -25.614   5.252  26.449  0.00  0.00    -0.235 NA
ATOM     10  C   UNL A   1     -25.026   6.479  26.963  0.00  0.00    +0.155 C 
BRANCH   8  12
ATOM     11  C   UNL A   1     -25.688   1.614  26.461  0.00  0.00    +0.041 C 
ATOM     12  C   UNL A   1     -26.250   2.920  26.395  0.00  0.00    +0.075 C 
ATOM     13  C   UNL A   1     -27.438   3.091  25.645  0.00  0.00    +0.107 C 
ATOM     14  N   UNL A   1     -28.075   2.089  25.003  0.00  0.00    -0.208 NA
ATOM     15  C   UNL A   1     -27.543   0.849  25.079  0.00  0.00    +0.253 C 
ATOM     16  C   UNL A   1     -26.354   0.576  25.777  0.00  0.00    +0.193 C 
ATOM     17  F   UNL A   1     -25.860  -0.681  25.795  0.00  0.00    -0.199 F 
BRANCH  15  18
ATOM     18  O   UNL A   1     -28.193  -0.208  24.477  0.00  0.00    -0.456 OA
BRANCH  18  19
ATOM     19  C   UNL A   1     -29.460   0.005  23.866  0.00  0.00    +0.243 C 
BRANCH  19  20
ATOM     20  C   UNL A   1     -30.065  -1.377  23.573  0.00  0.00    +0.229 C 
ATOM     21  O   UNL A   1     -30.729  -1.878  24.721  0.00  0.00    -0.216 OA
ENDBRANCH  19  20
ENDBRANCH  18  19
ENDBRANCH  15  18
ENDBRANCH   8  12
ENDBRANCH   7   8
ENDBRANCH   6   7
BRANCH   2  22
ATOM     22  C   UNL A   1     -27.993   3.023  29.440  0.00  0.00    +0.042 C 
BRANCH  22  23
ATOM     23  C   UNL A   1     -28.137   1.634  29.663  0.00  0.00    +0.079 C 
BRANCH  23  24
ATOM     24  S   UNL A   1     -26.738   0.468  28.800  0.00  0.00    -0.064 S 
BRANCH  24  25
ATOM     25  N   UNL A   1     -25.012  -0.198  28.913  0.00  0.00    -0.203 NA
BRANCH  25  26
ATOM     26  C   UNL A   1     -24.855  -1.012  30.143  0.00  0.00    +0.108 C 
BRANCH  26  27
ATOM     27  C   UNL A   1     -24.973  -2.505  29.788  0.00  0.00    -0.006 C 
ATOM     28  C   UNL A   1     -23.906  -3.173  29.146  0.00  0.00    -0.003 C 
ATOM     29  C   UNL A   1     -23.989  -4.549  28.853  0.00  0.00    -0.000 C 
ATOM     30  C   UNL A   1     -25.137  -5.280  29.205  0.00  0.00    -0.000 C 
ATOM     31  C   UNL A   1     -26.232  -4.611  29.784  0.00  0.00    -0.000 C 
ATOM     32  C   UNL A   1     -26.155  -3.232  30.065  0.00  0.00    -0.003 C 
ENDBRANCH  26  27
BRANCH  26  33
ATOM     33  C   UNL A   1     -25.387  -0.679  31.571  0.00  0.00    +0.092 C 
ATOM     34  C   UNL A   1     -25.189   0.773  32.028  0.00  0.00    +0.021 C 
ATOM     35  C   UNL A   1     -25.336   0.684  33.544  0.00  0.00    +0.020 C 
ATOM     36  C   UNL A   1     -24.829  -0.715  33.905  0.00  0.00    +0.089 C 
ATOM     37  N   UNL A   1     -24.758  -1.481  32.646  0.00  0.00    -0.218 NA
ENDBRANCH  26  33
ENDBRANCH  25  26
BRANCH  25  38
ATOM     38  C   UNL A   1     -23.971   0.068  27.980  0.00  0.00    +0.236 C 
BRANCH  38  39
ATOM     39  S   UNL A   1     -22.671   0.883  28.467  0.00  0.00    +0.008 S 
ATOM     40  C   UNL A   1     -21.596   1.353  27.197  0.00  0.00    +0.178 C 
ATOM     41  O   UNL A   1     -22.976   2.114  29.238  0.00  0.00    -0.172 OA
ATOM     42  O   UNL A   1     -21.950  -0.007  29.407  0.00  0.00    -0.172 OA
ENDBRANCH  38  39
ENDBRANCH  25  38
ENDBRANCH  24  25
ENDBRANCH  23  24
ENDBRANCH  22  23
ENDBRANCH   2  22
TORSDOF 15
