MODEL 3471
MODEL 1
REMARK VINA RESULT:    -7.174      0.000      0.000
REMARK INTER + INTRA:          -8.940
REMARK INTER:                  -8.432
REMARK INTRA:                  -0.508
REMARK UNBOUND:                -0.508
REMARK  Name = No_3471-gen_results/8p0m/2024-11-27-11-27-31/
REMARK  3 active torsions:
REMARK  status: ('A' for Active; 'I' for Inactive)
REMARK    1  A    between atoms: C_2  and  C_16
REMARK    2  A    between atoms: C_4  and  C_7
REMARK    3  A    between atoms: C_10  and  C_12
REMARK                            x       y       z     vdW  Elec       q    Type
REMARK                         _______ _______ _______ _____ _____    ______ ____
ROOT
ATOM      1  C   UNL A   1     -30.323 -14.130  27.319  0.00  0.00    +0.005 A 
ATOM      2  C   UNL A   1     -30.014 -13.596  26.465  0.00  0.00    +0.057 A 
ATOM      3  C   UNL A   1     -30.121 -13.420  28.639  0.00  0.00    +0.000 A 
ATOM      4  C   UNL A   1     -29.684 -12.078  28.641  0.00  0.00    +0.000 A 
ATOM      5  C   UNL A   1     -29.572 -12.210  26.194  0.00  0.00    +0.005 A 
ATOM      6  C   UNL A   1     -29.380 -11.523  27.384  0.00  0.00    +0.000 A 
ENDROOT
BRANCH   2   7
ATOM      7  C   UNL A   1     -30.239 -14.329  25.025  0.00  0.00    +0.265 C 
ATOM      8  N   UNL A   1     -29.420 -14.980  24.434  0.00  0.00    -0.272 N 
ATOM      9  C   UNL A   1     -28.306 -15.309  24.906  0.00  0.00    +0.083 A 
ATOM     10  O   UNL A   1     -31.398 -13.983  24.597  0.00  0.00    -0.267 OA
ATOM     11  C   UNL A   1     -27.352 -15.880  23.902  0.00  0.00    +0.021 A 
ATOM     12  C   UNL A   1     -27.658 -15.741  22.792  0.00  0.00    +0.021 A 
ATOM     13  C   UNL A   1     -29.191 -15.117  23.006  0.00  0.00    +0.083 A 
ENDBRANCH   2   7
BRANCH   4  14
ATOM     14  C   UNL A   1     -29.408 -11.592  29.907  0.00  0.00    +0.000 A 
ATOM     15  C   UNL A   1     -29.980 -10.564  30.284  0.00  0.00    +0.000 A 
ATOM     16  C   UNL A   1     -28.425 -12.130  30.776  0.00  0.00    +0.007 A 
ATOM     17  C   UNL A   1     -28.220 -11.626  32.068  0.00  0.00    +0.080 A 
ATOM     18  C   UNL A   1     -29.749  -9.847  31.573  0.00  0.00    +0.000 A 
ATOM     19  C   UNL A   1     -28.934 -10.439  32.430  0.00  0.00    +0.007 A 
BRANCH  17  20
ATOM     20  C   UNL A   1     -27.283 -12.192  33.003  0.00  0.00    +0.388 C 
ATOM     21  O   UNL A   1     -26.365 -13.051  32.544  0.00  0.00    -0.241 OA
ATOM     22  O   UNL A   1     -27.565 -12.258  34.367  0.00  0.00    -0.241 OA
ENDBRANCH  17  20
ENDBRANCH   4  14
TORSDOF 3
ENDMDL
ENDMDL
