REMARK  Name = outputs/IAG933/test6/raw/output_3472_IAG933_linker_design_.xyz
REMARK  17 active torsions:
REMARK  status: ('A' for Active; 'I' for Inactive)
REMARK    1  A    between atoms: C_1  and  C_2
REMARK    2  A    between atoms: C_1  and  C_8
REMARK    3  A    between atoms: C_9  and  C_42
REMARK    4  A    between atoms: C_13  and  N_34
REMARK    5  A    between atoms: C_14  and  C_15
REMARK    6  A    between atoms: C_21  and  O_22
REMARK    7  A    between atoms: O_22  and  C_23
REMARK    8  A    between atoms: C_23  and  C_24
REMARK    9  A    between atoms: C_30  and  C_42
REMARK   10  A    between atoms: C_30  and  C_48
REMARK   11  A    between atoms: C_31  and  C_38
REMARK   12  A    between atoms: C_33  and  C_35
REMARK   13  A    between atoms: C_35  and  O_46
REMARK   14  A    between atoms: C_37  and  N_39
REMARK   15  A    between atoms: C_37  and  C_42
REMARK   16  A    between atoms: C_38  and  C_44
REMARK   17  A    between atoms: C_40  and  C_48
REMARK                            x       y       z     vdW  Elec       q    Type
REMARK                         _______ _______ _______ _____ _____    ______ ____
ROOT
ATOM      1  C   UNL A   1     -25.326   2.018  31.165  0.00  0.00    +0.081 C 
ENDROOT
BRANCH   1   3
ATOM      2  C   UNL A   1     -25.387  -0.679  31.571  0.00  0.00    +0.078 C 
ATOM      3  C   UNL A   1     -25.189   0.773  32.028  0.00  0.00    +0.026 C 
ATOM      4  C   UNL A   1     -25.336   0.684  33.544  0.00  0.00    +0.021 C 
ATOM      5  C   UNL A   1     -24.829  -0.715  33.905  0.00  0.00    +0.089 C 
ATOM      6  N   UNL A   1     -24.758  -1.481  32.646  0.00  0.00    -0.219 NA
BRANCH   2   7
ATOM      7  C   UNL A   1     -24.855  -1.012  30.143  0.00  0.00    +0.044 C 
BRANCH   7   8
ATOM      8  C   UNL A   1     -24.973  -2.505  29.788  0.00  0.00    -0.021 C 
ATOM      9  C   UNL A   1     -23.906  -3.173  29.146  0.00  0.00    -0.004 C 
ATOM     10  C   UNL A   1     -23.989  -4.549  28.853  0.00  0.00    -0.000 C 
ATOM     11  C   UNL A   1     -25.137  -5.280  29.205  0.00  0.00    -0.000 C 
ATOM     12  C   UNL A   1     -26.232  -4.611  29.784  0.00  0.00    -0.000 C 
ATOM     13  C   UNL A   1     -26.155  -3.232  30.065  0.00  0.00    -0.004 C 
ENDBRANCH   7   8
ENDBRANCH   2   7
ENDBRANCH   1   3
BRANCH   1  14
ATOM     14  C   UNL A   1     -25.908   3.097  32.023  0.00  0.00    +0.156 C 
ATOM     15  O   UNL A   1     -27.148   3.188  32.201  0.00  0.00    -0.296 OA
BRANCH  14  16
ATOM     16  C   UNL A   1     -24.979   4.040  32.761  0.00  0.00    +0.091 C 
BRANCH  16  20
ATOM     17  C   UNL A   1     -26.813   7.263  31.830  0.00  0.00    -0.001 C 
ATOM     18  C   UNL A   1     -24.815   7.877  33.036  0.00  0.00    +0.007 C 
ATOM     19  C   UNL A   1     -26.532   5.913  32.126  0.00  0.00    -0.004 C 
ATOM     20  C   UNL A   1     -25.309   5.529  32.678  0.00  0.00    -0.015 C 
ATOM     21  C   UNL A   1     -25.883   8.228  32.190  0.00  0.00    -0.002 C 
ATOM     22  C   UNL A   1     -24.436   6.510  33.159  0.00  0.00    -0.006 C 
BRANCH  18  23
ATOM     23  C   UNL A   1     -24.463   8.908  34.063  0.00  0.00    +0.169 C 
BRANCH  23  24
ATOM     24  O   UNL A   1     -23.321   9.324  33.493  0.00  0.00    -0.346 OA
ATOM     25  C   UNL A   1     -22.493   8.507  34.209  0.00  0.00    +0.175 C 
ENDBRANCH  23  24
ENDBRANCH  18  23
ENDBRANCH  16  20
ENDBRANCH  14  16
ENDBRANCH   1  14
BRANCH   1  26
ATOM     26  C   UNL A   1     -23.938   2.260  30.506  0.00  0.00    +0.122 C 
BRANCH  26  28
ATOM     27  O   UNL A   1     -22.286   0.125  29.182  0.00  0.00    -0.273 OA
ATOM     28  N   UNL A   1     -23.244   2.173  29.215  0.00  0.00    -0.205 NA
ATOM     29  C   UNL A   1     -22.389   1.273  28.736  0.00  0.00    +0.251 C 
BRANCH  29  30
ATOM     30  C   UNL A   1     -21.724   1.763  27.442  0.00  0.00    +0.174 C 
BRANCH  30  32
ATOM     31  O   UNL A   1     -23.067   2.687  25.564  0.00  0.00    -0.272 OA
ATOM     32  C   UNL A   1     -23.039   1.934  26.588  0.00  0.00    +0.255 C 
ATOM     33  N   UNL A   1     -24.367   1.237  27.117  0.00  0.00    -0.176 NA
BRANCH  33  34
ATOM     34  C   UNL A   1     -25.688   1.614  26.461  0.00  0.00    +0.111 C 
ATOM     35  C   UNL A   1     -26.250   2.920  26.395  0.00  0.00    +0.092 C 
ATOM     36  C   UNL A   1     -27.438   3.091  25.645  0.00  0.00    +0.108 C 
ATOM     37  N   UNL A   1     -28.075   2.089  25.003  0.00  0.00    -0.208 NA
ATOM     38  C   UNL A   1     -27.543   0.849  25.079  0.00  0.00    +0.255 C 
ATOM     39  C   UNL A   1     -26.354   0.576  25.777  0.00  0.00    +0.208 C 
ATOM     40  F   UNL A   1     -25.860  -0.681  25.795  0.00  0.00    -0.198 F 
BRANCH  35  41
ATOM     41  C   UNL A   1     -25.642   4.093  27.123  0.00  0.00    +0.268 C 
ATOM     42  N   UNL A   1     -25.614   5.252  26.449  0.00  0.00    -0.200 NA
ATOM     43  C   UNL A   1     -25.026   6.479  26.963  0.00  0.00    +0.139 C 
ATOM     44  O   UNL A   1     -25.143   3.966  28.243  0.00  0.00    -0.268 OA
ENDBRANCH  35  41
BRANCH  38  45
ATOM     45  O   UNL A   1     -28.193  -0.208  24.477  0.00  0.00    -0.456 OA
BRANCH  45  46
ATOM     46  C   UNL A   1     -29.460   0.005  23.866  0.00  0.00    +0.243 C 
BRANCH  46  47
ATOM     47  C   UNL A   1     -30.065  -1.377  23.573  0.00  0.00    +0.229 C 
ATOM     48  O   UNL A   1     -30.729  -1.878  24.721  0.00  0.00    -0.216 OA
ENDBRANCH  46  47
ENDBRANCH  45  46
ENDBRANCH  38  45
ENDBRANCH  33  34
ENDBRANCH  30  32
ENDBRANCH  29  30
ENDBRANCH  26  28
ENDBRANCH   1  26
TORSDOF 17
