MODEL 3472
MODEL 1
REMARK VINA RESULT:    -8.284      0.000      0.000
REMARK INTER + INTRA:         -15.426
REMARK INTER:                 -12.158
REMARK INTRA:                  -3.267
REMARK UNBOUND:                -3.267
REMARK  Name = No_3472-gen_results/8p0m/2024-11-27-11-27-31/
REMARK  8 active torsions:
REMARK  status: ('A' for Active; 'I' for Inactive)
REMARK    1  A    between atoms: C_2  and  C_12
REMARK    2  A    between atoms: C_3  and  C_18
REMARK    3  A    between atoms: C_5  and  C_7
REMARK    4  A    between atoms: C_19  and  O_25
REMARK    5  A    between atoms: O_25  and  C_26
REMARK    6  A    between atoms: C_26  and  C_27
REMARK    7  A    between atoms: C_27  and  C_28
REMARK    8  A    between atoms: C_27  and  C_34
REMARK                            x       y       z     vdW  Elec       q    Type
REMARK                         _______ _______ _______ _____ _____    ______ ____
ROOT
ATOM      1  C   UNL A   1     -25.684   0.363  24.952  0.00  0.00    +0.140 A 
ATOM      2  C   UNL A   1     -25.592   0.817  26.069  0.00  0.00    +0.028 A 
ATOM      3  C   UNL A   1     -26.643   1.327  26.811  0.00  0.00    +0.005 A 
ATOM      4  C   UNL A   1     -27.938   1.283  26.217  0.00  0.00    +0.005 A 
ATOM      5  C   UNL A   1     -28.028   0.635  25.037  0.00  0.00    +0.057 A 
ATOM      6  C   UNL A   1     -26.958   0.100  24.445  0.00  0.00    +0.034 A 
ATOM      7  F   UNL A   1     -24.605  -0.179  24.307  0.00  0.00    -0.204 F 
ENDROOT
BRANCH   2   8
ATOM      8  C   UNL A   1     -24.167   1.011  26.759  0.00  0.00    +0.013 A 
ATOM      9  C   UNL A   1     -23.488   2.102  26.567  0.00  0.00    +0.058 A 
ATOM     10  C   UNL A   1     -22.245   2.237  27.243  0.00  0.00    +0.011 A 
ATOM     11  C   UNL A   1     -21.771   1.210  28.083  0.00  0.00    +0.001 A 
ATOM     12  C   UNL A   1     -22.589   0.127  28.310  0.00  0.00    +0.000 A 
ATOM     13  C   UNL A   1     -23.814  -0.042  27.663  0.00  0.00    +0.001 A 
ATOM     14 CL   UNL A   1     -23.931   3.321  25.454  0.00  0.00    -0.082 Cl
ENDBRANCH   2   8
BRANCH   3  15
ATOM     15  C   UNL A   1     -26.503   2.054  28.138  0.00  0.00    +0.034 A 
ATOM     16  C   UNL A   1     -26.658   1.316  29.252  0.00  0.00    +0.139 A 
ATOM     17  C   UNL A   1     -26.293   3.416  28.124  0.00  0.00    +0.003 A 
ATOM     18  C   UNL A   1     -26.430   1.923  30.486  0.00  0.00    +0.037 A 
ATOM     19  C   UNL A   1     -26.109   4.042  29.377  0.00  0.00    +0.000 A 
ATOM     20  C   UNL A   1     -26.197   3.328  30.574  0.00  0.00    +0.003 A 
BRANCH  16  21
ATOM     21  O   UNL A   1     -26.810  -0.024  29.274  0.00  0.00    -0.475 OA
BRANCH  21  22
ATOM     22  C   UNL A   1     -26.546  -0.741  30.358  0.00  0.00    +0.214 C 
BRANCH  22  23
ATOM     23  C   UNL A   1     -25.168  -1.281  30.370  0.00  0.00    +0.088 C 
BRANCH  23  24
ATOM     24  C   UNL A   1     -25.114  -2.552  29.970  0.00  0.00    -0.015 A 
ATOM     25  C   UNL A   1     -24.059  -3.152  29.270  0.00  0.00    -0.004 A 
ATOM     26  C   UNL A   1     -24.099  -4.505  28.776  0.00  0.00    -0.000 A 
ATOM     27  C   UNL A   1     -25.252  -5.263  28.974  0.00  0.00    -0.000 A 
ATOM     28  C   UNL A   1     -26.364  -4.697  29.641  0.00  0.00    -0.000 A 
ATOM     29  C   UNL A   1     -26.301  -3.413  30.064  0.00  0.00    -0.004 A 
ENDBRANCH  23  24
BRANCH  23  30
ATOM     30  C   UNL A   1     -24.633  -1.133  31.812  0.00  0.00    -0.018 C 
ATOM     31  C   UNL A   1     -23.712  -0.868  32.173  0.00  0.00    -0.004 C 
ENDBRANCH  23  30
ENDBRANCH  22  23
ENDBRANCH  21  22
ENDBRANCH  16  21
ENDBRANCH   3  15
BRANCH   5  32
ATOM     32  C   UNL A   1     -29.390   0.566  24.472  0.00  0.00    +0.265 C 
ATOM     33  N   UNL A   1     -29.764   1.472  23.800  0.00  0.00    -0.200 NA
ATOM     34  O   UNL A   1     -30.003  -0.523  24.447  0.00  0.00    -0.268 OA
ATOM     35  C   UNL A   1     -31.157   1.534  23.217  0.00  0.00    +0.139 C 
ENDBRANCH   5  32
TORSDOF 8
ENDMDL
ENDMDL
