MODEL 3473
MODEL 1
REMARK VINA RESULT:    -7.830      0.000      0.000
REMARK INTER + INTRA:         -11.011
REMARK INTER:                 -10.118
REMARK INTRA:                  -0.893
REMARK UNBOUND:                -0.893
REMARK  Name = No_3473-gen_results/8p0m/2024-11-27-11-27-31/
REMARK  5 active torsions:
REMARK  status: ('A' for Active; 'I' for Inactive)
REMARK    1  A    between atoms: C_5  and  C_12
REMARK    2  A    between atoms: C_11  and  C_23
REMARK    3  A    between atoms: N_13  and  C_20
REMARK    4  A    between atoms: C_26  and  O_29
REMARK    5  A    between atoms: O_29  and  C_30
REMARK                            x       y       z     vdW  Elec       q    Type
REMARK                         _______ _______ _______ _____ _____    ______ ____
ROOT
ATOM      1  C   UNL A   1     -27.784   2.061  27.121  0.00  0.00    +0.120 C 
ATOM      2  C   UNL A   1     -26.637   1.752  27.347  0.00  0.00    -0.005 A 
ATOM      3  C   UNL A   1     -25.970   0.772  26.684  0.00  0.00    -0.008 A 
ATOM      4  C   UNL A   1     -24.567   0.384  26.947  0.00  0.00    -0.002 A 
ATOM      5  C   UNL A   1     -23.870   1.118  27.962  0.00  0.00    +0.011 A 
ATOM      6  C   UNL A   1     -24.575   2.177  28.578  0.00  0.00    +0.001 A 
ATOM      7  C   UNL A   1     -25.878   2.480  28.282  0.00  0.00    -0.003 A 
ATOM      8  N   UNL A   1     -28.306   1.956  25.836  0.00  0.00    -0.275 N 
ATOM      9  C   UNL A   1     -29.188   2.231  25.244  0.00  0.00    +0.230 C 
ATOM     10  O   UNL A   1     -30.102   2.885  25.831  0.00  0.00    -0.275 OA
ATOM     11  C   UNL A   1     -29.479   1.890  23.759  0.00  0.00    +0.099 C 
ATOM     12  C   UNL A   1     -28.809   1.027  23.181  0.00  0.00    +0.015 C 
ATOM     13  C   UNL A   1     -27.476   0.811  23.694  0.00  0.00    +0.022 C 
ATOM     14  C   UNL A   1     -27.180   1.075  25.014  0.00  0.00    +0.095 C 
ATOM     15  C   UNL A   1     -26.142   0.498  25.457  0.00  0.00    +0.120 C 
ATOM     16 CL   UNL A   1     -25.226  -0.525  24.497  0.00  0.00    -0.108 Cl
ENDROOT
BRANCH  11  17
ATOM     17  C   UNL A   1     -30.808   2.411  23.274  0.00  0.00    -0.014 A 
ATOM     18  C   UNL A   1     -31.315   3.403  23.274  0.00  0.00    -0.001 A 
ATOM     19  C   UNL A   1     -32.579   3.686  22.672  0.00  0.00    +0.037 A 
ATOM     20  C   UNL A   1     -33.230   2.592  22.075  0.00  0.00    +0.145 A 
ATOM     21  C   UNL A   1     -32.684   1.391  22.063  0.00  0.00    +0.037 A 
ATOM     22  C   UNL A   1     -31.435   1.166  22.617  0.00  0.00    -0.001 A 
BRANCH  20  23
ATOM     23  O   UNL A   1     -34.458   2.900  21.505  0.00  0.00    -0.454 OA
BRANCH  23  24
ATOM     24  C   UNL A   1     -34.573   2.733  20.208  0.00  0.00    +0.145 A 
ATOM     25  C   UNL A   1     -35.623   1.947  19.835  0.00  0.00    +0.037 A 
ATOM     26  C   UNL A   1     -35.730   1.633  18.492  0.00  0.00    +0.003 A 
ATOM     27  C   UNL A   1     -34.992   2.372  17.546  0.00  0.00    +0.000 A 
ATOM     28  C   UNL A   1     -33.706   3.336  19.304  0.00  0.00    +0.037 A 
ATOM     29  C   UNL A   1     -33.917   3.154  17.971  0.00  0.00    +0.003 A 
ENDBRANCH  23  24
ENDBRANCH  20  23
ENDBRANCH  11  17
BRANCH   5  30
ATOM     30  C   UNL A   1     -22.510   0.845  28.292  0.00  0.00    +0.051 C 
ATOM     31  N   UNL A   1     -21.910   0.050  28.933  0.00  0.00    -0.184 NA
ATOM     32  C   UNL A   1     -21.587   1.709  27.404  0.00  0.00    +0.049 C 
BRANCH  31  33
ATOM     33  C   UNL A   1     -22.645  -0.952  29.541  0.00  0.00    +0.246 C 
ATOM     34  C   UNL A   1     -22.943  -0.729  30.985  0.00  0.00    +0.097 C 
ATOM     35  O   UNL A   1     -22.845  -2.037  28.996  0.00  0.00    -0.273 OA
ENDBRANCH  31  33
ENDBRANCH   5  30
TORSDOF 5
ENDMDL
ENDMDL
