MODEL 3475
MODEL 1
REMARK VINA RESULT:    -7.218      0.000      0.000
REMARK INTER + INTRA:          -9.124
REMARK INTER:                  -8.483
REMARK INTRA:                  -0.640
REMARK UNBOUND:                -0.640
REMARK  Name = No_3475-gen_results/8p0m/2024-11-27-11-27-31/
REMARK  3 active torsions:
REMARK  status: ('A' for Active; 'I' for Inactive)
REMARK    1  A    between atoms: C_2  and  C_7
REMARK    2  A    between atoms: C_7  and  C_8
REMARK    3  A    between atoms: C_8  and  C_9
REMARK                            x       y       z     vdW  Elec       q    Type
REMARK                         _______ _______ _______ _____ _____    ______ ____
ROOT
ATOM      1  C   UNL A   1     -23.820  -0.590  29.303  0.00  0.00    +0.027 C 
ATOM      2  C   UNL A   1     -23.126  -0.482  30.551  0.00  0.00    +0.005 C 
ENDROOT
BRANCH   1   3
ATOM      3  C   UNL A   1     -23.364   0.120  28.210  0.00  0.00    -0.022 A 
ATOM      4  C   UNL A   1     -22.283   1.014  28.191  0.00  0.00    -0.004 A 
ATOM      5  C   UNL A   1     -22.037   1.877  27.125  0.00  0.00    -0.000 A 
ATOM      6  C   UNL A   1     -23.041   1.998  26.154  0.00  0.00    -0.000 A 
ATOM      7  C   UNL A   1     -24.206   1.208  26.147  0.00  0.00    -0.000 A 
ATOM      8  C   UNL A   1     -24.360   0.297  27.221  0.00  0.00    -0.004 A 
ENDBRANCH   1   3
BRANCH   1   9
ATOM      9  C   UNL A   1     -25.185  -1.205  29.380  0.00  0.00    +0.031 C 
BRANCH   9  11
ATOM     10  C   UNL A   1     -26.058  -3.398  29.798  0.00  0.00    -0.004 A 
ATOM     11  C   UNL A   1     -25.176  -2.723  29.320  0.00  0.00    -0.022 A 
ATOM     12  C   UNL A   1     -24.096  -3.234  28.675  0.00  0.00    -0.004 A 
ATOM     13  C   UNL A   1     -23.990  -4.632  28.553  0.00  0.00    -0.000 A 
ATOM     14  C   UNL A   1     -26.063  -4.828  29.627  0.00  0.00    -0.000 A 
ATOM     15  C   UNL A   1     -24.986  -5.393  29.012  0.00  0.00    -0.000 A 
ENDBRANCH   9  11
ENDBRANCH   1   9
TORSDOF 3
ENDMDL
ENDMDL
