REMARK  Name = outputs/IAG933/test6/raw/output_3476_IAG933_linker_design_.xyz
REMARK  14 active torsions:
REMARK  status: ('A' for Active; 'I' for Inactive)
REMARK    1  A    between atoms: C_1  and  C_2
REMARK    2  A    between atoms: C_1  and  C_8
REMARK    3  A    between atoms: C_1  and  N_30
REMARK    4  A    between atoms: C_13  and  C_35
REMARK    5  A    between atoms: C_14  and  C_15
REMARK    6  A    between atoms: C_21  and  O_22
REMARK    7  A    between atoms: O_22  and  C_23
REMARK    8  A    between atoms: C_23  and  C_24
REMARK    9  A    between atoms: N_30  and  C_33
REMARK   10  A    between atoms: N_30  and  C_35
REMARK   11  A    between atoms: C_33  and  C_43
REMARK   12  A    between atoms: C_34  and  C_39
REMARK   13  A    between atoms: C_34  and  C_43
REMARK   14  A    between atoms: C_35  and  C_44
REMARK                            x       y       z     vdW  Elec       q    Type
REMARK                         _______ _______ _______ _____ _____    ______ ____
ROOT
ATOM      1  N   UNL A   1     -25.117   0.109  28.896  0.00  0.00    -0.267 NA
ENDROOT
BRANCH   1   2
ATOM      2  C   UNL A   1     -24.855  -1.012  30.143  0.00  0.00    +0.096 C 
BRANCH   2   3
ATOM      3  C   UNL A   1     -24.973  -2.505  29.788  0.00  0.00    -0.006 C 
ATOM      4  C   UNL A   1     -23.906  -3.173  29.146  0.00  0.00    -0.003 C 
ATOM      5  C   UNL A   1     -23.989  -4.549  28.853  0.00  0.00    -0.000 C 
ATOM      6  C   UNL A   1     -25.137  -5.280  29.205  0.00  0.00    -0.000 C 
ATOM      7  C   UNL A   1     -26.232  -4.611  29.784  0.00  0.00    -0.000 C 
ATOM      8  C   UNL A   1     -26.155  -3.232  30.065  0.00  0.00    -0.003 C 
ENDBRANCH   2   3
BRANCH   2   9
ATOM      9  C   UNL A   1     -25.387  -0.679  31.571  0.00  0.00    +0.092 C 
ATOM     10  C   UNL A   1     -25.189   0.773  32.028  0.00  0.00    +0.021 C 
ATOM     11  C   UNL A   1     -25.336   0.684  33.544  0.00  0.00    +0.020 C 
ATOM     12  C   UNL A   1     -24.829  -0.715  33.905  0.00  0.00    +0.089 C 
ATOM     13  N   UNL A   1     -24.758  -1.481  32.646  0.00  0.00    -0.218 NA
ENDBRANCH   2   9
ENDBRANCH   1   2
BRANCH   1  14
ATOM     14  C   UNL A   1     -26.581  -0.174  28.387  0.00  0.00    +0.073 C 
BRANCH  14  15
ATOM     15  C   UNL A   1     -27.480  -0.443  29.535  0.00  0.00    +0.022 C 
BRANCH  15  16
ATOM     16  C   UNL A   1     -28.866  -1.028  29.081  0.00  0.00    +0.028 C 
BRANCH  16  20
ATOM     17  C   UNL A   1     -32.514   1.041  28.466  0.00  0.00    -0.000 C 
ATOM     18  C   UNL A   1     -30.159   1.148  29.033  0.00  0.00    -0.004 C 
ATOM     19  C   UNL A   1     -32.213  -0.022  27.592  0.00  0.00    -0.000 C 
ATOM     20  C   UNL A   1     -29.949  -0.113  28.480  0.00  0.00    -0.022 C 
ATOM     21  C   UNL A   1     -31.458   1.668  29.149  0.00  0.00    -0.000 C 
ATOM     22  C   UNL A   1     -30.931  -0.588  27.611  0.00  0.00    -0.004 C 
ENDBRANCH  16  20
ENDBRANCH  15  16
ENDBRANCH  14  15
ENDBRANCH   1  14
BRANCH   1  23
ATOM     23  C   UNL A   1     -24.754   1.335  27.730  0.00  0.00    +0.105 C 
BRANCH  23  24
ATOM     24  C   UNL A   1     -25.688   1.614  26.461  0.00  0.00    +0.088 C 
ATOM     25  C   UNL A   1     -26.250   2.920  26.395  0.00  0.00    +0.056 C 
ATOM     26  C   UNL A   1     -27.438   3.091  25.645  0.00  0.00    +0.102 C 
ATOM     27  N   UNL A   1     -28.075   2.089  25.003  0.00  0.00    -0.212 NA
ATOM     28  C   UNL A   1     -27.543   0.849  25.079  0.00  0.00    +0.234 C 
ATOM     29  C   UNL A   1     -26.354   0.576  25.777  0.00  0.00    +0.241 C 
ATOM     30  F   UNL A   1     -25.860  -0.681  25.795  0.00  0.00    -0.227 F 
BRANCH  25  31
ATOM     31  C   UNL A   1     -25.642   4.093  27.123  0.00  0.00    +0.263 C 
ATOM     32  N   UNL A   1     -25.614   5.252  26.449  0.00  0.00    -0.200 NA
ATOM     33  C   UNL A   1     -25.026   6.479  26.963  0.00  0.00    +0.139 C 
ATOM     34  O   UNL A   1     -25.143   3.966  28.243  0.00  0.00    -0.269 OA
ENDBRANCH  25  31
BRANCH  28  35
ATOM     35  O   UNL A   1     -28.193  -0.208  24.477  0.00  0.00    -0.459 OA
BRANCH  35  36
ATOM     36  C   UNL A   1     -29.460   0.005  23.866  0.00  0.00    +0.242 C 
BRANCH  36  37
ATOM     37  C   UNL A   1     -30.065  -1.377  23.573  0.00  0.00    +0.229 C 
ATOM     38  O   UNL A   1     -30.729  -1.878  24.721  0.00  0.00    -0.216 OA
ENDBRANCH  36  37
ENDBRANCH  35  36
ENDBRANCH  28  35
ENDBRANCH  23  24
BRANCH  23  44
ATOM     39  N   UNL A   1     -21.170   1.355  27.356  0.00  0.00    -0.027 NA
ATOM     40  O   UNL A   1     -22.901   2.141  26.203  0.00  0.00    -0.189 OA
ATOM     41  C   UNL A   1     -22.250   0.786  27.950  0.00  0.00    +0.302 C 
ATOM     42  O   UNL A   1     -22.297   0.034  29.016  0.00  0.00    -0.268 OA
ATOM     43  O   UNL A   1     -21.603   2.147  26.268  0.00  0.00    -0.093 OA
ATOM     44  C   UNL A   1     -23.256   1.351  27.231  0.00  0.00    +0.248 C 
ENDBRANCH  23  44
ENDBRANCH   1  23
TORSDOF 14
