MODEL 3476
MODEL 1
REMARK VINA RESULT:    -5.944      0.000      0.000
REMARK INTER + INTRA:          -6.327
REMARK INTER:                  -6.291
REMARK INTRA:                  -0.036
REMARK UNBOUND:                -0.036
REMARK  Name = No_3476-gen_results/8p0m/2024-11-27-11-27-31/
REMARK  1 active torsions:
REMARK  status: ('A' for Active; 'I' for Inactive)
REMARK    1  A    between atoms: C_5  and  C_11
REMARK                            x       y       z     vdW  Elec       q    Type
REMARK                         _______ _______ _______ _____ _____    ______ ____
ROOT
ATOM      1  C   UNL A   1     -30.687  -9.713  29.660  0.00  0.00    +0.000 A 
ATOM      2  C   UNL A   1     -29.971 -10.285  30.449  0.00  0.00    +0.000 A 
ATOM      3  C   UNL A   1     -29.045 -11.260  30.083  0.00  0.00    +0.000 A 
ATOM      4  C   UNL A   1     -28.144 -12.015  30.976  0.00  0.00    +0.002 A 
ATOM      5  C   UNL A   1     -28.076 -11.552  32.325  0.00  0.00    +0.021 A 
ATOM      6  C   UNL A   1     -28.957 -10.541  32.725  0.00  0.00    +0.002 A 
ATOM      7  C   UNL A   1     -29.824  -9.938  31.881  0.00  0.00    +0.000 A 
ATOM      8  C   UNL A   1     -31.043 -10.419  28.390  0.00  0.00    +0.000 A 
ATOM      9  C   UNL A   1     -30.016 -11.254  27.821  0.00  0.00    +0.000 A 
ATOM     10  C   UNL A   1     -29.102 -11.829  28.720  0.00  0.00    +0.000 A 
ENDROOT
BRANCH   5  11
ATOM     11  C   UNL A   1     -27.136 -12.251  33.238  0.00  0.00    +0.122 C 
ATOM     12  N   UNL A   1     -27.437 -12.355  34.441  0.00  0.00    -0.146 NA
ENDBRANCH   5  11
TORSDOF 1
ENDMDL
ENDMDL
