MODEL 3478
MODEL 1
REMARK VINA RESULT:    -5.174      0.000      0.000
REMARK INTER + INTRA:          -6.067
REMARK INTER:                  -5.778
REMARK INTRA:                  -0.288
REMARK UNBOUND:                -0.288
REMARK  Name = No_3478-gen_results/8p0m/2024-11-27-11-27-31/
REMARK  2 active torsions:
REMARK  status: ('A' for Active; 'I' for Inactive)
REMARK    1  A    between atoms: C_2  and  C_3
REMARK    2  A    between atoms: C_2  and  C_9
REMARK                            x       y       z     vdW  Elec       q    Type
REMARK                         _______ _______ _______ _____ _____    ______ ____
ROOT
ATOM      1  C   UNL A   1     -24.658  -2.587  28.939  0.00  0.00    -0.012 A 
ATOM      2  C   UNL A   1     -25.800  -2.697  29.425  0.00  0.00    -0.003 A 
ATOM      3  C   UNL A   1     -26.345  -3.993  29.805  0.00  0.00    -0.000 A 
ATOM      4  C   UNL A   1     -25.647  -5.117  29.455  0.00  0.00    -0.000 A 
ATOM      5  C   UNL A   1     -24.445  -5.069  28.848  0.00  0.00    -0.000 A 
ATOM      6  C   UNL A   1     -23.961  -3.801  28.578  0.00  0.00    -0.003 A 
ENDROOT
BRANCH   1   8
ATOM      7 BR   UNL A   1     -24.659  -0.228  27.751  0.00  0.00    -0.077 Br
ATOM      8  C   UNL A   1     -24.094  -1.460  28.699  0.00  0.00    +0.079 C 
BRANCH   8   9
ATOM      9  C   UNL A   1     -22.653  -1.193  29.161  0.00  0.00    +0.016 C 
ATOM     10  C   UNL A   1     -22.363  -0.447  29.952  0.00  0.00    +0.001 C 
ENDBRANCH   8   9
ENDBRANCH   1   8
TORSDOF 2
ENDMDL
ENDMDL
