REMARK  Name = No_3478-gen_results/8p0m/2024-11-27-11-27-31/
REMARK  2 active torsions:
REMARK  status: ('A' for Active; 'I' for Inactive)
REMARK    1  A    between atoms: C_2  and  C_3
REMARK    2  A    between atoms: C_2  and  C_9
REMARK                            x       y       z     vdW  Elec       q    Type
REMARK                         _______ _______ _______ _____ _____    ______ ____
ROOT
ATOM      1  C   UNL A   1     -25.846   0.704  29.331  0.00  0.00    -0.012 A 
ATOM      2  C   UNL A   1     -25.653   0.357  30.512  0.00  0.00    -0.003 A 
ATOM      3  C   UNL A   1     -24.468   0.778  31.246  0.00  0.00    -0.000 A 
ATOM      4  C   UNL A   1     -23.475   1.422  30.558  0.00  0.00    -0.000 A 
ATOM      5  C   UNL A   1     -23.585   1.750  29.256  0.00  0.00    -0.000 A 
ATOM      6  C   UNL A   1     -24.767   1.375  28.642  0.00  0.00    -0.003 A 
ENDROOT
BRANCH   1   8
ATOM      7 BR   UNL A   1     -28.115  -0.626  29.081  0.00  0.00    -0.077 Br
ATOM      8  C   UNL A   1     -26.927   0.455  28.685  0.00  0.00    +0.079 C 
BRANCH   8   9
ATOM      9  C   UNL A   1     -27.158   1.053  27.289  0.00  0.00    +0.016 C 
ATOM     10  C   UNL A   1     -27.988   1.768  27.029  0.00  0.00    +0.001 C 
ENDBRANCH   8   9
ENDBRANCH   1   8
TORSDOF 2
