MODEL 3479
MODEL 1
REMARK VINA RESULT:    -7.429      0.000      0.000
REMARK INTER + INTRA:          -9.177
REMARK INTER:                  -8.732
REMARK INTRA:                  -0.446
REMARK UNBOUND:                -0.446
REMARK  Name = No_3479-gen_results/8p0m/2024-11-27-11-27-31/
REMARK  3 active torsions:
REMARK  status: ('A' for Active; 'I' for Inactive)
REMARK    1  A    between atoms: N_1  and  C_2
REMARK    2  A    between atoms: N_1  and  C_12
REMARK    3  A    between atoms: C_13  and  C_14
REMARK                            x       y       z     vdW  Elec       q    Type
REMARK                         _______ _______ _______ _____ _____    ______ ____
ROOT
ATOM      1  C   UNL A   1     -23.975  -2.677  29.208  0.00  0.00    +0.070 A 
ATOM      2  C   UNL A   1     -25.099  -2.036  29.698  0.00  0.00    +0.017 A 
ATOM      3  C   UNL A   1     -26.343  -2.691  30.132  0.00  0.00    +0.001 A 
ATOM      4  C   UNL A   1     -27.457  -2.050  30.661  0.00  0.00    +0.000 A 
ATOM      5  C   UNL A   1     -28.519  -2.843  31.111  0.00  0.00    +0.000 A 
ATOM      6  C   UNL A   1     -28.521  -4.226  30.699  0.00  0.00    +0.000 A 
ATOM      7  C   UNL A   1     -27.518  -4.797  30.085  0.00  0.00    +0.000 A 
ATOM      8  C   UNL A   1     -26.394  -4.090  29.768  0.00  0.00    +0.000 A 
ATOM      9  C   UNL A   1     -24.038  -4.101  28.984  0.00  0.00    +0.017 A 
ATOM     10  C   UNL A   1     -25.238  -4.791  29.099  0.00  0.00    +0.001 A 
ENDROOT
BRANCH   1  11
ATOM     11  N   UNL A   1     -22.987  -2.014  28.882  0.00  0.00    -0.211 NA
BRANCH  11  12
ATOM     12  C   UNL A   1     -22.712  -0.917  29.733  0.00  0.00    +0.086 C 
ATOM     13  C   UNL A   1     -22.639   0.176  29.676  0.00  0.00    +0.018 C 
BRANCH  13  14
ATOM     14  C   UNL A   1     -22.838   0.775  28.340  0.00  0.00    +0.001 A 
ATOM     15  C   UNL A   1     -24.025   1.115  27.909  0.00  0.00    +0.000 A 
ATOM     16  C   UNL A   1     -24.146   1.753  26.774  0.00  0.00    +0.000 A 
ATOM     17  C   UNL A   1     -22.985   2.197  26.026  0.00  0.00    +0.000 A 
ATOM     18  C   UNL A   1     -21.744   1.952  26.589  0.00  0.00    +0.000 A 
ATOM     19  C   UNL A   1     -21.669   1.246  27.769  0.00  0.00    +0.000 A 
ENDBRANCH  13  14
ENDBRANCH  11  12
ENDBRANCH   1  11
TORSDOF 3
ENDMDL
ENDMDL
