MODEL 347
MODEL 1
REMARK VINA RESULT:    -4.923      0.000      0.000
REMARK INTER + INTRA:          -5.678
REMARK INTER:                  -5.499
REMARK INTRA:                  -0.179
REMARK UNBOUND:                -0.179
REMARK  Name = No_347-gen_results/8p0m/2024-11-27-11-27-31/
REMARK  2 active torsions:
REMARK  status: ('A' for Active; 'I' for Inactive)
REMARK    1  A    between atoms: C_3  and  C_7
REMARK    2  A    between atoms: C_7  and  C_8
REMARK                            x       y       z     vdW  Elec       q    Type
REMARK                         _______ _______ _______ _____ _____    ______ ____
ROOT
ATOM      1  C   UNL A   1     -23.886  -3.961  28.524  0.00  0.00    -0.004 A 
ATOM      2  C   UNL A   1     -24.343  -4.891  28.715  0.00  0.00    -0.000 A 
ATOM      3  C   UNL A   1     -24.564  -2.796  28.945  0.00  0.00    -0.018 A 
ATOM      4  C   UNL A   1     -25.791  -2.852  29.576  0.00  0.00    -0.004 A 
ATOM      5  C   UNL A   1     -25.625  -5.226  29.364  0.00  0.00    -0.000 A 
ATOM      6  C   UNL A   1     -26.308  -4.137  29.782  0.00  0.00    -0.000 A 
ENDROOT
BRANCH   3   7
ATOM      7  C   UNL A   1     -24.006  -1.413  28.767  0.00  0.00    +0.052 C 
BRANCH   7   8
ATOM      8  C   UNL A   1     -22.706  -1.174  29.258  0.00  0.00    -0.021 C 
ATOM      9  C   UNL A   1     -21.962  -0.098  28.815  0.00  0.00    -0.005 C 
ENDBRANCH   7   8
ENDBRANCH   3   7
TORSDOF 2
ENDMDL
ENDMDL
