REMARK  Name = outputs/IAG933/test6/raw/output_3480_IAG933_linker_design_.xyz
REMARK  15 active torsions:
REMARK  status: ('A' for Active; 'I' for Inactive)
REMARK    1  A    between atoms: C_1  and  C_2
REMARK    2  A    between atoms: C_1  and  C_8
REMARK    3  A    between atoms: C_1  and  C_36
REMARK    4  A    between atoms: C_13  and  C_40
REMARK    5  A    between atoms: C_14  and  C_15
REMARK    6  A    between atoms: C_21  and  O_22
REMARK    7  A    between atoms: O_22  and  C_23
REMARK    8  A    between atoms: C_23  and  C_24
REMARK    9  A    between atoms: O_32  and  C_42
REMARK   10  A    between atoms: O_32  and  C_46
REMARK   11  A    between atoms: C_36  and  N_41
REMARK   12  A    between atoms: C_36  and  C_44
REMARK   13  A    between atoms: O_38  and  C_39
REMARK   14  A    between atoms: C_39  and  C_46
REMARK   15  A    between atoms: C_44  and  C_46
REMARK                            x       y       z     vdW  Elec       q    Type
REMARK                         _______ _______ _______ _____ _____    ______ ____
ROOT
ATOM      1  C   UNL A   1     -25.500  -0.172  29.022  0.00  0.00    +0.067 C 
ENDROOT
BRANCH   1   6
ATOM      2  C   UNL A   1     -23.309   0.139  28.863  0.00  0.00    +0.111 C 
ATOM      3  O   UNL A   1     -22.694   2.196  25.788  0.00  0.00    -0.218 OA
ATOM      4  C   UNL A   1     -22.310   1.257  28.189  0.00  0.00    +0.209 C 
ATOM      5  C   UNL A   1     -24.645   1.240  27.291  0.00  0.00    +0.116 C 
ATOM      6  N   UNL A   1     -24.550   0.450  28.296  0.00  0.00    -0.267 NA
ATOM      7  F   UNL A   1     -20.980   1.239  27.747  0.00  0.00    -0.233 F 
ATOM      8  C   UNL A   1     -23.242   1.656  27.064  0.00  0.00    +0.204 C 
BRANCH   5   9
ATOM      9  C   UNL A   1     -25.688   1.614  26.461  0.00  0.00    +0.033 C 
ATOM     10  C   UNL A   1     -26.250   2.920  26.395  0.00  0.00    +0.074 C 
ATOM     11  C   UNL A   1     -27.438   3.091  25.645  0.00  0.00    +0.106 C 
ATOM     12  N   UNL A   1     -28.075   2.089  25.003  0.00  0.00    -0.208 NA
ATOM     13  C   UNL A   1     -27.543   0.849  25.079  0.00  0.00    +0.253 C 
ATOM     14  C   UNL A   1     -26.354   0.576  25.777  0.00  0.00    +0.191 C 
ATOM     15  F   UNL A   1     -25.860  -0.681  25.795  0.00  0.00    -0.200 F 
BRANCH  10  16
ATOM     16  C   UNL A   1     -25.642   4.093  27.123  0.00  0.00    +0.266 C 
ATOM     17  N   UNL A   1     -25.614   5.252  26.449  0.00  0.00    -0.200 NA
ATOM     18  C   UNL A   1     -25.026   6.479  26.963  0.00  0.00    +0.139 C 
ATOM     19  O   UNL A   1     -25.143   3.966  28.243  0.00  0.00    -0.268 OA
ENDBRANCH  10  16
BRANCH  13  20
ATOM     20  O   UNL A   1     -28.193  -0.208  24.477  0.00  0.00    -0.456 OA
BRANCH  20  21
ATOM     21  C   UNL A   1     -29.460   0.005  23.866  0.00  0.00    +0.243 C 
BRANCH  21  22
ATOM     22  C   UNL A   1     -30.065  -1.377  23.573  0.00  0.00    +0.229 C 
ATOM     23  O   UNL A   1     -30.729  -1.878  24.721  0.00  0.00    -0.216 OA
ENDBRANCH  21  22
ENDBRANCH  20  21
ENDBRANCH  13  20
ENDBRANCH   5   9
ENDBRANCH   1   6
BRANCH   1  24
ATOM     24  C   UNL A   1     -24.855  -1.012  30.143  0.00  0.00    +0.053 C 
BRANCH  24  25
ATOM     25  C   UNL A   1     -24.973  -2.505  29.788  0.00  0.00    -0.020 C 
ATOM     26  C   UNL A   1     -23.906  -3.173  29.146  0.00  0.00    -0.004 C 
ATOM     27  C   UNL A   1     -23.989  -4.549  28.853  0.00  0.00    -0.000 C 
ATOM     28  C   UNL A   1     -25.137  -5.280  29.205  0.00  0.00    -0.000 C 
ATOM     29  C   UNL A   1     -26.232  -4.611  29.784  0.00  0.00    -0.000 C 
ATOM     30  C   UNL A   1     -26.155  -3.232  30.065  0.00  0.00    -0.004 C 
ENDBRANCH  24  25
BRANCH  24  31
ATOM     31  C   UNL A   1     -25.387  -0.679  31.571  0.00  0.00    +0.078 C 
ATOM     32  C   UNL A   1     -25.189   0.773  32.028  0.00  0.00    +0.019 C 
ATOM     33  C   UNL A   1     -25.336   0.684  33.544  0.00  0.00    +0.020 C 
ATOM     34  C   UNL A   1     -24.829  -0.715  33.905  0.00  0.00    +0.089 C 
ATOM     35  N   UNL A   1     -24.758  -1.481  32.646  0.00  0.00    -0.219 NA
ENDBRANCH  24  31
ENDBRANCH   1  24
BRANCH   1  36
ATOM     36  C   UNL A   1     -26.954  -0.393  28.733  0.00  0.00    +0.062 C 
BRANCH  36  37
ATOM     37  C   UNL A   1     -28.236   0.459  28.927  0.00  0.00    +0.197 C 
BRANCH  37  38
ATOM     38  O   UNL A   1     -27.895   1.526  29.779  0.00  0.00    -0.476 OA
BRANCH  38  43
ATOM     39  C   UNL A   1     -28.024   5.518  29.546  0.00  0.00    +0.000 C 
ATOM     40  C   UNL A   1     -28.805   3.451  28.598  0.00  0.00    +0.037 C 
ATOM     41  C   UNL A   1     -28.735   4.845  28.559  0.00  0.00    +0.003 C 
ATOM     42  C   UNL A   1     -27.564   4.855  30.655  0.00  0.00    +0.003 C 
ATOM     43  C   UNL A   1     -28.243   2.767  29.686  0.00  0.00    +0.139 C 
ATOM     44  C   UNL A   1     -27.819   3.482  30.816  0.00  0.00    +0.037 C 
ENDBRANCH  38  43
ENDBRANCH  37  38
BRANCH  37  45
ATOM     45  C   UNL A   1     -29.374  -0.306  29.131  0.00  0.00    +0.185 C 
BRANCH  45  47
ATOM     46  C   UNL A   1     -30.781   1.331  30.364  0.00  0.00    +0.174 C 
ATOM     47  O   UNL A   1     -30.492   0.122  29.645  0.00  0.00    -0.347 OA
ENDBRANCH  45  47
ENDBRANCH  37  45
ENDBRANCH  36  37
ENDBRANCH   1  36
TORSDOF 15
