MODEL 3480
MODEL 1
REMARK VINA RESULT:    -5.697      0.000      0.000
REMARK INTER + INTRA:          -7.444
REMARK INTER:                  -7.029
REMARK INTRA:                  -0.415
REMARK UNBOUND:                -0.415
REMARK  Name = No_3480-gen_results/8p0m/2024-11-27-11-27-31/
REMARK  4 active torsions:
REMARK  status: ('A' for Active; 'I' for Inactive)
REMARK    1  A    between atoms: C_2  and  O_7
REMARK    2  A    between atoms: O_7  and  C_8
REMARK    3  A    between atoms: C_9  and  C_10
REMARK    4  A    between atoms: C_11  and  C_12
REMARK                            x       y       z     vdW  Elec       q    Type
REMARK                         _______ _______ _______ _____ _____    ______ ____
ROOT
ATOM      1  O   UNL A   1     -25.021  -1.117  29.276  0.00  0.00    -0.450 OA
ENDROOT
BRANCH   1   3
ATOM      2  C   UNL A   1     -26.059  -2.952  29.690  0.00  0.00    +0.037 A 
ATOM      3  C   UNL A   1     -25.177  -2.579  29.251  0.00  0.00    +0.145 A 
ATOM      4  C   UNL A   1     -26.215  -4.456  29.660  0.00  0.00    +0.003 A 
ATOM      5  C   UNL A   1     -25.146  -5.253  29.198  0.00  0.00    +0.000 A 
ATOM      6  C   UNL A   1     -23.921  -3.176  28.743  0.00  0.00    +0.037 A 
ATOM      7  C   UNL A   1     -24.024  -4.560  28.707  0.00  0.00    +0.003 A 
ENDBRANCH   1   3
BRANCH   1   8
ATOM      8  C   UNL A   1     -23.867  -0.655  28.949  0.00  0.00    +0.179 C 
ATOM      9  C   UNL A   1     -23.607   0.083  27.899  0.00  0.00    +0.040 C 
BRANCH   9  10
ATOM     10  C   UNL A   1     -24.782   0.482  27.138  0.00  0.00    +0.001 C 
ATOM     11  C   UNL A   1     -24.691   1.199  26.094  0.00  0.00    +0.006 C 
BRANCH  11  12
ATOM     12  C   UNL A   1     -23.590   2.242  26.270  0.00  0.00    +0.174 C 
ATOM     13  C   UNL A   1     -22.619   2.354  25.180  0.00  0.00    +0.040 C 
ATOM     14  O   UNL A   1     -23.856   3.143  25.879  0.00  0.00    -0.218 OA
ENDBRANCH  11  12
ENDBRANCH   9  10
ENDBRANCH   1   8
TORSDOF 4
ENDMDL
ENDMDL
