MODEL 3482
MODEL 1
REMARK VINA RESULT:    -5.969      0.000      0.000
REMARK INTER + INTRA:          -6.912
REMARK INTER:                  -6.667
REMARK INTRA:                  -0.245
REMARK UNBOUND:                -0.245
REMARK  Name = No_3482-gen_results/8p0m/2024-11-27-11-27-31/
REMARK  2 active torsions:
REMARK  status: ('A' for Active; 'I' for Inactive)
REMARK    1  A    between atoms: C_2  and  C_3
REMARK    2  A    between atoms: N_4  and  C_10
REMARK                            x       y       z     vdW  Elec       q    Type
REMARK                         _______ _______ _______ _____ _____    ______ ____
ROOT
ATOM      1  C   UNL A   1     -22.992   0.071  28.626  0.00  0.00    +0.055 A 
ATOM      2  C   UNL A   1     -24.026   0.524  27.917  0.00  0.00    +0.004 A 
ATOM      3  C   UNL A   1     -21.739   0.777  28.644  0.00  0.00    +0.004 A 
ATOM      4  C   UNL A   1     -24.134   0.943  26.874  0.00  0.00    -0.004 A 
ATOM      5  C   UNL A   1     -22.840   1.745  26.443  0.00  0.00    -0.022 A 
ATOM      6  C   UNL A   1     -21.724   1.573  27.264  0.00  0.00    -0.004 A 
ATOM      7  C   UNL A   1     -22.727   2.441  25.167  0.00  0.00    +0.031 C 
ENDROOT
BRANCH   1   9
ATOM      8  O   UNL A   1     -22.728  -1.223  30.401  0.00  0.00    -0.268 OA
ATOM      9  C   UNL A   1     -23.159  -1.098  29.340  0.00  0.00    +0.269 C 
ATOM     10  N   UNL A   1     -24.046  -2.088  28.700  0.00  0.00    -0.174 NA
BRANCH  10  11
ATOM     11  C   UNL A   1     -24.300  -3.129  29.058  0.00  0.00    +0.084 C 
ATOM     12  C   UNL A   1     -24.302  -4.134  28.554  0.00  0.00    -0.008 C 
ATOM     13  C   UNL A   1     -24.682  -5.471  29.045  0.00  0.00    +0.032 C 
ENDBRANCH  10  11
ENDBRANCH   1   9
TORSDOF 2
ENDMDL
ENDMDL
