REMARK  Name = outputs/IAG933/test6/raw/output_3482_IAG933_linker_design_.xyz
REMARK  10 active torsions:
REMARK  status: ('A' for Active; 'I' for Inactive)
REMARK    1  A    between atoms: C_1  and  C_2
REMARK    2  A    between atoms: C_1  and  C_8
REMARK    3  A    between atoms: C_1  and  C_39
REMARK    4  A    between atoms: C_13  and  C_37
REMARK    5  A    between atoms: C_14  and  C_15
REMARK    6  A    between atoms: C_21  and  O_22
REMARK    7  A    between atoms: O_22  and  C_23
REMARK    8  A    between atoms: C_23  and  C_24
REMARK    9  A    between atoms: C_30  and  C_39
REMARK   10  A    between atoms: N_34  and  C_39
REMARK                            x       y       z     vdW  Elec       q    Type
REMARK                         _______ _______ _______ _____ _____    ______ ____
ROOT
ATOM      1  C   UNL A   1     -23.969   0.849  28.279  0.00  0.00    +0.027 C 
ATOM      2  C   UNL A   1     -23.306   2.106  26.269  0.00  0.00    +0.167 C 
ATOM      3  F   UNL A   1     -23.426   2.852  25.194  0.00  0.00    -0.202 F 
ATOM      4  C   UNL A   1     -21.710   1.376  27.840  0.00  0.00    +0.032 C 
ATOM      5  F   UNL A   1     -21.118   1.968  25.593  0.00  0.00    -0.202 F 
ATOM      6  C   UNL A   1     -24.306   1.523  27.062  0.00  0.00    +0.032 C 
ATOM      7  C   UNL A   1     -22.670   0.934  28.722  0.00  0.00    +0.002 C 
ATOM      8  C   UNL A   1     -22.053   1.851  26.587  0.00  0.00    +0.167 C 
ENDROOT
BRANCH   6   9
ATOM      9  C   UNL A   1     -25.688   1.614  26.461  0.00  0.00    +0.040 C 
ATOM     10  C   UNL A   1     -26.250   2.920  26.395  0.00  0.00    +0.077 C 
ATOM     11  C   UNL A   1     -27.438   3.091  25.645  0.00  0.00    +0.107 C 
ATOM     12  N   UNL A   1     -28.075   2.089  25.003  0.00  0.00    -0.208 NA
ATOM     13  C   UNL A   1     -27.543   0.849  25.079  0.00  0.00    +0.253 C 
ATOM     14  C   UNL A   1     -26.354   0.576  25.777  0.00  0.00    +0.193 C 
ATOM     15  F   UNL A   1     -25.860  -0.681  25.795  0.00  0.00    -0.199 F 
BRANCH  10  16
ATOM     16  C   UNL A   1     -25.642   4.093  27.123  0.00  0.00    +0.266 C 
ATOM     17  N   UNL A   1     -25.614   5.252  26.449  0.00  0.00    -0.200 NA
ATOM     18  C   UNL A   1     -25.026   6.479  26.963  0.00  0.00    +0.139 C 
ATOM     19  O   UNL A   1     -25.143   3.966  28.243  0.00  0.00    -0.268 OA
ENDBRANCH  10  16
BRANCH  13  20
ATOM     20  O   UNL A   1     -28.193  -0.208  24.477  0.00  0.00    -0.456 OA
BRANCH  20  21
ATOM     21  C   UNL A   1     -29.460   0.005  23.866  0.00  0.00    +0.243 C 
BRANCH  21  22
ATOM     22  C   UNL A   1     -30.065  -1.377  23.573  0.00  0.00    +0.229 C 
ATOM     23  O   UNL A   1     -30.729  -1.878  24.721  0.00  0.00    -0.216 OA
ENDBRANCH  21  22
ENDBRANCH  20  21
ENDBRANCH  13  20
ENDBRANCH   6   9
BRANCH   1  24
ATOM     24  C   UNL A   1     -24.860   0.019  29.143  0.00  0.00    +0.233 C 
BRANCH  24  28
ATOM     25  C   UNL A   1     -29.108   2.068  29.052  0.00  0.00    +0.098 C 
ATOM     26  C   UNL A   1     -27.811   2.495  29.378  0.00  0.00    +0.419 C 
ATOM     27  C   UNL A   1     -28.240  -0.021  28.130  0.00  0.00    +0.093 C 
ATOM     28  N   UNL A   1     -25.983  -0.368  28.373  0.00  0.00    -0.030 NA
ATOM     29  N   UNL A   1     -26.794   1.648  29.122  0.00  0.00    +0.012 NA
ATOM     30  N   UNL A   1     -27.588   3.806  30.029  0.00  0.00    +0.216 NA
ATOM     31  C   UNL A   1     -26.974   0.425  28.537  0.00  0.00    +0.366 C 
ATOM     32  C   UNL A   1     -29.311   0.843  28.409  0.00  0.00    +0.016 C 
ENDBRANCH  24  28
BRANCH  24  33
ATOM     33  C   UNL A   1     -24.855  -1.012  30.143  0.00  0.00    +0.090 C 
BRANCH  33  34
ATOM     34  C   UNL A   1     -24.973  -2.505  29.788  0.00  0.00    -0.017 C 
ATOM     35  C   UNL A   1     -23.906  -3.173  29.146  0.00  0.00    -0.004 C 
ATOM     36  C   UNL A   1     -23.989  -4.549  28.853  0.00  0.00    -0.000 C 
ATOM     37  C   UNL A   1     -25.137  -5.280  29.205  0.00  0.00    -0.000 C 
ATOM     38  C   UNL A   1     -26.232  -4.611  29.784  0.00  0.00    -0.000 C 
ATOM     39  C   UNL A   1     -26.155  -3.232  30.065  0.00  0.00    -0.004 C 
ENDBRANCH  33  34
BRANCH  33  40
ATOM     40  C   UNL A   1     -25.387  -0.679  31.571  0.00  0.00    +0.081 C 
ATOM     41  C   UNL A   1     -25.189   0.773  32.028  0.00  0.00    +0.019 C 
ATOM     42  C   UNL A   1     -25.336   0.684  33.544  0.00  0.00    +0.020 C 
ATOM     43  C   UNL A   1     -24.829  -0.715  33.905  0.00  0.00    +0.089 C 
ATOM     44  N   UNL A   1     -24.758  -1.481  32.646  0.00  0.00    -0.219 NA
ENDBRANCH  33  40
ENDBRANCH  24  33
ENDBRANCH   1  24
TORSDOF 10
