REMARK  Name = outputs/IAG933/test6/raw/output_3483_IAG933_linker_design_.xyz
REMARK  13 active torsions:
REMARK  status: ('A' for Active; 'I' for Inactive)
REMARK    1  A    between atoms: C_1  and  C_2
REMARK    2  A    between atoms: C_1  and  C_8
REMARK    3  A    between atoms: C_1  and  C_32
REMARK    4  A    between atoms: C_13  and  C_43
REMARK    5  A    between atoms: C_14  and  C_15
REMARK    6  A    between atoms: C_21  and  O_22
REMARK    7  A    between atoms: O_22  and  C_23
REMARK    8  A    between atoms: C_23  and  C_24
REMARK    9  A    between atoms: N_28  and  C_32
REMARK   10  A    between atoms: N_28  and  C_39
REMARK   11  A    between atoms: O_29  and  C_32
REMARK   12  A    between atoms: O_29  and  C_42
REMARK   13  A    between atoms: C_30  and  C_37
REMARK                            x       y       z     vdW  Elec       q    Type
REMARK                         _______ _______ _______ _____ _____    ______ ____
ROOT
ATOM      1  F   UNL A   1     -20.909   0.962  27.815  0.00  0.00    -0.163 F 
ATOM      2  C   UNL A   1     -23.078   1.539  26.749  0.00  0.00    +0.148 A 
ATOM      3  C   UNL A   1     -22.305   0.827  27.799  0.00  0.00    +0.295 A 
ATOM      4  C   UNL A   1     -24.360   0.249  28.042  0.00  0.00    +0.220 A 
ATOM      5  O   UNL A   1     -23.059   0.038  28.468  0.00  0.00    -0.413 OA
ATOM      6  C   UNL A   1     -24.418   1.264  27.060  0.00  0.00    +0.065 A 
ENDROOT
BRANCH   6   7
ATOM      7  C   UNL A   1     -25.688   1.614  26.461  0.00  0.00    +0.043 C 
ATOM      8  C   UNL A   1     -26.250   2.920  26.395  0.00  0.00    +0.077 C 
ATOM      9  C   UNL A   1     -27.438   3.091  25.645  0.00  0.00    +0.107 C 
ATOM     10  N   UNL A   1     -28.075   2.089  25.003  0.00  0.00    -0.208 NA
ATOM     11  C   UNL A   1     -27.543   0.849  25.079  0.00  0.00    +0.253 C 
ATOM     12  C   UNL A   1     -26.354   0.576  25.777  0.00  0.00    +0.193 C 
ATOM     13  F   UNL A   1     -25.860  -0.681  25.795  0.00  0.00    -0.199 F 
BRANCH   8  14
ATOM     14  C   UNL A   1     -25.642   4.093  27.123  0.00  0.00    +0.266 C 
ATOM     15  N   UNL A   1     -25.614   5.252  26.449  0.00  0.00    -0.200 NA
ATOM     16  C   UNL A   1     -25.026   6.479  26.963  0.00  0.00    +0.139 C 
ATOM     17  O   UNL A   1     -25.143   3.966  28.243  0.00  0.00    -0.268 OA
ENDBRANCH   8  14
BRANCH  11  18
ATOM     18  O   UNL A   1     -28.193  -0.208  24.477  0.00  0.00    -0.456 OA
BRANCH  18  19
ATOM     19  C   UNL A   1     -29.460   0.005  23.866  0.00  0.00    +0.243 C 
BRANCH  19  20
ATOM     20  C   UNL A   1     -30.065  -1.377  23.573  0.00  0.00    +0.229 C 
ATOM     21  O   UNL A   1     -30.729  -1.878  24.721  0.00  0.00    -0.216 OA
ENDBRANCH  19  20
ENDBRANCH  18  19
ENDBRANCH  11  18
ENDBRANCH   6   7
BRANCH   2  22
ATOM     22  C   UNL A   1     -22.334   2.071  25.780  0.00  0.00    +0.393 C 
ATOM     23  O   UNL A   1     -21.152   1.900  25.599  0.00  0.00    -0.240 OA
ATOM     24  O   UNL A   1     -23.002   2.807  25.063  0.00  0.00    -0.240 OA
ENDBRANCH   2  22
BRANCH   4  25
ATOM     25  N   UNL A   1     -25.261  -0.120  28.035  0.00  0.00    -0.177 NA
BRANCH  25  26
ATOM     26  C   UNL A   1     -26.059  -0.263  29.198  0.00  0.00    +0.217 C 
BRANCH  26  27
ATOM     27  C   UNL A   1     -24.855  -1.012  30.143  0.00  0.00    +0.087 C 
BRANCH  27  28
ATOM     28  C   UNL A   1     -24.973  -2.505  29.788  0.00  0.00    -0.017 C 
ATOM     29  C   UNL A   1     -23.906  -3.173  29.146  0.00  0.00    -0.004 C 
ATOM     30  C   UNL A   1     -23.989  -4.549  28.853  0.00  0.00    -0.000 C 
ATOM     31  C   UNL A   1     -25.137  -5.280  29.205  0.00  0.00    -0.000 C 
ATOM     32  C   UNL A   1     -26.232  -4.611  29.784  0.00  0.00    -0.000 C 
ATOM     33  C   UNL A   1     -26.155  -3.232  30.065  0.00  0.00    -0.004 C 
ENDBRANCH  27  28
BRANCH  27  34
ATOM     34  C   UNL A   1     -25.387  -0.679  31.571  0.00  0.00    +0.081 C 
ATOM     35  C   UNL A   1     -25.189   0.773  32.028  0.00  0.00    +0.019 C 
ATOM     36  C   UNL A   1     -25.336   0.684  33.544  0.00  0.00    +0.020 C 
ATOM     37  C   UNL A   1     -24.829  -0.715  33.905  0.00  0.00    +0.089 C 
ATOM     38  N   UNL A   1     -24.758  -1.481  32.646  0.00  0.00    -0.219 NA
ENDBRANCH  27  34
ENDBRANCH  26  27
BRANCH  26  39
ATOM     39  O   UNL A   1     -27.169  -1.073  28.756  0.00  0.00    -0.327 OA
BRANCH  39  44
ATOM     40  C   UNL A   1     -28.954   0.315  27.948  0.00  0.00    +0.042 C 
ATOM     41  S   UNL A   1     -28.516   0.606  30.615  0.00  0.00    -0.112 S 
ATOM     42  C   UNL A   1     -29.500   1.873  29.778  0.00  0.00    +0.060 C 
ATOM     43  C   UNL A   1     -30.048   1.206  28.517  0.00  0.00    +0.015 C 
ATOM     44  C   UNL A   1     -28.423  -0.469  29.132  0.00  0.00    +0.164 C 
ENDBRANCH  39  44
ENDBRANCH  26  39
ENDBRANCH  25  26
ENDBRANCH   4  25
TORSDOF 13
