MODEL 3484
MODEL 1
REMARK VINA RESULT:    -5.264      0.000      0.000
REMARK INTER + INTRA:          -6.205
REMARK INTER:                  -5.880
REMARK INTRA:                  -0.325
REMARK UNBOUND:                -0.325
REMARK  Name = No_3484-gen_results/8p0m/2024-11-27-11-27-31/
REMARK  2 active torsions:
REMARK  status: ('A' for Active; 'I' for Inactive)
REMARK    1  A    between atoms: C_3  and  C_4
REMARK    2  A    between atoms: C_4  and  C_8
REMARK                            x       y       z     vdW  Elec       q    Type
REMARK                         _______ _______ _______ _____ _____    ______ ____
ROOT
ATOM      1  C   UNL A   1     -23.864  -3.697  28.576  0.00  0.00    -0.004 A 
ATOM      2  C   UNL A   1     -24.157  -4.709  28.583  0.00  0.00    -0.000 A 
ATOM      3  C   UNL A   1     -24.843  -2.724  29.090  0.00  0.00    -0.018 A 
ATOM      4  C   UNL A   1     -25.312  -5.395  29.211  0.00  0.00    -0.000 A 
ATOM      5  C   UNL A   1     -26.281  -4.543  29.727  0.00  0.00    -0.000 A 
ATOM      6  C   UNL A   1     -26.089  -3.177  29.718  0.00  0.00    -0.004 A 
ENDROOT
BRANCH   3   7
ATOM      7  C   UNL A   1     -24.744  -1.273  29.053  0.00  0.00    +0.052 C 
BRANCH   7   8
ATOM      8  C   UNL A   1     -23.577  -0.635  28.554  0.00  0.00    -0.026 C 
ATOM      9  C   UNL A   1     -22.479  -0.451  29.440  0.00  0.00    -0.030 C 
ATOM     10  C   UNL A   1     -22.800  -0.347  30.786  0.00  0.00    +0.030 C 
ENDBRANCH   7   8
ENDBRANCH   3   7
TORSDOF 2
ENDMDL
ENDMDL
