REMARK  Name = No_3484-gen_results/8p0m/2024-11-27-11-27-31/
REMARK  2 active torsions:
REMARK  status: ('A' for Active; 'I' for Inactive)
REMARK    1  A    between atoms: C_3  and  C_4
REMARK    2  A    between atoms: C_4  and  C_8
REMARK                            x       y       z     vdW  Elec       q    Type
REMARK                         _______ _______ _______ _____ _____    ______ ____
ROOT
ATOM      1  C   UNL A   1     -28.016  -0.814  28.878  0.00  0.00    -0.004 A 
ATOM      2  C   UNL A   1     -28.469  -0.785  29.829  0.00  0.00    -0.000 A 
ATOM      3  C   UNL A   1     -26.546  -0.876  28.850  0.00  0.00    -0.018 A 
ATOM      4  C   UNL A   1     -27.918  -1.003  31.188  0.00  0.00    -0.000 A 
ATOM      5  C   UNL A   1     -26.531  -1.079  31.246  0.00  0.00    -0.000 A 
ATOM      6  C   UNL A   1     -25.780  -1.046  30.090  0.00  0.00    -0.004 A 
ENDROOT
BRANCH   3   7
ATOM      7  C   UNL A   1     -25.683  -0.777  27.683  0.00  0.00    +0.052 C 
BRANCH   7   8
ATOM      8  C   UNL A   1     -24.368  -0.250  27.792  0.00  0.00    -0.026 C 
ATOM      9  C   UNL A   1     -23.610  -0.566  28.954  0.00  0.00    -0.030 C 
ATOM     10  C   UNL A   1     -24.345  -0.829  30.102  0.00  0.00    +0.030 C 
ENDBRANCH   7   8
ENDBRANCH   3   7
TORSDOF 2
