MODEL 3485
MODEL 1
REMARK VINA RESULT:    -7.242      0.000      0.000
REMARK INTER + INTRA:          -9.633
REMARK INTER:                  -8.936
REMARK INTRA:                  -0.697
REMARK UNBOUND:                -0.697
REMARK  Name = No_3485-gen_results/8p0m/2024-11-27-11-27-31/
REMARK  4 active torsions:
REMARK  status: ('A' for Active; 'I' for Inactive)
REMARK    1  A    between atoms: C_2  and  C_7
REMARK    2  A    between atoms: C_7  and  N_8
REMARK    3  A    between atoms: C_7  and  C_9
REMARK    4  A    between atoms: N_8  and  C_13
REMARK                            x       y       z     vdW  Elec       q    Type
REMARK                         _______ _______ _______ _____ _____    ______ ____
ROOT
ATOM      1  C   UNL A   1     -24.247  -1.301  29.690  0.00  0.00    +0.192 C 
ENDROOT
BRANCH   1   3
ATOM      2  C   UNL A   1     -23.858  -3.267  28.861  0.00  0.00    -0.002 A 
ATOM      3  C   UNL A   1     -24.619  -2.818  29.435  0.00  0.00    +0.006 A 
ATOM      4  C   UNL A   1     -24.042  -4.741  28.577  0.00  0.00    -0.000 A 
ATOM      5  C   UNL A   1     -25.245  -5.373  28.957  0.00  0.00    -0.000 A 
ATOM      6  C   UNL A   1     -25.958  -3.229  29.913  0.00  0.00    -0.002 A 
ATOM      7  C   UNL A   1     -26.166  -4.579  29.665  0.00  0.00    -0.000 A 
ENDBRANCH   1   3
BRANCH   1   8
ATOM      8  C   UNL A   1     -24.611  -0.892  31.071  0.00  0.00    +0.265 C 
ATOM      9  O   UNL A   1     -25.451  -0.053  31.291  0.00  0.00    -0.271 OA
ATOM     10  N   UNL A   1     -23.822  -1.365  32.054  0.00  0.00    -0.202 NA
ATOM     11  C   UNL A   1     -24.005  -0.987  33.400  0.00  0.00    +0.139 C 
ENDBRANCH   1   8
BRANCH   1  12
ATOM     12  N   UNL A   1     -23.201  -0.775  29.306  0.00  0.00    -0.226 NA
BRANCH  12  13
ATOM     13  C   UNL A   1     -23.304   0.159  28.232  0.00  0.00    +0.066 A 
ATOM     14  C   UNL A   1     -24.131   0.337  27.526  0.00  0.00    +0.016 A 
ATOM     15  C   UNL A   1     -24.155   1.234  26.408  0.00  0.00    +0.001 A 
ATOM     16  C   UNL A   1     -23.057   2.053  26.176  0.00  0.00    +0.000 A 
ATOM     17  C   UNL A   1     -21.987   1.895  27.035  0.00  0.00    +0.001 A 
ATOM     18  C   UNL A   1     -22.016   0.999  28.016  0.00  0.00    +0.016 A 
ENDBRANCH  12  13
ENDBRANCH   1  12
TORSDOF 4
ENDMDL
ENDMDL
