REMARK  Name = outputs/IAG933/test6/raw/output_3485_IAG933_linker_design_.xyz
REMARK  11 active torsions:
REMARK  status: ('A' for Active; 'I' for Inactive)
REMARK    1  A    between atoms: C_1  and  C_2
REMARK    2  A    between atoms: C_1  and  C_8
REMARK    3  A    between atoms: C_1  and  N_40
REMARK    4  A    between atoms: C_21  and  O_22
REMARK    5  A    between atoms: O_22  and  C_23
REMARK    6  A    between atoms: C_23  and  C_24
REMARK    7  A    between atoms: C_31  and  O_44
REMARK    8  A    between atoms: C_33  and  N_40
REMARK    9  A    between atoms: C_33  and  C_41
REMARK   10  A    between atoms: C_34  and  C_42
REMARK   11  A    between atoms: C_34  and  O_44
REMARK                            x       y       z     vdW  Elec       q    Type
REMARK                         _______ _______ _______ _____ _____    ______ ____
ROOT
ATOM      1  C   UNL A   1     -25.688   1.614  26.461  0.00  0.00    +0.100 C 
ATOM      2  C   UNL A   1     -26.250   2.920  26.395  0.00  0.00    +0.055 C 
ATOM      3  C   UNL A   1     -25.642   4.093  27.123  0.00  0.00    +0.222 C 
ATOM      4  N   UNL A   1     -25.614   5.252  26.449  0.00  0.00    -0.236 NA
ATOM      5  C   UNL A   1     -25.026   6.479  26.963  0.00  0.00    +0.155 C 
ATOM      6  O   UNL A   1     -25.143   3.966  28.243  0.00  0.00    -0.414 OA
ATOM      7  C   UNL A   1     -27.438   3.091  25.645  0.00  0.00    +0.102 C 
ATOM      8  N   UNL A   1     -28.075   2.089  25.003  0.00  0.00    -0.212 NA
ATOM      9  C   UNL A   1     -27.543   0.849  25.079  0.00  0.00    +0.234 C 
ATOM     10  C   UNL A   1     -26.354   0.576  25.777  0.00  0.00    +0.242 C 
ATOM     11  F   UNL A   1     -25.860  -0.681  25.795  0.00  0.00    -0.227 F 
ATOM     12  O   UNL A   1     -24.146   2.161  29.235  0.00  0.00    -0.296 OA
ATOM     13  O   UNL A   1     -23.466   0.815  25.800  0.00  0.00    -0.326 OA
ATOM     14  C   UNL A   1     -25.189   3.265  29.372  0.00  0.00    +0.434 C 
ATOM     15  C   UNL A   1     -21.429   1.485  27.021  0.00  0.00    +0.071 C 
ATOM     16  F   UNL A   1     -22.413   2.862  25.403  0.00  0.00    -0.204 F 
ATOM     17  C   UNL A   1     -22.240   1.460  25.800  0.00  0.00    +0.279 C 
ATOM     18  C   UNL A   1     -24.431   1.426  26.826  0.00  0.00    +0.152 C 
ATOM     19  C   UNL A   1     -23.577   1.816  27.969  0.00  0.00    +0.150 C 
ATOM     20  C   UNL A   1     -22.331   0.975  28.169  0.00  0.00    +0.051 C 
ENDROOT
BRANCH   9  21
ATOM     21  O   UNL A   1     -28.193  -0.208  24.477  0.00  0.00    -0.459 OA
BRANCH  21  22
ATOM     22  C   UNL A   1     -29.460   0.005  23.866  0.00  0.00    +0.242 C 
BRANCH  22  23
ATOM     23  C   UNL A   1     -30.065  -1.377  23.573  0.00  0.00    +0.229 C 
ATOM     24  O   UNL A   1     -30.729  -1.878  24.721  0.00  0.00    -0.216 OA
ENDBRANCH  22  23
ENDBRANCH  21  22
ENDBRANCH   9  21
BRANCH  20  25
ATOM     25  C   UNL A   1     -22.730   0.136  29.463  0.00  0.00    +0.075 C 
BRANCH  25  27
ATOM     26  C   UNL A   1     -25.279  -0.035  28.274  0.00  0.00    +0.090 C 
ATOM     27  N   UNL A   1     -24.157  -0.232  29.220  0.00  0.00    -0.268 NA
BRANCH  27  28
ATOM     28  C   UNL A   1     -24.855  -1.012  30.143  0.00  0.00    +0.096 C 
BRANCH  28  29
ATOM     29  C   UNL A   1     -24.973  -2.505  29.788  0.00  0.00    -0.006 C 
ATOM     30  C   UNL A   1     -23.906  -3.173  29.146  0.00  0.00    -0.003 C 
ATOM     31  C   UNL A   1     -23.989  -4.549  28.853  0.00  0.00    -0.000 C 
ATOM     32  C   UNL A   1     -25.137  -5.280  29.205  0.00  0.00    -0.000 C 
ATOM     33  C   UNL A   1     -26.232  -4.611  29.784  0.00  0.00    -0.000 C 
ATOM     34  C   UNL A   1     -26.155  -3.232  30.065  0.00  0.00    -0.003 C 
ENDBRANCH  28  29
BRANCH  28  35
ATOM     35  C   UNL A   1     -25.387  -0.679  31.571  0.00  0.00    +0.092 C 
ATOM     36  C   UNL A   1     -25.189   0.773  32.028  0.00  0.00    +0.021 C 
ATOM     37  C   UNL A   1     -25.336   0.684  33.544  0.00  0.00    +0.020 C 
ATOM     38  C   UNL A   1     -24.829  -0.715  33.905  0.00  0.00    +0.089 C 
ATOM     39  N   UNL A   1     -24.758  -1.481  32.646  0.00  0.00    -0.218 NA
ENDBRANCH  28  35
ENDBRANCH  27  28
ENDBRANCH  25  27
ENDBRANCH  20  25
BRANCH  14  40
ATOM     40  O   UNL A   1     -25.164   3.992  30.501  0.00  0.00    -0.277 OA
BRANCH  40  41
ATOM     41  C   UNL A   1     -26.325   3.816  31.293  0.00  0.00    +0.245 C 
ATOM     42  N   UNL A   1     -26.004   4.093  32.689  0.00  0.00    -0.097 NA
BRANCH  41  44
ATOM     43  O   UNL A   1     -27.837   3.535  29.709  0.00  0.00    -0.216 OA
ATOM     44  C   UNL A   1     -27.633   4.398  30.796  0.00  0.00    +0.232 C 
ENDBRANCH  41  44
ENDBRANCH  40  41
ENDBRANCH  14  40
TORSDOF 11
