MODEL 3486
MODEL 1
REMARK VINA RESULT:    -7.366      0.000      0.000
REMARK INTER + INTRA:          -8.384
REMARK INTER:                  -7.797
REMARK INTRA:                  -0.587
REMARK UNBOUND:                -0.587
REMARK  Name = No_3486-gen_results/8p0m/2024-11-27-11-27-31/
REMARK  1 active torsions:
REMARK  status: ('A' for Active; 'I' for Inactive)
REMARK    1  A    between atoms: C_9  and  C_11
REMARK                            x       y       z     vdW  Elec       q    Type
REMARK                         _______ _______ _______ _____ _____    ______ ____
ROOT
ATOM      1  C   UNL A   1     -23.399  -0.378  30.091  0.00  0.00    +0.011 A 
ATOM      2  C   UNL A   1     -23.997  -0.258  29.047  0.00  0.00    +0.001 A 
ATOM      3  C   UNL A   1     -25.306  -0.707  28.914  0.00  0.00    +0.000 A 
ATOM      4  C   UNL A   1     -25.976  -1.372  30.002  0.00  0.00    +0.001 A 
ATOM      5  C   UNL A   1     -25.203  -1.490  31.164  0.00  0.00    +0.011 A 
ATOM      6  C   UNL A   1     -23.962  -1.063  31.233  0.00  0.00    +0.058 A 
ATOM      7  C   UNL A   1     -23.455   0.376  27.815  0.00  0.00    +0.000 A 
ATOM      8  C   UNL A   1     -24.188   1.007  26.967  0.00  0.00    +0.000 A 
ATOM      9  C   UNL A   1     -25.638   0.563  26.818  0.00  0.00    +0.000 A 
ATOM     10  C   UNL A   1     -26.202  -0.174  27.852  0.00  0.00    +0.000 A 
ATOM     11  C   UNL A   1     -22.007   0.744  27.876  0.00  0.00    +0.000 A 
ATOM     12  C   UNL A   1     -21.585   1.712  27.185  0.00  0.00    +0.000 A 
ATOM     13  C   UNL A   1     -22.400   2.295  26.101  0.00  0.00    +0.000 A 
ATOM     14  C   UNL A   1     -23.666   1.823  25.925  0.00  0.00    +0.000 A 
ATOM     15 CL   UNL A   1     -23.011  -1.390  32.619  0.00  0.00    -0.082 Cl
ENDROOT
BRANCH   9  16
ATOM     16  C   UNL A   1     -26.439   0.996  25.681  0.00  0.00    +0.000 A 
ATOM     17  C   UNL A   1     -26.937   0.025  24.803  0.00  0.00    +0.000 A 
ATOM     18  C   UNL A   1     -27.620   0.394  23.675  0.00  0.00    +0.000 A 
ATOM     19  C   UNL A   1     -28.221   1.716  23.943  0.00  0.00    +0.000 A 
ATOM     20  C   UNL A   1     -27.127   2.236  25.486  0.00  0.00    +0.000 A 
ATOM     21  C   UNL A   1     -27.833   2.642  24.673  0.00  0.00    +0.000 A 
ENDBRANCH   9  16
TORSDOF 1
ENDMDL
ENDMDL
