MODEL 3487
MODEL 1
REMARK VINA RESULT:    -4.433      0.000      0.000
REMARK INTER + INTRA:          -4.433
REMARK INTER:                  -4.433
REMARK INTRA:                   0.000
REMARK UNBOUND:                 0.000
REMARK  Name = No_3487-gen_results/8p0m/2024-11-27-11-27-31/
REMARK  0 active torsions:
REMARK  status: ('A' for Active; 'I' for Inactive)
REMARK                            x       y       z     vdW  Elec       q    Type
REMARK                         _______ _______ _______ _____ _____    ______ ____
ROOT
ATOM      1  C   UNL A   1      -9.219  -9.234  19.921  0.00  0.00    +0.011 A 
ATOM      2  C   UNL A   1      -8.362  -9.789  19.660  0.00  0.00    +0.058 A 
ATOM      3  C   UNL A   1     -10.348  -9.283  18.980  0.00  0.00    +0.001 A 
ATOM      4  C   UNL A   1     -10.316 -10.156  17.853  0.00  0.00    +0.000 A 
ATOM      5  C   UNL A   1      -8.095 -10.800  18.601  0.00  0.00    +0.011 A 
ATOM      6  C   UNL A   1      -9.117 -10.868  17.702  0.00  0.00    +0.001 A 
ATOM      7 CL   UNL A   1      -6.965  -9.751  20.816  0.00  0.00    -0.082 Cl
ENDROOT
TORSDOF 0
ENDMDL
ENDMDL
