MODEL 3488
MODEL 1
REMARK VINA RESULT:    -4.914      0.000      0.000
REMARK INTER + INTRA:          -5.276
REMARK INTER:                  -5.201
REMARK INTRA:                  -0.075
REMARK UNBOUND:                -0.075
REMARK  Name = No_3488-gen_results/8p0m/2024-11-27-11-27-31/
REMARK  1 active torsions:
REMARK  status: ('A' for Active; 'I' for Inactive)
REMARK    1  A    between atoms: C_2  and  C_7
REMARK                            x       y       z     vdW  Elec       q    Type
REMARK                         _______ _______ _______ _____ _____    ______ ____
ROOT
ATOM      1  C   UNL A   1     -23.930  -3.526  28.562  0.00  0.00    -0.000 A 
ATOM      2  C   UNL A   1     -24.743  -2.719  28.948  0.00  0.00    -0.000 A 
ATOM      3  C   UNL A   1     -25.930  -3.126  29.548  0.00  0.00    -0.000 A 
ATOM      4  C   UNL A   1     -26.249  -4.524  29.686  0.00  0.00    -0.000 A 
ATOM      5  C   UNL A   1     -25.264  -5.388  29.192  0.00  0.00    -0.000 A 
ATOM      6  C   UNL A   1     -24.165  -4.953  28.618  0.00  0.00    -0.000 A 
ENDROOT
BRANCH   2   7
ATOM      7  C   UNL A   1     -24.594  -1.242  28.862  0.00  0.00    -0.005 C 
ATOM      8  C   UNL A   1     -23.786  -0.571  29.604  0.00  0.00    -0.026 C 
ATOM      9  C   UNL A   1     -23.485  -1.119  30.995  0.00  0.00    +0.031 C 
ENDBRANCH   2   7
TORSDOF 1
ENDMDL
ENDMDL
