REMARK  Name = outputs/IAG933/test6/raw/output_3489_IAG933_linker_design_.xyz
REMARK  14 active torsions:
REMARK  status: ('A' for Active; 'I' for Inactive)
REMARK    1  A    between atoms: C_1  and  C_2
REMARK    2  A    between atoms: C_1  and  C_8
REMARK    3  A    between atoms: C_1  and  N_41
REMARK    4  A    between atoms: C_13  and  O_39
REMARK    5  A    between atoms: C_14  and  C_15
REMARK    6  A    between atoms: C_21  and  O_22
REMARK    7  A    between atoms: O_22  and  C_23
REMARK    8  A    between atoms: C_23  and  C_24
REMARK    9  A    between atoms: C_30  and  N_41
REMARK   10  A    between atoms: C_31  and  C_43
REMARK   11  A    between atoms: C_33  and  C_35
REMARK   12  A    between atoms: C_33  and  N_41
REMARK   13  A    between atoms: C_35  and  C_43
REMARK   14  A    between atoms: O_39  and  C_40
REMARK                            x       y       z     vdW  Elec       q    Type
REMARK                         _______ _______ _______ _____ _____    ______ ____
ROOT
ATOM      1  C   UNL A   1     -22.484  -0.003  29.183  0.00  0.00    +0.020 C 
ATOM      2  C   UNL A   1     -22.228   1.819  26.986  0.00  0.00    +0.068 C 
ATOM      3  C   UNL A   1     -23.677   0.462  28.553  0.00  0.00    +0.084 C 
ATOM      4  C   UNL A   1     -21.144   1.517  27.748  0.00  0.00    +0.143 C 
ATOM      5  C   UNL A   1     -23.486   1.283  27.355  0.00  0.00    +0.154 C 
ATOM      6  C   UNL A   1     -21.222   0.532  28.800  0.00  0.00    +0.031 C 
ATOM      7  F   UNL A   1     -20.003   2.158  27.453  0.00  0.00    -0.204 F 
ENDROOT
BRANCH   5   8
ATOM      8  O   UNL A   1     -24.437   1.554  26.455  0.00  0.00    -0.470 OA
BRANCH   8   9
ATOM      9  C   UNL A   1     -25.688   1.614  26.461  0.00  0.00    +0.235 C 
ATOM     10  C   UNL A   1     -26.250   2.920  26.395  0.00  0.00    +0.095 C 
ATOM     11  C   UNL A   1     -27.438   3.091  25.645  0.00  0.00    +0.106 C 
ATOM     12  N   UNL A   1     -28.075   2.089  25.003  0.00  0.00    -0.212 NA
ATOM     13  C   UNL A   1     -27.543   0.849  25.079  0.00  0.00    +0.238 C 
ATOM     14  C   UNL A   1     -26.354   0.576  25.777  0.00  0.00    +0.280 C 
ATOM     15  F   UNL A   1     -25.860  -0.681  25.795  0.00  0.00    -0.223 F 
BRANCH  10  16
ATOM     16  C   UNL A   1     -25.642   4.093  27.123  0.00  0.00    +0.266 C 
ATOM     17  N   UNL A   1     -25.614   5.252  26.449  0.00  0.00    -0.200 NA
ATOM     18  C   UNL A   1     -25.026   6.479  26.963  0.00  0.00    +0.139 C 
ATOM     19  O   UNL A   1     -25.143   3.966  28.243  0.00  0.00    -0.269 OA
ENDBRANCH  10  16
BRANCH  13  20
ATOM     20  O   UNL A   1     -28.193  -0.208  24.477  0.00  0.00    -0.458 OA
BRANCH  20  21
ATOM     21  C   UNL A   1     -29.460   0.005  23.866  0.00  0.00    +0.242 C 
BRANCH  21  22
ATOM     22  C   UNL A   1     -30.065  -1.377  23.573  0.00  0.00    +0.229 C 
ATOM     23  O   UNL A   1     -30.729  -1.878  24.721  0.00  0.00    -0.216 OA
ENDBRANCH  21  22
ENDBRANCH  20  21
ENDBRANCH  13  20
ENDBRANCH   8   9
ENDBRANCH   5   8
BRANCH   3  24
ATOM     24  N   UNL A   1     -25.065   0.127  29.140  0.00  0.00    -0.278 N 
BRANCH  24  25
ATOM     25  C   UNL A   1     -26.533   0.713  28.691  0.00  0.00    +0.229 C 
ATOM     26  O   UNL A   1     -27.531  -0.292  28.758  0.00  0.00    -0.201 OA
BRANCH  25  27
ATOM     27  C   UNL A   1     -27.213   1.907  29.479  0.00  0.00    +0.060 C 
BRANCH  27  28
ATOM     28  C   UNL A   1     -28.720   2.252  29.305  0.00  0.00    +0.072 C 
BRANCH  28  29
ATOM     29  C   UNL A   1     -29.065   3.713  28.943  0.00  0.00    +0.278 C 
ATOM     30  N   UNL A   1     -28.008   4.576  29.373  0.00  0.00    -0.083 NA
ATOM     31  N   UNL A   1     -29.458   3.972  27.549  0.00  0.00    -0.083 NA
ATOM     32  O   UNL A   1     -30.297   4.078  29.591  0.00  0.00    -0.186 OA
ENDBRANCH  28  29
ENDBRANCH  27  28
ENDBRANCH  25  27
ENDBRANCH  24  25
BRANCH  24  33
ATOM     33  C   UNL A   1     -24.855  -1.012  30.143  0.00  0.00    +0.114 C 
BRANCH  33  34
ATOM     34  C   UNL A   1     -24.973  -2.505  29.788  0.00  0.00    -0.003 C 
ATOM     35  C   UNL A   1     -23.906  -3.173  29.146  0.00  0.00    -0.003 C 
ATOM     36  C   UNL A   1     -23.989  -4.549  28.853  0.00  0.00    -0.000 C 
ATOM     37  C   UNL A   1     -25.137  -5.280  29.205  0.00  0.00    -0.000 C 
ATOM     38  C   UNL A   1     -26.232  -4.611  29.784  0.00  0.00    -0.000 C 
ATOM     39  C   UNL A   1     -26.155  -3.232  30.065  0.00  0.00    -0.003 C 
ENDBRANCH  33  34
BRANCH  33  40
ATOM     40  C   UNL A   1     -25.387  -0.679  31.571  0.00  0.00    +0.095 C 
ATOM     41  C   UNL A   1     -25.189   0.773  32.028  0.00  0.00    +0.021 C 
ATOM     42  C   UNL A   1     -25.336   0.684  33.544  0.00  0.00    +0.020 C 
ATOM     43  C   UNL A   1     -24.829  -0.715  33.905  0.00  0.00    +0.089 C 
ATOM     44  N   UNL A   1     -24.758  -1.481  32.646  0.00  0.00    -0.217 NA
ENDBRANCH  33  40
ENDBRANCH  24  33
ENDBRANCH   3  24
TORSDOF 14
