MODEL 348
MODEL 1
REMARK VINA RESULT:    -4.418      0.000      0.000
REMARK INTER + INTRA:          -4.418
REMARK INTER:                  -4.418
REMARK INTRA:                   0.000
REMARK UNBOUND:                 0.000
REMARK  Name = No_348-gen_results/8p0m/2024-11-27-11-27-31/
REMARK  0 active torsions:
REMARK  status: ('A' for Active; 'I' for Inactive)
REMARK                            x       y       z     vdW  Elec       q    Type
REMARK                         _______ _______ _______ _____ _____    ______ ____
ROOT
ATOM      1  C   UNL A   1     -25.407  -2.575  29.688  0.00  0.00    +0.011 A 
ATOM      2  C   UNL A   1     -24.319  -2.842  29.232  0.00  0.00    +0.058 A 
ATOM      3  C   UNL A   1     -23.992  -4.144  28.869  0.00  0.00    +0.011 A 
ATOM      4  C   UNL A   1     -24.923  -5.224  29.068  0.00  0.00    +0.001 A 
ATOM      5  C   UNL A   1     -25.981  -4.903  29.489  0.00  0.00    +0.000 A 
ATOM      6  C   UNL A   1     -26.378  -3.653  29.889  0.00  0.00    +0.001 A 
ATOM      7 CL   UNL A   1     -23.082  -1.669  29.018  0.00  0.00    -0.082 Cl
ENDROOT
TORSDOF 0
ENDMDL
ENDMDL
