REMARK  Name = No_349-gen_results/8p0m/2024-11-27-11-27-31/
REMARK  3 active torsions:
REMARK  status: ('A' for Active; 'I' for Inactive)
REMARK    1  A    between atoms: C_1  and  C_8
REMARK    2  A    between atoms: C_5  and  C_10
REMARK    3  A    between atoms: C_9  and  C_13
REMARK                            x       y       z     vdW  Elec       q    Type
REMARK                         _______ _______ _______ _____ _____    ______ ____
ROOT
ATOM      1  C   UNL A   1     -28.016  -0.814  28.878  0.00  0.00    -0.009 C 
ATOM      2  C   UNL A   1     -27.064  -0.119  28.608  0.00  0.00    -0.044 C 
ATOM      3  C   UNL A   1     -26.876   1.133  28.913  0.00  0.00    +0.023 C 
ATOM      4  C   UNL A   1     -25.688   1.952  28.567  0.00  0.00    +0.016 C 
ATOM      5  C   UNL A   1     -24.639   1.283  27.875  0.00  0.00    +0.104 C 
ATOM      6  C   UNL A   1     -24.807  -0.051  27.604  0.00  0.00    +0.016 C 
ATOM      7  C   UNL A   1     -25.902  -0.767  27.951  0.00  0.00    +0.023 C 
ENDROOT
BRANCH   5   8
ATOM      8  C   UNL A   1     -23.419   1.975  27.505  0.00  0.00    +0.364 C 
ATOM      9  O   UNL A   1     -23.291   2.709  26.652  0.00  0.00    -0.246 OA
ATOM     10  O   UNL A   1     -22.194   1.351  28.041  0.00  0.00    -0.246 OA
ENDBRANCH   5   8
BRANCH   1  11
ATOM     11  C   UNL A   1     -29.216  -0.118  29.181  0.00  0.00    -0.001 C 
ATOM     12  C   UNL A   1     -30.234  -0.791  29.815  0.00  0.00    -0.000 C 
BRANCH  12  13
ATOM     13  C   UNL A   1     -30.041  -2.122  30.218  0.00  0.00    -0.000 C 
ATOM     14  C   UNL A   1     -28.797  -2.720  30.280  0.00  0.00    -0.000 C 
ENDBRANCH  12  13
ENDBRANCH   1  11
TORSDOF 3
