MODEL 3490
MODEL 1
REMARK VINA RESULT:    -6.912      0.000      0.000
REMARK INTER + INTRA:         -11.146
REMARK INTER:                  -9.336
REMARK INTRA:                  -1.810
REMARK UNBOUND:                -1.810
REMARK  Name = No_3490-gen_results/8p0m/2024-11-27-11-27-31/
REMARK  6 active torsions:
REMARK  status: ('A' for Active; 'I' for Inactive)
REMARK    1  A    between atoms: C_1  and  C_2
REMARK    2  A    between atoms: C_5  and  C_9
REMARK    3  A    between atoms: N_8  and  C_13
REMARK    4  A    between atoms: C_13  and  C_15
REMARK    5  A    between atoms: C_17  and  C_18
REMARK    6  A    between atoms: C_22  and  C_26
REMARK                            x       y       z     vdW  Elec       q    Type
REMARK                         _______ _______ _______ _____ _____    ______ ____
ROOT
ATOM      1  C   UNL A   1     -30.548 -12.266  12.712  0.00  0.00    +0.272 C 
ATOM      2  O   UNL A   1     -30.978 -11.659  13.403  0.00  0.00    -0.268 OA
ATOM      3  N   UNL A   1     -30.370 -13.640  13.123  0.00  0.00    -0.137 NA
ATOM      4  C   UNL A   1     -29.800 -14.698  12.378  0.00  0.00    +0.272 C 
ATOM      5  O   UNL A   1     -28.892 -15.320  12.928  0.00  0.00    -0.268 OA
ENDROOT
BRANCH   1   9
ATOM      6  C   UNL A   1     -29.430 -11.559   8.583  0.00  0.00    +0.054 A 
ATOM      7  C   UNL A   1     -30.732 -11.718   8.931  0.00  0.00    +0.005 A 
ATOM      8  C   UNL A   1     -31.210 -11.951  10.312  0.00  0.00    +0.005 A 
ATOM      9  C   UNL A   1     -30.213 -12.033  11.339  0.00  0.00    +0.056 A 
ATOM     10  C   UNL A   1     -28.866 -11.934  10.926  0.00  0.00    +0.005 A 
ATOM     11  C   UNL A   1     -28.496 -11.718   9.624  0.00  0.00    +0.005 A 
BRANCH   6  12
ATOM     12  C   UNL A   1     -29.052 -11.371   7.450  0.00  0.00    +0.249 C 
ATOM     13  N   UNL A   1     -28.479 -10.071   7.104  0.00  0.00    -0.264 N 
ATOM     14  O   UNL A   1     -28.644 -12.278   6.660  0.00  0.00    -0.270 OA
ATOM     15  C   UNL A   1     -28.725  -8.885   7.967  0.00  0.00    +0.116 C 
BRANCH  13  16
ATOM     16  C   UNL A   1     -27.970  -9.687   5.791  0.00  0.00    +0.209 C 
BRANCH  16  17
ATOM     17  C   UNL A   1     -26.636  -9.291   5.881  0.00  0.00    +0.385 C 
ATOM     18  O   UNL A   1     -25.931 -10.316   6.077  0.00  0.00    -0.244 OA
ATOM     19  O   UNL A   1     -26.261  -8.330   5.331  0.00  0.00    -0.244 OA
ENDBRANCH  16  17
ENDBRANCH  13  16
ENDBRANCH   6  12
ENDBRANCH   1   9
BRANCH   4  20
ATOM     20  C   UNL A   1     -30.326 -14.981  11.165  0.00  0.00    +0.056 A 
ATOM     21  C   UNL A   1     -29.506 -15.226  10.017  0.00  0.00    +0.005 A 
ATOM     22  C   UNL A   1     -30.065 -15.525   8.787  0.00  0.00    +0.000 A 
ATOM     23  C   UNL A   1     -31.441 -15.510   8.540  0.00  0.00    +0.000 A 
ATOM     24  C   UNL A   1     -32.318 -15.369   9.700  0.00  0.00    +0.000 A 
ATOM     25  C   UNL A   1     -31.769 -15.124  10.922  0.00  0.00    +0.005 A 
BRANCH  24  26
ATOM     26  C   UNL A   1     -33.759 -15.534   9.442  0.00  0.00    +0.000 A 
ATOM     27  C   UNL A   1     -34.294 -16.049   8.342  0.00  0.00    +0.000 A 
ATOM     28  C   UNL A   1     -35.663 -16.178   8.126  0.00  0.00    +0.000 A 
ATOM     29  C   UNL A   1     -36.527 -15.744   9.126  0.00  0.00    +0.000 A 
ATOM     30  C   UNL A   1     -34.637 -15.385  10.639  0.00  0.00    +0.000 A 
ATOM     31  C   UNL A   1     -36.013 -15.465  10.432  0.00  0.00    +0.000 A 
ENDBRANCH  24  26
ENDBRANCH   4  20
TORSDOF 6
ENDMDL
ENDMDL
