MODEL 3491
MODEL 1
REMARK VINA RESULT:    -7.086      0.000      0.000
REMARK INTER + INTRA:          -9.281
REMARK INTER:                  -8.743
REMARK INTRA:                  -0.538
REMARK UNBOUND:                -0.538
REMARK  Name = No_3491-gen_results/8p0m/2024-11-27-11-27-31/
REMARK  4 active torsions:
REMARK  status: ('A' for Active; 'I' for Inactive)
REMARK    1  A    between atoms: C_2  and  C_7
REMARK    2  A    between atoms: C_4  and  C_14
REMARK    3  A    between atoms: C_7  and  C_8
REMARK    4  A    between atoms: C_8  and  C_9
REMARK                            x       y       z     vdW  Elec       q    Type
REMARK                         _______ _______ _______ _____ _____    ______ ____
ROOT
ATOM      1  C   UNL A   1     -23.083   1.321  27.824  0.00  0.00    -0.004 A 
ATOM      2  C   UNL A   1     -23.751   0.323  27.965  0.00  0.00    -0.022 A 
ATOM      3  C   UNL A   1     -24.571  -0.181  27.008  0.00  0.00    -0.004 A 
ATOM      4  C   UNL A   1     -24.654   0.492  25.775  0.00  0.00    -0.001 A 
ATOM      5  C   UNL A   1     -23.045   2.006  26.556  0.00  0.00    -0.000 A 
ATOM      6  C   UNL A   1     -23.873   1.556  25.572  0.00  0.00    -0.000 A 
ENDROOT
BRANCH   4   7
ATOM      7  C   UNL A   1     -25.601  -0.022  24.730  0.00  0.00    -0.005 C 
ATOM      8  C   UNL A   1     -26.710   0.638  24.535  0.00  0.00    -0.026 C 
ATOM      9  C   UNL A   1     -27.138   1.640  25.528  0.00  0.00    +0.031 C 
ENDBRANCH   4   7
BRANCH   2  10
ATOM     10  C   UNL A   1     -23.733  -0.504  29.243  0.00  0.00    +0.031 C 
BRANCH  10  11
ATOM     11  C   UNL A   1     -23.368  -1.953  29.038  0.00  0.00    +0.027 C 
BRANCH  11  12
ATOM     12  C   UNL A   1     -24.140  -2.919  29.255  0.00  0.00    -0.040 C 
ATOM     13  C   UNL A   1     -23.947  -4.177  28.641  0.00  0.00    -0.009 C 
ATOM     14  C   UNL A   1     -24.795  -5.270  28.888  0.00  0.00    -0.005 C 
ATOM     15  C   UNL A   1     -25.949  -4.773  29.528  0.00  0.00    -0.022 C 
ATOM     16  C   UNL A   1     -25.486  -3.106  29.890  0.00  0.00    +0.048 C 
ENDBRANCH  11  12
ENDBRANCH  10  11
ENDBRANCH   2  10
TORSDOF 4
ENDMDL
ENDMDL
