REMARK  Name = No_3492-gen_results/8p0m/2024-11-27-11-27-31/
REMARK  0 active torsions:
REMARK  status: ('A' for Active; 'I' for Inactive)
REMARK                            x       y       z     vdW  Elec       q    Type
REMARK                         _______ _______ _______ _____ _____    ______ ____
ROOT
ATOM      1  C   UNL A   1     -28.016  -0.814  28.878  0.00  0.00    +0.000 A 
ATOM      2  C   UNL A   1     -27.064  -0.119  28.608  0.00  0.00    +0.000 A 
ATOM      3  C   UNL A   1     -25.792  -0.430  29.076  0.00  0.00    +0.000 A 
ATOM      4  C   UNL A   1     -24.546   0.349  28.823  0.00  0.00    +0.003 A 
ATOM      5  C   UNL A   1     -24.659   1.420  27.888  0.00  0.00    +0.019 A 
ATOM      6  C   UNL A   1     -25.947   1.681  27.379  0.00  0.00    +0.002 A 
ATOM      7  C   UNL A   1     -27.044   0.974  27.687  0.00  0.00    +0.000 A 
ATOM      8  C   UNL A   1     -28.024  -1.647  30.126  0.00  0.00    +0.000 A 
ATOM      9  C   UNL A   1     -26.728  -2.085  30.581  0.00  0.00    +0.000 A 
ATOM     10  C   UNL A   1     -25.591  -1.406  30.149  0.00  0.00    +0.000 A 
ATOM     11  C   UNL A   1     -23.450   2.179  27.529  0.00  0.00    +0.099 A 
ATOM     12  N   UNL A   1     -22.263   1.755  27.933  0.00  0.00    -0.242 NA
ATOM     13  C   UNL A   1     -22.134   0.720  28.800  0.00  0.00    +0.099 A 
ATOM     14  C   UNL A   1     -23.239  -0.060  29.205  0.00  0.00    +0.021 A 
ENDROOT
TORSDOF 0
