REMARK  Name = outputs/IAG933/test6/raw/output_3494_IAG933_linker_design_.xyz
REMARK  15 active torsions:
REMARK  status: ('A' for Active; 'I' for Inactive)
REMARK    1  A    between atoms: C_1  and  C_2
REMARK    2  A    between atoms: C_1  and  C_8
REMARK    3  A    between atoms: C_9  and  C_33
REMARK    4  A    between atoms: C_13  and  C_39
REMARK    5  A    between atoms: C_14  and  C_15
REMARK    6  A    between atoms: C_21  and  O_22
REMARK    7  A    between atoms: O_22  and  C_23
REMARK    8  A    between atoms: C_23  and  C_24
REMARK    9  A    between atoms: N_28  and  C_32
REMARK   10  A    between atoms: N_28  and  C_33
REMARK   11  A    between atoms: C_30  and  C_32
REMARK   12  A    between atoms: C_30  and  C_38
REMARK   13  A    between atoms: C_33  and  C_40
REMARK   14  A    between atoms: N_34  and  C_44
REMARK   15  A    between atoms: C_38  and  C_39
REMARK                            x       y       z     vdW  Elec       q    Type
REMARK                         _______ _______ _______ _____ _____    ______ ____
ROOT
ATOM      1  C   UNL A   1     -24.835   1.940  31.317  0.00  0.00    +0.152 C 
ENDROOT
BRANCH   1   3
ATOM      2  C   UNL A   1     -25.387  -0.679  31.571  0.00  0.00    +0.079 C 
ATOM      3  C   UNL A   1     -25.189   0.773  32.028  0.00  0.00    +0.043 C 
ATOM      4  C   UNL A   1     -25.336   0.684  33.544  0.00  0.00    +0.022 C 
ATOM      5  C   UNL A   1     -24.829  -0.715  33.905  0.00  0.00    +0.089 C 
ATOM      6  N   UNL A   1     -24.758  -1.481  32.646  0.00  0.00    -0.219 NA
BRANCH   2   7
ATOM      7  C   UNL A   1     -24.855  -1.012  30.143  0.00  0.00    +0.044 C 
BRANCH   7   8
ATOM      8  C   UNL A   1     -24.973  -2.505  29.788  0.00  0.00    -0.021 C 
ATOM      9  C   UNL A   1     -23.906  -3.173  29.146  0.00  0.00    -0.004 C 
ATOM     10  C   UNL A   1     -23.989  -4.549  28.853  0.00  0.00    -0.000 C 
ATOM     11  C   UNL A   1     -25.137  -5.280  29.205  0.00  0.00    -0.000 C 
ATOM     12  C   UNL A   1     -26.232  -4.611  29.784  0.00  0.00    -0.000 C 
ATOM     13  C   UNL A   1     -26.155  -3.232  30.065  0.00  0.00    -0.004 C 
ENDBRANCH   7   8
ENDBRANCH   2   7
ENDBRANCH   1   3
BRANCH   1  15
ATOM     14  N   UNL A   1     -24.622   3.961  32.470  0.00  0.00    -0.178 NA
ATOM     15  C   UNL A   1     -25.504   3.220  31.871  0.00  0.00    +0.261 C 
ATOM     16  O   UNL A   1     -26.712   3.365  31.781  0.00  0.00    -0.272 OA
BRANCH  14  23
ATOM     17  C   UNL A   1     -23.548   7.227  33.655  0.00  0.00    +0.001 C 
ATOM     18  C   UNL A   1     -27.008   4.920  34.148  0.00  0.00    +0.032 C 
ATOM     19  C   UNL A   1     -25.552   6.752  34.922  0.00  0.00    -0.003 C 
ATOM     20  C   UNL A   1     -24.532   7.538  34.728  0.00  0.00    -0.000 C 
ATOM     21  C   UNL A   1     -23.646   6.082  32.943  0.00  0.00    +0.016 C 
ATOM     22  C   UNL A   1     -25.677   5.559  34.105  0.00  0.00    -0.006 C 
ATOM     23  C   UNL A   1     -24.725   5.106  33.149  0.00  0.00    +0.069 C 
ENDBRANCH  14  23
ENDBRANCH   1  15
BRANCH   1  24
ATOM     24  N   UNL A   1     -24.012   2.079  30.210  0.00  0.00    -0.210 NA
BRANCH  24  25
ATOM     25  C   UNL A   1     -23.094   1.218  29.772  0.00  0.00    +0.089 C 
BRANCH  25  26
ATOM     26  C   UNL A   1     -23.336   1.667  28.945  0.00  0.00    +0.019 C 
BRANCH  26  28
ATOM     27  C   UNL A   1     -21.483   1.604  27.144  0.00  0.00    +0.000 C 
ATOM     28  C   UNL A   1     -23.081   1.854  27.250  0.00  0.00    +0.006 C 
BRANCH  28  29
ATOM     29  C   UNL A   1     -24.413   1.087  26.799  0.00  0.00    +0.029 C 
BRANCH  29  30
ATOM     30  C   UNL A   1     -25.688   1.614  26.461  0.00  0.00    +0.016 C 
ATOM     31  C   UNL A   1     -26.250   2.920  26.395  0.00  0.00    +0.073 C 
ATOM     32  C   UNL A   1     -27.438   3.091  25.645  0.00  0.00    +0.106 C 
ATOM     33  N   UNL A   1     -28.075   2.089  25.003  0.00  0.00    -0.208 NA
ATOM     34  C   UNL A   1     -27.543   0.849  25.079  0.00  0.00    +0.253 C 
ATOM     35  C   UNL A   1     -26.354   0.576  25.777  0.00  0.00    +0.189 C 
ATOM     36  F   UNL A   1     -25.860  -0.681  25.795  0.00  0.00    -0.200 F 
BRANCH  31  37
ATOM     37  C   UNL A   1     -25.642   4.093  27.123  0.00  0.00    +0.266 C 
ATOM     38  N   UNL A   1     -25.614   5.252  26.449  0.00  0.00    -0.200 NA
ATOM     39  C   UNL A   1     -25.026   6.479  26.963  0.00  0.00    +0.139 C 
ATOM     40  O   UNL A   1     -25.143   3.966  28.243  0.00  0.00    -0.268 OA
ENDBRANCH  31  37
BRANCH  34  41
ATOM     41  O   UNL A   1     -28.193  -0.208  24.477  0.00  0.00    -0.456 OA
BRANCH  41  42
ATOM     42  C   UNL A   1     -29.460   0.005  23.866  0.00  0.00    +0.243 C 
BRANCH  42  43
ATOM     43  C   UNL A   1     -30.065  -1.377  23.573  0.00  0.00    +0.229 C 
ATOM     44  O   UNL A   1     -30.729  -1.878  24.721  0.00  0.00    -0.216 OA
ENDBRANCH  42  43
ENDBRANCH  41  42
ENDBRANCH  34  41
ENDBRANCH  29  30
ENDBRANCH  28  29
ENDBRANCH  26  28
ENDBRANCH  25  26
ENDBRANCH  24  25
ENDBRANCH   1  24
TORSDOF 15
