MODEL 3494
MODEL 1
REMARK VINA RESULT:    -7.561      0.000      0.000
REMARK INTER + INTRA:         -11.158
REMARK INTER:                  -9.771
REMARK INTRA:                  -1.387
REMARK UNBOUND:                -1.387
REMARK  Name = No_3494-gen_results/8p0m/2024-11-27-11-27-31/
REMARK  5 active torsions:
REMARK  status: ('A' for Active; 'I' for Inactive)
REMARK    1  A    between atoms: C_3  and  C_6
REMARK    2  A    between atoms: C_10  and  C_17
REMARK    3  A    between atoms: C_17  and  O_18
REMARK    4  A    between atoms: O_18  and  C_20
REMARK    5  A    between atoms: C_20  and  C_21
REMARK                            x       y       z     vdW  Elec       q    Type
REMARK                         _______ _______ _______ _____ _____    ______ ____
ROOT
ATOM      1  F   UNL A   1     -16.328   4.035  36.062  0.00  0.00    -0.204 F 
ATOM      2  C   UNL A   1     -15.366   3.433  36.220  0.00  0.00    +0.144 A 
ATOM      3  C   UNL A   1     -14.903   3.087  37.335  0.00  0.00    +0.099 A 
ATOM      4  C   UNL A   1     -14.635   3.057  34.924  0.00  0.00    +0.030 A 
ATOM      5  C   UNL A   1     -13.380   2.341  35.039  0.00  0.00    +0.006 A 
ATOM      6  C   UNL A   1     -12.679   1.953  33.822  0.00  0.00    +0.042 A 
ATOM      7  C   UNL A   1     -11.317   1.552  33.930  0.00  0.00    +0.196 A 
ATOM      8  C   UNL A   1     -10.646   1.891  35.168  0.00  0.00    +0.049 A 
ATOM      9  C   UNL A   1     -11.282   2.365  36.220  0.00  0.00    +0.079 A 
ATOM     10  C   UNL A   1     -12.610   2.701  36.168  0.00  0.00    +0.006 A 
ATOM     11  C   UNL A   1     -13.390   2.998  37.429  0.00  0.00    +0.006 A 
ATOM     12  O   UNL A   1     -10.663   1.062  32.881  0.00  0.00    -0.287 OA
ENDROOT
BRANCH   3  13
ATOM     13  C   UNL A   1     -15.534   3.429  38.532  0.00  0.00    +0.421 C 
ATOM     14  F   UNL A   1     -15.535   4.564  38.725  0.00  0.00    -0.166 F 
ATOM     15  F   UNL A   1     -14.973   2.777  39.596  0.00  0.00    -0.166 F 
ATOM     16  F   UNL A   1     -16.802   2.955  38.412  0.00  0.00    -0.166 F 
ENDBRANCH   3  13
BRANCH   9  17
ATOM     17  C   UNL A   1     -10.402   2.518  37.471  0.00  0.00    +0.348 C 
ATOM     18  O   UNL A   1      -9.647   3.614  37.411  0.00  0.00    -0.244 OA
BRANCH  17  19
ATOM     19  O   UNL A   1     -10.341   1.761  38.339  0.00  0.00    -0.386 OA
BRANCH  19  20
ATOM     20  C   UNL A   1      -9.759   0.456  38.216  0.00  0.00    +0.348 C 
ATOM     21  O   UNL A   1      -8.536   0.334  38.373  0.00  0.00    -0.244 OA
BRANCH  20  22
ATOM     22  C   UNL A   1     -10.556  -0.621  38.193  0.00  0.00    +0.076 A 
ATOM     23  C   UNL A   1     -10.784  -1.437  37.460  0.00  0.00    +0.006 A 
ATOM     24  C   UNL A   1     -11.701  -2.615  37.577  0.00  0.00    +0.000 A 
ATOM     25  C   UNL A   1     -12.384  -2.729  38.816  0.00  0.00    +0.000 A 
ATOM     26  C   UNL A   1     -12.180  -1.740  39.817  0.00  0.00    +0.000 A 
ATOM     27  C   UNL A   1     -11.252  -0.691  39.565  0.00  0.00    +0.006 A 
ENDBRANCH  20  22
ENDBRANCH  19  20
ENDBRANCH  17  19
ENDBRANCH   9  17
TORSDOF 5
ENDMDL
ENDMDL
