REMARK  Name = outputs/IAG933/test6/raw/output_3495_IAG933_linker_design_.xyz
REMARK  10 active torsions:
REMARK  status: ('A' for Active; 'I' for Inactive)
REMARK    1  A    between atoms: C_1  and  C_2
REMARK    2  A    between atoms: C_1  and  C_8
REMARK    3  A    between atoms: C_1  and  C_33
REMARK    4  A    between atoms: C_13  and  N_29
REMARK    5  A    between atoms: C_14  and  C_15
REMARK    6  A    between atoms: C_21  and  O_22
REMARK    7  A    between atoms: O_22  and  C_23
REMARK    8  A    between atoms: C_23  and  C_24
REMARK    9  A    between atoms: C_28  and  N_37
REMARK   10  A    between atoms: N_29  and  C_36
REMARK                            x       y       z     vdW  Elec       q    Type
REMARK                         _______ _______ _______ _____ _____    ______ ____
ROOT
ATOM      1  C   UNL A   1     -23.461   1.129  28.340  0.00  0.00    +0.149 C 
ATOM      2  N   UNL A   1     -21.984  -0.320  29.817  0.00  0.00    -0.112 NA
ATOM      3  F   UNL A   1     -21.287   2.470  26.087  0.00  0.00    -0.216 F 
ATOM      4  C   UNL A   1     -22.221   0.578  28.712  0.00  0.00    +0.188 C 
ATOM      5  C   UNL A   1     -21.818   1.710  26.946  0.00  0.00    +0.254 C 
ATOM      6  C   UNL A   1     -23.339   1.522  27.207  0.00  0.00    +0.145 C 
ATOM      7  N   UNL A   1     -21.208   1.034  27.905  0.00  0.00    -0.167 NA
ENDROOT
BRANCH   1  10
ATOM      8  C   UNL A   1     -25.255   0.051  29.194  0.00  0.00    +0.246 C 
ATOM      9  O   UNL A   1     -26.317   0.005  28.631  0.00  0.00    -0.273 OA
ATOM     10  N   UNL A   1     -24.498   1.140  29.179  0.00  0.00    -0.202 NA
BRANCH   8  11
ATOM     11  C   UNL A   1     -24.855  -1.012  30.143  0.00  0.00    +0.116 C 
BRANCH  11  12
ATOM     12  C   UNL A   1     -24.973  -2.505  29.788  0.00  0.00    -0.013 C 
ATOM     13  C   UNL A   1     -23.906  -3.173  29.146  0.00  0.00    -0.004 C 
ATOM     14  C   UNL A   1     -23.989  -4.549  28.853  0.00  0.00    -0.000 C 
ATOM     15  C   UNL A   1     -25.137  -5.280  29.205  0.00  0.00    -0.000 C 
ATOM     16  C   UNL A   1     -26.232  -4.611  29.784  0.00  0.00    -0.000 C 
ATOM     17  C   UNL A   1     -26.155  -3.232  30.065  0.00  0.00    -0.004 C 
ENDBRANCH  11  12
BRANCH  11  18
ATOM     18  C   UNL A   1     -25.387  -0.679  31.571  0.00  0.00    +0.086 C 
ATOM     19  C   UNL A   1     -25.189   0.773  32.028  0.00  0.00    +0.020 C 
ATOM     20  C   UNL A   1     -25.336   0.684  33.544  0.00  0.00    +0.020 C 
ATOM     21  C   UNL A   1     -24.829  -0.715  33.905  0.00  0.00    +0.089 C 
ATOM     22  N   UNL A   1     -24.758  -1.481  32.646  0.00  0.00    -0.219 NA
ENDBRANCH  11  18
ENDBRANCH   8  11
ENDBRANCH   1  10
BRANCH   6  23
ATOM     23  N   UNL A   1     -24.447   1.405  26.821  0.00  0.00    -0.207 NA
BRANCH  23  24
ATOM     24  C   UNL A   1     -25.688   1.614  26.461  0.00  0.00    +0.143 C 
ATOM     25  C   UNL A   1     -26.250   2.920  26.395  0.00  0.00    +0.071 C 
ATOM     26  C   UNL A   1     -27.438   3.091  25.645  0.00  0.00    +0.103 C 
ATOM     27  N   UNL A   1     -28.075   2.089  25.003  0.00  0.00    -0.212 NA
ATOM     28  C   UNL A   1     -27.543   0.849  25.079  0.00  0.00    +0.236 C 
ATOM     29  C   UNL A   1     -26.354   0.576  25.777  0.00  0.00    +0.256 C 
ATOM     30  F   UNL A   1     -25.860  -0.681  25.795  0.00  0.00    -0.225 F 
BRANCH  25  31
ATOM     31  C   UNL A   1     -25.642   4.093  27.123  0.00  0.00    +0.264 C 
ATOM     32  N   UNL A   1     -25.614   5.252  26.449  0.00  0.00    -0.200 NA
ATOM     33  C   UNL A   1     -25.026   6.479  26.963  0.00  0.00    +0.139 C 
ATOM     34  O   UNL A   1     -25.143   3.966  28.243  0.00  0.00    -0.269 OA
ENDBRANCH  25  31
BRANCH  28  35
ATOM     35  O   UNL A   1     -28.193  -0.208  24.477  0.00  0.00    -0.459 OA
BRANCH  35  36
ATOM     36  C   UNL A   1     -29.460   0.005  23.866  0.00  0.00    +0.242 C 
BRANCH  36  37
ATOM     37  C   UNL A   1     -30.065  -1.377  23.573  0.00  0.00    +0.229 C 
ATOM     38  O   UNL A   1     -30.729  -1.878  24.721  0.00  0.00    -0.216 OA
ENDBRANCH  36  37
ENDBRANCH  35  36
ENDBRANCH  28  35
ENDBRANCH  23  24
ENDBRANCH   6  23
TORSDOF 10
