MODEL 3495
MODEL 1
REMARK VINA RESULT:    -7.876      0.000      0.000
REMARK INTER + INTRA:          -9.587
REMARK INTER:                  -8.796
REMARK INTRA:                  -0.790
REMARK UNBOUND:                -0.790
REMARK  Name = No_3495-gen_results/8p0m/2024-11-27-11-27-31/
REMARK  2 active torsions:
REMARK  status: ('A' for Active; 'I' for Inactive)
REMARK    1  A    between atoms: C_3  and  C_17
REMARK    2  A    between atoms: C_12  and  C_23
REMARK                            x       y       z     vdW  Elec       q    Type
REMARK                         _______ _______ _______ _____ _____    ______ ____
ROOT
ATOM      1  C   UNL A   1      -8.671   2.448   9.708  0.00  0.00    +0.005 A 
ATOM      2  C   UNL A   1      -8.248   1.517   9.961  0.00  0.00    +0.050 A 
ATOM      3  C   UNL A   1      -9.684   2.991  10.691  0.00  0.00    +0.036 A 
ATOM      4  C   UNL A   1      -9.888   2.319  11.915  0.00  0.00    +0.138 A 
ATOM      5  C   UNL A   1      -8.261   0.646  11.159  0.00  0.00    -0.014 A 
ATOM      6  C   UNL A   1      -9.177   1.117  12.089  0.00  0.00    +0.025 A 
ATOM      7  F   UNL A   1     -10.751   2.722  12.739  0.00  0.00    -0.204 F 
ATOM      8  C   UNL A   1      -7.143   0.926   8.923  0.00  0.00    +0.249 C 
ATOM      9  O   UNL A   1      -7.284   1.312   7.920  0.00  0.00    -0.270 OA
ATOM     10  N   UNL A   1      -6.164   0.064   9.335  0.00  0.00    -0.277 N 
ATOM     11  C   UNL A   1      -5.214  -0.407   8.365  0.00  0.00    +0.098 C 
ATOM     12  C   UNL A   1      -4.199  -0.908   8.842  0.00  0.00    +0.042 C 
ATOM     13  C   UNL A   1      -4.011  -1.245  10.252  0.00  0.00    +0.008 C 
ATOM     14  C   UNL A   1      -4.965  -0.759  11.164  0.00  0.00    +0.021 C 
ATOM     15  C   UNL A   1      -5.950  -0.038  10.738  0.00  0.00    +0.080 C 
ATOM     16  C   UNL A   1      -7.276  -0.157  11.546  0.00  0.00    +0.046 C 
ENDROOT
BRANCH   3  17
ATOM     17  C   UNL A   1     -10.554   4.179  10.415  0.00  0.00    +0.161 C 
ATOM     18  C   UNL A   1     -10.878   4.452   9.042  0.00  0.00    +0.003 C 
ATOM     19  C   UNL A   1     -10.709   5.612   8.524  0.00  0.00    -0.025 C 
ATOM     20  C   UNL A   1     -10.133   6.692   9.278  0.00  0.00    +0.058 C 
ATOM     21  C   UNL A   1      -9.702   6.632  10.424  0.00  0.00    +0.148 C 
ATOM     22  O   UNL A   1     -10.289   5.216  11.222  0.00  0.00    -0.347 OA
ENDBRANCH   3  17
BRANCH  12  23
ATOM     23  C   UNL A   1      -3.117  -1.433   7.936  0.00  0.00    -0.021 A 
ATOM     24  C   UNL A   1      -2.482  -2.453   8.332  0.00  0.00    -0.004 A 
ATOM     25  C   UNL A   1      -1.381  -2.954   7.649  0.00  0.00    -0.000 A 
ATOM     26  C   UNL A   1      -2.813  -0.753   6.767  0.00  0.00    -0.004 A 
ATOM     27  C   UNL A   1      -1.752  -1.215   5.986  0.00  0.00    -0.000 A 
ATOM     28  C   UNL A   1      -1.049  -2.303   6.416  0.00  0.00    -0.000 A 
ENDBRANCH  12  23
TORSDOF 2
ENDMDL
ENDMDL
