MODEL 3496
MODEL 1
REMARK VINA RESULT:    -6.915      0.000      0.000
REMARK INTER + INTRA:         -12.208
REMARK INTER:                 -10.553
REMARK INTRA:                  -1.655
REMARK UNBOUND:                -1.655
REMARK  Name = No_3496-gen_results/8p0m/2024-11-27-11-27-31/
REMARK  9 active torsions:
REMARK  status: ('A' for Active; 'I' for Inactive)
REMARK    1  A    between atoms: C_1  and  C_2
REMARK    2  A    between atoms: C_4  and  C_17
REMARK    3  A    between atoms: N_8  and  C_10
REMARK    4  A    between atoms: C_10  and  C_12
REMARK    5  A    between atoms: C_17  and  C_18
REMARK    6  A    between atoms: C_17  and  C_19
REMARK    7  A    between atoms: C_18  and  C_20
REMARK    8  A    between atoms: C_19  and  C_21
REMARK    9  A    between atoms: C_21  and  C_24
REMARK                            x       y       z     vdW  Elec       q    Type
REMARK                         _______ _______ _______ _____ _____    ______ ____
ROOT
ATOM      1  C   UNL A   1     -25.002  -0.104  32.764  0.00  0.00    +0.055 A 
ATOM      2  C   UNL A   1     -24.117   0.036  31.701  0.00  0.00    +0.001 A 
ATOM      3  C   UNL A   1     -24.404   0.702  30.398  0.00  0.00    -0.016 A 
ATOM      4  C   UNL A   1     -25.759   1.088  30.180  0.00  0.00    +0.031 A 
ATOM      5  C   UNL A   1     -26.654   0.882  31.249  0.00  0.00    +0.006 A 
ATOM      6  C   UNL A   1     -26.323   0.323  32.422  0.00  0.00    +0.005 A 
ATOM      7 BR   UNL A   1     -26.185   1.881  28.564  0.00  0.00    -0.049 Br
ENDROOT
BRANCH   1   8
ATOM      8  C   UNL A   1     -24.668  -0.656  33.787  0.00  0.00    +0.265 C 
ATOM      9  N   UNL A   1     -25.394  -0.460  34.988  0.00  0.00    -0.192 NA
ATOM     10  O   UNL A   1     -23.747  -1.456  33.886  0.00  0.00    -0.268 OA
BRANCH   9  11
ATOM     11  C   UNL A   1     -25.129  -1.109  36.271  0.00  0.00    +0.200 C 
BRANCH  11  12
ATOM     12  C   UNL A   1     -26.002  -0.628  37.213  0.00  0.00    +0.248 C 
ATOM     13  O   UNL A   1     -25.987   0.394  37.605  0.00  0.00    -0.273 OA
ATOM     14  N   UNL A   1     -26.878  -1.655  37.709  0.00  0.00    -0.275 N 
ATOM     15  C   UNL A   1     -27.930  -1.267  38.715  0.00  0.00    +0.115 C 
ATOM     16  C   UNL A   1     -26.903  -2.994  37.278  0.00  0.00    +0.115 C 
ENDBRANCH  11  12
ENDBRANCH   9  11
ENDBRANCH   1   8
BRANCH   3  17
ATOM     17  C   UNL A   1     -23.566   0.803  29.186  0.00  0.00    +0.029 C 
BRANCH  17  18
ATOM     18  C   UNL A   1     -22.914   1.729  28.643  0.00  0.00    +0.077 C 
BRANCH  18  19
ATOM     19  C   UNL A   1     -22.050   1.476  27.517  0.00  0.00    +0.319 C 
ATOM     20  F   UNL A   1     -20.899   1.077  27.646  0.00  0.00    -0.198 F 
ATOM     21  F   UNL A   1     -22.546   1.786  26.334  0.00  0.00    -0.198 F 
ENDBRANCH  18  19
ENDBRANCH  17  18
BRANCH  17  22
ATOM     22  C   UNL A   1     -23.786  -0.529  28.414  0.00  0.00    +0.009 C 
BRANCH  22  23
ATOM     23  C   UNL A   1     -23.408  -1.784  28.923  0.00  0.00    +0.027 C 
BRANCH  23  24
ATOM     24  C   UNL A   1     -24.302  -2.801  29.120  0.00  0.00    -0.022 A 
ATOM     25  C   UNL A   1     -25.640  -2.544  29.581  0.00  0.00    -0.004 A 
ATOM     26  C   UNL A   1     -26.534  -3.580  29.915  0.00  0.00    -0.000 A 
ATOM     27  C   UNL A   1     -26.162  -4.918  29.539  0.00  0.00    -0.000 A 
ATOM     28  C   UNL A   1     -24.889  -5.184  29.019  0.00  0.00    -0.000 A 
ATOM     29  C   UNL A   1     -23.999  -4.157  28.768  0.00  0.00    -0.004 A 
ENDBRANCH  23  24
ENDBRANCH  22  23
ENDBRANCH  17  22
ENDBRANCH   3  17
TORSDOF 9
ENDMDL
ENDMDL
