REMARK  Name = outputs/IAG933/test6/raw/output_3496_IAG933_linker_design_.xyz
REMARK  12 active torsions:
REMARK  status: ('A' for Active; 'I' for Inactive)
REMARK    1  A    between atoms: C_1  and  C_2
REMARK    2  A    between atoms: C_1  and  C_8
REMARK    3  A    between atoms: C_1  and  C_37
REMARK    4  A    between atoms: C_13  and  C_36
REMARK    5  A    between atoms: C_14  and  C_15
REMARK    6  A    between atoms: C_21  and  O_22
REMARK    7  A    between atoms: O_22  and  C_23
REMARK    8  A    between atoms: C_23  and  C_24
REMARK    9  A    between atoms: O_31  and  C_37
REMARK   10  A    between atoms: O_31  and  C_41
REMARK   11  A    between atoms: C_37  and  C_44
REMARK   12  A    between atoms: C_41  and  C_42
REMARK                            x       y       z     vdW  Elec       q    Type
REMARK                         _______ _______ _______ _____ _____    ______ ____
ROOT
ATOM      1  C   UNL A   1     -23.316   1.721  26.443  0.00  0.00    +0.146 C 
ATOM      2  F   UNL A   1     -23.393   2.021  25.138  0.00  0.00    -0.206 F 
ATOM      3  C   UNL A   1     -22.053   0.561  29.021  0.00  0.00    +0.198 C 
ATOM      4  C   UNL A   1     -24.487   1.321  27.126  0.00  0.00    +0.115 C 
ATOM      5  N   UNL A   1     -21.382   1.046  27.968  0.00  0.00    -0.220 NA
ATOM      6  C   UNL A   1     -21.995   1.599  26.870  0.00  0.00    +0.126 C 
ATOM      7  C   UNL A   1     -24.522   0.574  28.385  0.00  0.00    +0.076 C 
ATOM      8  N   UNL A   1     -23.367   0.313  28.957  0.00  0.00    -0.230 NA
ENDROOT
BRANCH   4   9
ATOM      9  C   UNL A   1     -25.688   1.614  26.461  0.00  0.00    +0.027 C 
ATOM     10  C   UNL A   1     -26.250   2.920  26.395  0.00  0.00    +0.073 C 
ATOM     11  C   UNL A   1     -27.438   3.091  25.645  0.00  0.00    +0.106 C 
ATOM     12  N   UNL A   1     -28.075   2.089  25.003  0.00  0.00    -0.208 NA
ATOM     13  C   UNL A   1     -27.543   0.849  25.079  0.00  0.00    +0.253 C 
ATOM     14  C   UNL A   1     -26.354   0.576  25.777  0.00  0.00    +0.190 C 
ATOM     15  F   UNL A   1     -25.860  -0.681  25.795  0.00  0.00    -0.200 F 
BRANCH  10  16
ATOM     16  C   UNL A   1     -25.642   4.093  27.123  0.00  0.00    +0.266 C 
ATOM     17  N   UNL A   1     -25.614   5.252  26.449  0.00  0.00    -0.200 NA
ATOM     18  C   UNL A   1     -25.026   6.479  26.963  0.00  0.00    +0.139 C 
ATOM     19  O   UNL A   1     -25.143   3.966  28.243  0.00  0.00    -0.268 OA
ENDBRANCH  10  16
BRANCH  13  20
ATOM     20  O   UNL A   1     -28.193  -0.208  24.477  0.00  0.00    -0.456 OA
BRANCH  20  21
ATOM     21  C   UNL A   1     -29.460   0.005  23.866  0.00  0.00    +0.243 C 
BRANCH  21  22
ATOM     22  C   UNL A   1     -30.065  -1.377  23.573  0.00  0.00    +0.229 C 
ATOM     23  O   UNL A   1     -30.729  -1.878  24.721  0.00  0.00    -0.216 OA
ENDBRANCH  21  22
ENDBRANCH  20  21
ENDBRANCH  13  20
ENDBRANCH   4   9
BRANCH   7  24
ATOM     24  C   UNL A   1     -25.640  -0.219  29.041  0.00  0.00    +0.157 C 
BRANCH  24  25
ATOM     25  C   UNL A   1     -24.855  -1.012  30.143  0.00  0.00    +0.071 C 
BRANCH  25  26
ATOM     26  C   UNL A   1     -24.973  -2.505  29.788  0.00  0.00    -0.018 C 
ATOM     27  C   UNL A   1     -23.906  -3.173  29.146  0.00  0.00    -0.004 C 
ATOM     28  C   UNL A   1     -23.989  -4.549  28.853  0.00  0.00    -0.000 C 
ATOM     29  C   UNL A   1     -25.137  -5.280  29.205  0.00  0.00    -0.000 C 
ATOM     30  C   UNL A   1     -26.232  -4.611  29.784  0.00  0.00    -0.000 C 
ATOM     31  C   UNL A   1     -26.155  -3.232  30.065  0.00  0.00    -0.004 C 
ENDBRANCH  25  26
BRANCH  25  32
ATOM     32  C   UNL A   1     -25.387  -0.679  31.571  0.00  0.00    +0.080 C 
ATOM     33  C   UNL A   1     -25.189   0.773  32.028  0.00  0.00    +0.019 C 
ATOM     34  C   UNL A   1     -25.336   0.684  33.544  0.00  0.00    +0.020 C 
ATOM     35  C   UNL A   1     -24.829  -0.715  33.905  0.00  0.00    +0.089 C 
ATOM     36  N   UNL A   1     -24.758  -1.481  32.646  0.00  0.00    -0.219 NA
ENDBRANCH  25  32
ENDBRANCH  24  25
BRANCH  24  37
ATOM     37  O   UNL A   1     -26.846   0.649  29.158  0.00  0.00    -0.345 OA
BRANCH  37  38
ATOM     38  C   UNL A   1     -28.125  -0.023  28.920  0.00  0.00    +0.169 C 
BRANCH  38  45
ATOM     39  C   UNL A   1     -31.555   2.683  28.221  0.00  0.00    -0.000 C 
ATOM     40  C   UNL A   1     -29.401   1.432  31.105  0.00  0.00    +0.031 C 
ATOM     41  C   UNL A   1     -31.134   1.842  27.188  0.00  0.00    -0.000 C 
ATOM     42  C   UNL A   1     -30.129   0.871  27.441  0.00  0.00    -0.002 C 
ATOM     43  C   UNL A   1     -29.952   1.601  29.725  0.00  0.00    -0.024 C 
ATOM     44  C   UNL A   1     -30.954   2.569  29.487  0.00  0.00    -0.004 C 
ATOM     45  C   UNL A   1     -29.443   0.811  28.680  0.00  0.00    +0.003 C 
ENDBRANCH  38  45
ENDBRANCH  37  38
ENDBRANCH  24  37
ENDBRANCH   7  24
TORSDOF 12
