MODEL 3497
MODEL 1
REMARK VINA RESULT:    -5.116      0.000      0.000
REMARK INTER + INTRA:          -6.158
REMARK INTER:                  -6.013
REMARK INTRA:                  -0.145
REMARK UNBOUND:                -0.145
REMARK  Name = No_3497-gen_results/8p0m/2024-11-27-11-27-31/
REMARK  3 active torsions:
REMARK  status: ('A' for Active; 'I' for Inactive)
REMARK    1  A    between atoms: C_1  and  C_2
REMARK    2  A    between atoms: C_1  and  C_8
REMARK    3  A    between atoms: C_5  and  C_11
REMARK                            x       y       z     vdW  Elec       q    Type
REMARK                         _______ _______ _______ _____ _____    ______ ____
ROOT
ATOM      1  C   UNL A   1     -28.742 -12.082  31.256  0.00  0.00    -0.013 A 
ATOM      2  C   UNL A   1     -28.683 -11.540  29.984  0.00  0.00    -0.004 A 
ATOM      3  C   UNL A   1     -29.232 -12.121  28.782  0.00  0.00    +0.001 A 
ATOM      4  C   UNL A   1     -29.896 -13.367  28.874  0.00  0.00    +0.021 A 
ATOM      5  C   UNL A   1     -29.989 -13.979  30.152  0.00  0.00    +0.001 A 
ATOM      6  C   UNL A   1     -29.465 -13.338  31.232  0.00  0.00    -0.004 A 
ENDROOT
BRANCH   4   7
ATOM      7  C   UNL A   1     -30.449 -14.023  27.702  0.00  0.00    +0.122 C 
ATOM      8  N   UNL A   1     -29.720 -13.988  26.583  0.00  0.00    -0.146 NA
ENDBRANCH   4   7
BRANCH   1   9
ATOM      9  C   UNL A   1     -28.336 -11.545  32.261  0.00  0.00    +0.115 C 
BRANCH   9  10
ATOM     10  C   UNL A   1     -27.225 -12.263  32.946  0.00  0.00    +0.265 C 
ATOM     11  O   UNL A   1     -26.372 -12.752  32.471  0.00  0.00    -0.271 OA
ATOM     12  N   UNL A   1     -27.387 -12.304  34.410  0.00  0.00    -0.087 NA
ENDBRANCH   9  10
ENDBRANCH   1   9
TORSDOF 3
ENDMDL
ENDMDL
