MODEL 3498
MODEL 1
REMARK VINA RESULT:    -8.118      0.000      0.000
REMARK INTER + INTRA:         -16.387
REMARK INTER:                 -12.863
REMARK INTRA:                  -3.524
REMARK UNBOUND:                -3.524
REMARK  Name = No_3498-gen_results/8p0m/2024-11-27-11-27-31/
REMARK  10 active torsions:
REMARK  status: ('A' for Active; 'I' for Inactive)
REMARK    1  A    between atoms: C_2  and  C_7
REMARK    2  A    between atoms: C_5  and  O_22
REMARK    3  A    between atoms: C_7  and  C_8
REMARK    4  A    between atoms: C_11  and  C_12
REMARK    5  A    between atoms: C_12  and  C_15
REMARK    6  A    between atoms: C_17  and  O_31
REMARK    7  A    between atoms: O_22  and  C_23
REMARK    8  A    between atoms: C_23  and  C_24
REMARK    9  A    between atoms: O_31  and  C_32
REMARK   10  A    between atoms: C_33  and  C_34
REMARK                            x       y       z     vdW  Elec       q    Type
REMARK                         _______ _______ _______ _____ _____    ______ ____
ROOT
ATOM      1  C   UNL A   1     -23.455   0.392  29.129  0.00  0.00    -0.022 A 
ATOM      2  C   UNL A   1     -23.637   1.471  30.015  0.00  0.00    -0.004 A 
ATOM      3  C   UNL A   1     -23.867   1.203  31.375  0.00  0.00    -0.000 A 
ATOM      4  C   UNL A   1     -23.387  -0.889  29.728  0.00  0.00    -0.021 A 
ATOM      5  C   UNL A   1     -23.926  -0.072  31.836  0.00  0.00    -0.000 A 
ATOM      6  C   UNL A   1     -23.683  -1.063  31.025  0.00  0.00    -0.004 A 
ENDROOT
BRANCH   1   7
ATOM      7  C   UNL A   1     -23.101   0.599  27.703  0.00  0.00    +0.044 C 
ATOM      8  C   UNL A   1     -21.899   1.561  27.612  0.00  0.00    +0.009 C 
BRANCH   7  10
ATOM      9  C   UNL A   1     -25.075   0.451  26.349  0.00  0.00    +0.034 A 
ATOM     10  C   UNL A   1     -24.258   1.189  26.849  0.00  0.00    -0.015 A 
ATOM     11  C   UNL A   1     -24.202   2.487  26.775  0.00  0.00    -0.004 A 
ATOM     12  C   UNL A   1     -25.203   3.160  26.009  0.00  0.00    +0.003 A 
ATOM     13  C   UNL A   1     -26.188   1.068  25.652  0.00  0.00    +0.148 A 
ATOM     14  C   UNL A   1     -26.198   2.394  25.514  0.00  0.00    +0.038 A 
BRANCH  13  15
ATOM     15  O   UNL A   1     -27.172   0.322  25.103  0.00  0.00    -0.421 OA
BRANCH  15  16
ATOM     16  C   UNL A   1     -28.440   0.440  25.593  0.00  0.00    +0.346 C 
ATOM     17  O   UNL A   1     -28.708   0.144  26.742  0.00  0.00    -0.244 OA
BRANCH  16  18
ATOM     18  C   UNL A   1     -29.381   0.781  24.606  0.00  0.00    +0.076 A 
ATOM     19  C   UNL A   1     -29.441   1.911  24.064  0.00  0.00    +0.006 A 
ATOM     20  C   UNL A   1     -30.397   2.255  23.001  0.00  0.00    +0.000 A 
ATOM     21  C   UNL A   1     -31.295   1.218  22.669  0.00  0.00    +0.000 A 
ATOM     22  C   UNL A   1     -31.265  -0.005  23.248  0.00  0.00    +0.000 A 
ATOM     23  C   UNL A   1     -30.284  -0.257  24.212  0.00  0.00    +0.006 A 
ENDBRANCH  16  18
ENDBRANCH  15  16
ENDBRANCH  13  15
ENDBRANCH   7  10
ENDBRANCH   1   7
BRANCH   4  24
ATOM     24  C   UNL A   1     -23.218  -2.074  28.924  0.00  0.00    +0.052 C 
BRANCH  24  25
ATOM     25  C   UNL A   1     -24.398  -2.800  28.779  0.00  0.00    -0.015 A 
ATOM     26  C   UNL A   1     -25.660  -2.208  29.171  0.00  0.00    +0.034 A 
ATOM     27  C   UNL A   1     -26.564  -3.098  29.841  0.00  0.00    +0.145 A 
ATOM     28  C   UNL A   1     -26.541  -4.497  29.656  0.00  0.00    +0.037 A 
ATOM     29  C   UNL A   1     -25.256  -5.020  29.320  0.00  0.00    +0.003 A 
ATOM     30  C   UNL A   1     -24.217  -4.267  29.012  0.00  0.00    -0.004 A 
BRANCH  27  31
ATOM     31  O   UNL A   1     -27.799  -2.585  29.948  0.00  0.00    -0.450 OA
BRANCH  31  32
ATOM     32  C   UNL A   1     -28.071  -2.165  31.286  0.00  0.00    +0.179 C 
ATOM     33  C   UNL A   1     -27.832  -0.769  31.509  0.00  0.00    +0.041 C 
BRANCH  33  34
ATOM     34  C   UNL A   1     -28.241   0.167  30.662  0.00  0.00    +0.003 C 
ATOM     35  C   UNL A   1     -27.283   0.892  29.859  0.00  0.00    +0.000 C 
ENDBRANCH  33  34
ENDBRANCH  31  32
ENDBRANCH  27  31
ENDBRANCH  24  25
ENDBRANCH   4  24
TORSDOF 10
ENDMDL
ENDMDL
