MODEL 3499
MODEL 1
REMARK VINA RESULT:    -7.305      0.000      0.000
REMARK INTER + INTRA:          -8.766
REMARK INTER:                  -8.159
REMARK INTRA:                  -0.607
REMARK UNBOUND:                -0.607
REMARK  Name = No_3499-gen_results/8p0m/2024-11-27-11-27-31/
REMARK  2 active torsions:
REMARK  status: ('A' for Active; 'I' for Inactive)
REMARK    1  A    between atoms: C_1  and  C_11
REMARK    2  A    between atoms: C_3  and  C_14
REMARK                            x       y       z     vdW  Elec       q    Type
REMARK                         _______ _______ _______ _____ _____    ______ ____
ROOT
ATOM      1  C   UNL A   1     -24.484  -2.686  29.336  0.00  0.00    +0.080 A 
ATOM      2  C   UNL A   1     -24.029  -1.863  28.577  0.00  0.00    +0.007 A 
ATOM      3  C   UNL A   1     -23.773  -0.540  28.896  0.00  0.00    +0.000 A 
ATOM      4  C   UNL A   1     -24.042  -0.132  30.235  0.00  0.00    +0.000 A 
ATOM      5  C   UNL A   1     -24.406  -1.108  31.092  0.00  0.00    +0.000 A 
ATOM      6  C   UNL A   1     -24.540  -2.376  30.697  0.00  0.00    +0.007 A 
ATOM      7  C   UNL A   1     -24.631  -0.660  32.480  0.00  0.00    +0.000 A 
ATOM      8  C   UNL A   1     -25.139   0.504  32.753  0.00  0.00    +0.000 A 
ATOM      9  C   UNL A   1     -24.804   1.597  31.765  0.00  0.00    +0.000 A 
ATOM     10  C   UNL A   1     -24.395   1.257  30.466  0.00  0.00    +0.000 A 
ENDROOT
BRANCH   3  11
ATOM     11  C   UNL A   1     -23.450   0.503  27.858  0.00  0.00    +0.000 A 
ATOM     12  C   UNL A   1     -22.144   1.174  27.890  0.00  0.00    +0.000 A 
ATOM     13  C   UNL A   1     -21.822   1.836  26.706  0.00  0.00    +0.000 A 
ATOM     14  C   UNL A   1     -22.828   2.209  25.796  0.00  0.00    +0.000 A 
ATOM     15  C   UNL A   1     -24.274   0.750  26.786  0.00  0.00    +0.000 A 
ATOM     16  C   UNL A   1     -23.922   1.540  25.740  0.00  0.00    +0.000 A 
ENDBRANCH   3  11
BRANCH   1  17
ATOM     17  C   UNL A   1     -24.580  -4.158  28.897  0.00  0.00    +0.388 C 
ATOM     18  O   UNL A   1     -25.528  -4.838  29.371  0.00  0.00    -0.241 OA
ATOM     19  O   UNL A   1     -23.701  -4.715  28.216  0.00  0.00    -0.241 OA
ENDBRANCH   1  17
TORSDOF 2
ENDMDL
ENDMDL
