MODEL 349
MODEL 1
REMARK VINA RESULT:    -5.790      0.000      0.000
REMARK INTER + INTRA:          -7.196
REMARK INTER:                  -6.805
REMARK INTRA:                  -0.390
REMARK UNBOUND:                -0.390
REMARK  Name = No_349-gen_results/8p0m/2024-11-27-11-27-31/
REMARK  3 active torsions:
REMARK  status: ('A' for Active; 'I' for Inactive)
REMARK    1  A    between atoms: C_1  and  C_8
REMARK    2  A    between atoms: C_5  and  C_10
REMARK    3  A    between atoms: C_9  and  C_13
REMARK                            x       y       z     vdW  Elec       q    Type
REMARK                         _______ _______ _______ _____ _____    ______ ____
ROOT
ATOM      1  C   UNL A   1     -30.505 -10.181  29.489  0.00  0.00    -0.009 C 
ATOM      2  C   UNL A   1     -29.751 -10.620  30.326  0.00  0.00    -0.044 C 
ATOM      3  C   UNL A   1     -28.832 -11.530  30.174  0.00  0.00    +0.023 C 
ATOM      4  C   UNL A   1     -27.919 -12.041  31.228  0.00  0.00    +0.016 C 
ATOM      5  C   UNL A   1     -28.038 -11.438  32.512  0.00  0.00    +0.104 C 
ATOM      6  C   UNL A   1     -28.964 -10.438  32.661  0.00  0.00    +0.016 C 
ATOM      7  C   UNL A   1     -29.768  -9.990  31.669  0.00  0.00    +0.023 C 
ENDROOT
BRANCH   5   8
ATOM      8  C   UNL A   1     -27.183 -11.839  33.614  0.00  0.00    +0.364 C 
ATOM      9  O   UNL A   1     -26.778 -12.878  33.811  0.00  0.00    -0.246 OA
ATOM     10  O   UNL A   1     -27.196 -10.898  34.751  0.00  0.00    -0.246 OA
ENDBRANCH   5   8
BRANCH   1  11
ATOM     11  C   UNL A   1     -30.708 -11.007  28.353  0.00  0.00    -0.001 C 
ATOM     12  C   UNL A   1     -31.125 -10.431  27.176  0.00  0.00    -0.000 C 
BRANCH  12  13
ATOM     13  C   UNL A   1     -31.267  -9.036  27.099  0.00  0.00    -0.000 C 
ATOM     14  C   UNL A   1     -32.449  -8.416  26.742  0.00  0.00    -0.000 C 
ENDBRANCH  12  13
ENDBRANCH   1  11
TORSDOF 3
ENDMDL
ENDMDL
