MODEL 34
MODEL 1
REMARK VINA RESULT:    -7.091      0.000      0.000
REMARK INTER + INTRA:          -7.679
REMARK INTER:                  -7.506
REMARK INTRA:                  -0.173
REMARK UNBOUND:                -0.173
REMARK  Name = No_34-gen_results/8p0m/2024-11-27-11-27-31/
REMARK  1 active torsions:
REMARK  status: ('A' for Active; 'I' for Inactive)
REMARK    1  A    between atoms: C_5  and  C_11
REMARK                            x       y       z     vdW  Elec       q    Type
REMARK                         _______ _______ _______ _____ _____    ______ ____
ROOT
ATOM      1  C   UNL A   1     -21.664   1.832  27.268  0.00  0.00    -0.005 A 
ATOM      2  C   UNL A   1     -22.349   1.004  27.822  0.00  0.00    -0.026 A 
ATOM      3  C   UNL A   1     -23.632   0.818  27.702  0.00  0.00    -0.026 A 
ATOM      4  C   UNL A   1     -24.438  -0.216  28.398  0.00  0.00    +0.037 C 
ATOM      5  C   UNL A   1     -23.724  -1.113  29.240  0.00  0.00    +0.108 C 
ATOM      6  C   UNL A   1     -22.364  -0.959  29.324  0.00  0.00    +0.016 C 
ATOM      7  C   UNL A   1     -21.662  -0.011  28.660  0.00  0.00    +0.027 C 
ATOM      8  C   UNL A   1     -22.086   2.148  25.832  0.00  0.00    -0.000 A 
ATOM      9  C   UNL A   1     -23.415   2.433  25.722  0.00  0.00    -0.000 A 
ATOM     10  C   UNL A   1     -24.258   1.352  26.423  0.00  0.00    -0.005 A 
ATOM     11  C   UNL A   1     -25.685   1.244  26.181  0.00  0.00    -0.004 A 
ATOM     12  C   UNL A   1     -26.219   1.869  25.204  0.00  0.00    -0.000 A 
ATOM     13  C   UNL A   1     -27.618   1.689  24.911  0.00  0.00    -0.000 A 
ATOM     14  C   UNL A   1     -28.321   1.181  25.488  0.00  0.00    -0.000 A 
ATOM     15  C   UNL A   1     -27.902   0.346  26.691  0.00  0.00    -0.004 A 
ATOM     16  C   UNL A   1     -26.517   0.420  26.984  0.00  0.00    -0.022 A 
ATOM     17  C   UNL A   1     -25.899  -0.333  28.110  0.00  0.00    +0.031 C 
ENDROOT
BRANCH   5  18
ATOM     18  C   UNL A   1     -24.383  -2.097  30.075  0.00  0.00    +0.365 C 
ATOM     19  O   UNL A   1     -24.707  -1.849  31.245  0.00  0.00    -0.246 OA
ATOM     20  O   UNL A   1     -24.200  -3.371  29.726  0.00  0.00    -0.246 OA
ENDBRANCH   5  18
TORSDOF 1
ENDMDL
ENDMDL
