REMARK  Name = outputs/IAG933/test6/raw/output_3500_IAG933_linker_design_.xyz
REMARK  10 active torsions:
REMARK  status: ('A' for Active; 'I' for Inactive)
REMARK    1  A    between atoms: C_1  and  C_2
REMARK    2  A    between atoms: C_1  and  C_8
REMARK    3  A    between atoms: C_1  and  C_31
REMARK    4  A    between atoms: C_14  and  C_15
REMARK    5  A    between atoms: C_36  and  C_45
REMARK    6  A    between atoms: C_37  and  C_48
REMARK    7  A    between atoms: N_42  and  C_48
REMARK    8  A    between atoms: C_45  and  C_52
REMARK    9  A    between atoms: C_50  and  C_56
REMARK   10  A    between atoms: C_52  and  C_55
REMARK                            x       y       z     vdW  Elec       q    Type
REMARK                         _______ _______ _______ _____ _____    ______ ____
ROOT
ATOM      1  C   UNL A   1     -25.688   1.614  26.461  0.00  0.00    +0.070 C 
ATOM      2  C   UNL A   1     -26.250   2.920  26.395  0.00  0.00    +0.055 C 
ATOM      3  C   UNL A   1     -27.438   3.091  25.645  0.00  0.00    +0.102 C 
ATOM      4  N   UNL A   1     -28.075   2.089  25.003  0.00  0.00    -0.212 NA
ATOM      5  C   UNL A   1     -27.543   0.849  25.079  0.00  0.00    +0.234 C 
ATOM      6  O   UNL A   1     -28.193  -0.208  24.477  0.00  0.00    -0.459 OA
ATOM      7  C   UNL A   1     -29.460   0.005  23.866  0.00  0.00    +0.239 C 
ATOM      8  C   UNL A   1     -30.065  -1.377  23.573  0.00  0.00    +0.192 C 
ATOM      9  O   UNL A   1     -30.729  -1.878  24.721  0.00  0.00    -0.323 OA
ATOM     10  C   UNL A   1     -26.354   0.576  25.777  0.00  0.00    +0.240 C 
ATOM     11  F   UNL A   1     -25.860  -0.681  25.795  0.00  0.00    -0.227 F 
ATOM     12  C   UNL A   1     -26.602   0.650  29.695  0.00  0.00    +0.090 C 
ATOM     13  C   UNL A   1     -28.262   2.124  30.477  0.00  0.00    +0.178 C 
ATOM     14  O   UNL A   1     -31.410  -1.520  28.731  0.00  0.00    -0.177 OA
ATOM     15  C   UNL A   1     -25.395  -0.107  28.906  0.00  0.00    +0.023 C 
ATOM     16  C   UNL A   1     -31.858   2.266  28.652  0.00  0.00    +0.095 C 
ATOM     17  O   UNL A   1     -31.923  -0.740  26.692  0.00  0.00    -0.291 OA
ATOM     18  C   UNL A   1     -25.071   1.086  27.826  0.00  0.00    +0.009 C 
ATOM     19  C   UNL A   1     -31.404  -0.359  27.904  0.00  0.00    +0.276 C 
ATOM     20  N   UNL A   1     -29.320   1.647  29.627  0.00  0.00    -0.256 NA
ATOM     21  N   UNL A   1     -32.148   0.885  28.216  0.00  0.00    -0.224 NA
ATOM     22  O   UNL A   1     -26.450   3.282  30.208  0.00  0.00    -0.117 OA
ATOM     23  C   UNL A   1     -28.836   0.738  28.524  0.00  0.00    +0.067 C 
ATOM     24  C   UNL A   1     -30.334   2.658  29.077  0.00  0.00    +0.108 C 
ATOM     25  C   UNL A   1     -29.991  -0.005  27.835  0.00  0.00    +0.092 C 
ATOM     26  C   UNL A   1     -27.864  -0.173  29.250  0.00  0.00    +0.035 C 
ATOM     27  C   UNL A   1     -31.712  -1.612  25.662  0.00  0.00    +0.297 C 
ATOM     28  N   UNL A   1     -27.019   2.076  29.844  0.00  0.00    -0.118 NA
ENDROOT
BRANCH   2  29
ATOM     29  C   UNL A   1     -25.642   4.093  27.123  0.00  0.00    +0.262 C 
ATOM     30  N   UNL A   1     -25.614   5.252  26.449  0.00  0.00    -0.200 NA
ATOM     31  C   UNL A   1     -25.026   6.479  26.963  0.00  0.00    +0.139 C 
ATOM     32  O   UNL A   1     -25.143   3.966  28.243  0.00  0.00    -0.269 OA
ENDBRANCH   2  29
BRANCH  24  34
ATOM     33  O   UNL A   1     -28.949   4.707  28.974  0.00  0.00    -0.219 OA
ATOM     34  C   UNL A   1     -29.766   3.778  28.235  0.00  0.00    +0.199 C 
ENDBRANCH  24  34
BRANCH  15  35
ATOM     35  C   UNL A   1     -24.855  -1.012  30.143  0.00  0.00    +0.040 C 
BRANCH  35  36
ATOM     36  C   UNL A   1     -24.973  -2.505  29.788  0.00  0.00    -0.021 C 
ATOM     37  C   UNL A   1     -23.906  -3.173  29.146  0.00  0.00    -0.004 C 
ATOM     38  C   UNL A   1     -23.989  -4.549  28.853  0.00  0.00    -0.000 C 
ATOM     39  C   UNL A   1     -25.137  -5.280  29.205  0.00  0.00    -0.000 C 
ATOM     40  C   UNL A   1     -26.232  -4.611  29.784  0.00  0.00    -0.000 C 
ATOM     41  C   UNL A   1     -26.155  -3.232  30.065  0.00  0.00    -0.004 C 
ENDBRANCH  35  36
BRANCH  35  42
ATOM     42  C   UNL A   1     -25.387  -0.679  31.571  0.00  0.00    +0.077 C 
ATOM     43  C   UNL A   1     -25.189   0.773  32.028  0.00  0.00    +0.019 C 
ATOM     44  C   UNL A   1     -25.336   0.684  33.544  0.00  0.00    +0.020 C 
ATOM     45  C   UNL A   1     -24.829  -0.715  33.905  0.00  0.00    +0.089 C 
ATOM     46  N   UNL A   1     -24.758  -1.481  32.646  0.00  0.00    -0.219 NA
ENDBRANCH  35  42
ENDBRANCH  15  35
BRANCH  18  47
ATOM     47  C   UNL A   1     -23.727   1.681  27.949  0.00  0.00    +0.002 C 
BRANCH  47  48
ATOM     48  C   UNL A   1     -22.820   1.121  26.821  0.00  0.00    +0.021 C 
BRANCH  48  50
ATOM     49  N   UNL A   1     -20.802   1.598  28.177  0.00  0.00    -0.131 NA
ATOM     50  C   UNL A   1     -21.453   1.803  26.913  0.00  0.00    +0.109 C 
ENDBRANCH  48  50
ENDBRANCH  47  48
ENDBRANCH  18  47
BRANCH  21  51
ATOM     51  C   UNL A   1     -33.508   0.678  28.026  0.00  0.00    +0.099 C 
BRANCH  51  53
ATOM     52  C   UNL A   1     -36.546  -1.724  33.159  0.00  0.00    +0.031 C 
ATOM     53  C   UNL A   1     -33.890  -0.359  29.002  0.00  0.00    -0.024 C 
ATOM     54  C   UNL A   1     -34.050   0.036  30.396  0.00  0.00    +0.049 C 
ATOM     55  C   UNL A   1     -35.776  -1.471  31.838  0.00  0.00    -0.026 C 
ATOM     56  C   UNL A   1     -34.240  -1.828  28.829  0.00  0.00    -0.007 C 
ATOM     57  C   UNL A   1     -34.750  -0.432  31.607  0.00  0.00    -0.026 C 
ATOM     58  C   UNL A   1     -35.182  -2.568  29.692  0.00  0.00    -0.001 C 
ATOM     59  C   UNL A   1     -35.916  -2.554  30.789  0.00  0.00    -0.005 C 
ENDBRANCH  51  53
ENDBRANCH  21  51
TORSDOF 10
