MODEL 3500
MODEL 1
REMARK VINA RESULT:    -4.352      0.000      0.000
REMARK INTER + INTRA:          -4.352
REMARK INTER:                  -4.352
REMARK INTRA:                   0.000
REMARK UNBOUND:                 0.000
REMARK  Name = No_3500-gen_results/8p0m/2024-11-27-11-27-31/
REMARK  0 active torsions:
REMARK  status: ('A' for Active; 'I' for Inactive)
REMARK                            x       y       z     vdW  Elec       q    Type
REMARK                         _______ _______ _______ _____ _____    ______ ____
ROOT
ATOM      1  C   UNL A   1     -24.960  -5.409  29.029  0.00  0.00    +0.000 A 
ATOM      2  C   UNL A   1     -24.215  -4.740  28.702  0.00  0.00    +0.000 A 
ATOM      3  C   UNL A   1     -26.141  -4.740  29.590  0.00  0.00    +0.000 A 
ATOM      4  C   UNL A   1     -26.175  -3.428  29.829  0.00  0.00    +0.000 A 
ATOM      5  C   UNL A   1     -24.022  -3.319  28.867  0.00  0.00    +0.000 A 
ATOM      6  C   UNL A   1     -25.118  -2.720  29.413  0.00  0.00    +0.000 A 
ENDROOT
TORSDOF 0
ENDMDL
ENDMDL
