MODEL 3502
MODEL 1
REMARK VINA RESULT:    -6.692      0.000      0.000
REMARK INTER + INTRA:          -8.193
REMARK INTER:                  -7.866
REMARK INTRA:                  -0.327
REMARK UNBOUND:                -0.327
REMARK  Name = No_3502-gen_results/8p0m/2024-11-27-11-27-31/
REMARK  3 active torsions:
REMARK  status: ('A' for Active; 'I' for Inactive)
REMARK    1  A    between atoms: C_2  and  C_5
REMARK    2  A    between atoms: C_4  and  C_11
REMARK    3  A    between atoms: C_11  and  C_12
REMARK                            x       y       z     vdW  Elec       q    Type
REMARK                         _______ _______ _______ _____ _____    ______ ____
ROOT
ATOM      1  C   UNL A   1     -27.067  -2.793  30.216  0.00  0.00    +0.004 A 
ATOM      2  C   UNL A   1     -27.085  -3.842  30.123  0.00  0.00    +0.055 A 
ATOM      3  C   UNL A   1     -25.804  -2.123  29.867  0.00  0.00    -0.004 A 
ATOM      4  C   UNL A   1     -24.724  -2.861  29.301  0.00  0.00    -0.018 A 
ATOM      5  C   UNL A   1     -24.961  -4.215  29.179  0.00  0.00    -0.004 A 
ATOM      6  C   UNL A   1     -26.137  -4.781  29.536  0.00  0.00    +0.004 A 
ENDROOT
BRANCH   2   7
ATOM      7  C   UNL A   1     -28.398  -4.575  30.454  0.00  0.00    +0.265 C 
ATOM      8  O   UNL A   1     -28.384  -5.432  31.071  0.00  0.00    -0.268 OA
ATOM      9  N   UNL A   1     -29.649  -4.020  29.971  0.00  0.00    -0.200 NA
ATOM     10  C   UNL A   1     -30.867  -4.674  30.327  0.00  0.00    +0.139 C 
ENDBRANCH   2   7
BRANCH   4  11
ATOM     11  C   UNL A   1     -23.468  -2.239  28.951  0.00  0.00    +0.053 C 
BRANCH  11  12
ATOM     12  C   UNL A   1     -23.239  -0.937  28.945  0.00  0.00    -0.018 A 
ATOM     13  C   UNL A   1     -23.972  -0.014  28.097  0.00  0.00    -0.004 A 
ATOM     14  C   UNL A   1     -23.319   0.852  27.338  0.00  0.00    -0.000 A 
ATOM     15  C   UNL A   1     -21.987   1.315  27.681  0.00  0.00    -0.000 A 
ATOM     16  C   UNL A   1     -21.227   0.450  28.507  0.00  0.00    -0.000 A 
ATOM     17  C   UNL A   1     -21.752  -0.668  29.028  0.00  0.00    -0.004 A 
ENDBRANCH  11  12
ENDBRANCH   4  11
TORSDOF 3
ENDMDL
ENDMDL
