MODEL 3503
MODEL 1
REMARK VINA RESULT:    -7.029      0.000      0.000
REMARK INTER + INTRA:          -9.266
REMARK INTER:                  -8.261
REMARK INTRA:                  -1.005
REMARK UNBOUND:                -1.005
REMARK  Name = No_3503-gen_results/8p0m/2024-11-27-11-27-31/
REMARK  3 active torsions:
REMARK  status: ('A' for Active; 'I' for Inactive)
REMARK    1  A    between atoms: C_3  and  C_4
REMARK    2  A    between atoms: C_4  and  C_8
REMARK    3  A    between atoms: C_7  and  C_14
REMARK                            x       y       z     vdW  Elec       q    Type
REMARK                         _______ _______ _______ _____ _____    ______ ____
ROOT
ATOM      1  C   UNL A   1     -25.868  -0.386  26.859  0.00  0.00    -0.004 A 
ATOM      2  C   UNL A   1     -25.472   0.152  26.044  0.00  0.00    -0.000 A 
ATOM      3  C   UNL A   1     -25.034  -0.455  28.070  0.00  0.00    -0.022 A 
ATOM      4  C   UNL A   1     -24.507   0.842  25.938  0.00  0.00    -0.000 A 
ATOM      5  C   UNL A   1     -23.500   0.967  26.954  0.00  0.00    -0.005 A 
ATOM      6  C   UNL A   1     -23.782   0.288  28.108  0.00  0.00    -0.026 A 
ENDROOT
BRANCH   6   7
ATOM      7  C   UNL A   1     -22.912   0.375  29.220  0.00  0.00    +0.022 C 
ATOM      8  C   UNL A   1     -23.202   1.170  30.292  0.00  0.00    +0.005 C 
ATOM      9  C   UNL A   1     -21.636  -0.285  29.085  0.00  0.00    +0.005 C 
ENDBRANCH   6   7
BRANCH   3  10
ATOM     10  C   UNL A   1     -25.280  -1.249  29.264  0.00  0.00    +0.052 C 
BRANCH  10  11
ATOM     11  C   UNL A   1     -25.249  -2.712  29.104  0.00  0.00    -0.018 A 
ATOM     12  C   UNL A   1     -24.092  -3.209  28.622  0.00  0.00    -0.004 A 
ATOM     13  C   UNL A   1     -23.961  -4.640  28.523  0.00  0.00    -0.000 A 
ATOM     14  C   UNL A   1     -24.932  -5.471  28.992  0.00  0.00    -0.000 A 
ATOM     15  C   UNL A   1     -26.223  -3.548  29.641  0.00  0.00    -0.004 A 
ATOM     16  C   UNL A   1     -26.062  -4.895  29.601  0.00  0.00    -0.000 A 
ENDBRANCH  10  11
ENDBRANCH   3  10
TORSDOF 3
ENDMDL
ENDMDL
