REMARK  Name = outputs/IAG933/test6/raw/output_3503_IAG933_linker_design_.xyz
REMARK  12 active torsions:
REMARK  status: ('A' for Active; 'I' for Inactive)
REMARK    1  A    between atoms: C_1  and  C_2
REMARK    2  A    between atoms: C_1  and  C_8
REMARK    3  A    between atoms: C_1  and  N_35
REMARK    4  A    between atoms: C_13  and  N_34
REMARK    5  A    between atoms: C_14  and  C_15
REMARK    6  A    between atoms: C_21  and  O_22
REMARK    7  A    between atoms: O_22  and  C_23
REMARK    8  A    between atoms: C_23  and  C_24
REMARK    9  A    between atoms: C_28  and  C_40
REMARK   10  A    between atoms: C_29  and  C_33
REMARK   11  A    between atoms: C_29  and  C_40
REMARK   12  A    between atoms: N_35  and  C_42
REMARK                            x       y       z     vdW  Elec       q    Type
REMARK                         _______ _______ _______ _____ _____    ______ ____
ROOT
ATOM      1  C   UNL A   1     -22.823   0.705  28.739  0.00  0.00    +0.116 C 
ATOM      2  C   UNL A   1     -23.652   1.855  26.679  0.00  0.00    +0.266 C 
ATOM      3  F   UNL A   1     -20.638   1.520  27.882  0.00  0.00    -0.202 F 
ATOM      4  N   UNL A   1     -24.613   1.407  27.219  0.00  0.00    -0.166 N 
ATOM      5  C   UNL A   1     -22.012   1.367  27.764  0.00  0.00    +0.174 C 
ATOM      6  C   UNL A   1     -22.488   1.940  26.561  0.00  0.00    +0.192 C 
ATOM      7  F   UNL A   1     -21.935   2.397  25.349  0.00  0.00    -0.202 F 
ATOM      8  C   UNL A   1     -24.262   0.707  28.448  0.00  0.00    +0.285 C 
ENDROOT
BRANCH   4   9
ATOM      9  C   UNL A   1     -25.688   1.614  26.461  0.00  0.00    +0.177 C 
ATOM     10  C   UNL A   1     -26.250   2.920  26.395  0.00  0.00    +0.114 C 
ATOM     11  C   UNL A   1     -27.438   3.091  25.645  0.00  0.00    +0.110 C 
ATOM     12  N   UNL A   1     -28.075   2.089  25.003  0.00  0.00    -0.208 NA
ATOM     13  C   UNL A   1     -27.543   0.849  25.079  0.00  0.00    +0.257 C 
ATOM     14  C   UNL A   1     -26.354   0.576  25.777  0.00  0.00    +0.230 C 
ATOM     15  F   UNL A   1     -25.860  -0.681  25.795  0.00  0.00    -0.196 F 
BRANCH  10  16
ATOM     16  C   UNL A   1     -25.642   4.093  27.123  0.00  0.00    +0.270 C 
ATOM     17  N   UNL A   1     -25.614   5.252  26.449  0.00  0.00    -0.200 NA
ATOM     18  C   UNL A   1     -25.026   6.479  26.963  0.00  0.00    +0.139 C 
ATOM     19  O   UNL A   1     -25.143   3.966  28.243  0.00  0.00    -0.268 OA
ENDBRANCH  10  16
BRANCH  13  20
ATOM     20  O   UNL A   1     -28.193  -0.208  24.477  0.00  0.00    -0.456 OA
BRANCH  20  21
ATOM     21  C   UNL A   1     -29.460   0.005  23.866  0.00  0.00    +0.243 C 
BRANCH  21  22
ATOM     22  C   UNL A   1     -30.065  -1.377  23.573  0.00  0.00    +0.229 C 
ATOM     23  O   UNL A   1     -30.729  -1.878  24.721  0.00  0.00    -0.216 OA
ENDBRANCH  21  22
ENDBRANCH  20  21
ENDBRANCH  13  20
ENDBRANCH   4   9
BRANCH   8  25
ATOM     24  C   UNL A   1     -27.043   0.056  29.017  0.00  0.00    +0.313 C 
ATOM     25  N   UNL A   1     -25.393   0.035  29.227  0.00  0.00    -0.144 N 
ATOM     26  O   UNL A   1     -27.504  -0.922  28.782  0.00  0.00    -0.247 OA
BRANCH  25  27
ATOM     27  C   UNL A   1     -24.855  -1.012  30.143  0.00  0.00    +0.206 C 
BRANCH  27  28
ATOM     28  C   UNL A   1     -24.973  -2.505  29.788  0.00  0.00    +0.022 C 
ATOM     29  C   UNL A   1     -23.906  -3.173  29.146  0.00  0.00    -0.000 C 
ATOM     30  C   UNL A   1     -23.989  -4.549  28.853  0.00  0.00    -0.000 C 
ATOM     31  C   UNL A   1     -25.137  -5.280  29.205  0.00  0.00    -0.000 C 
ATOM     32  C   UNL A   1     -26.232  -4.611  29.784  0.00  0.00    -0.000 C 
ATOM     33  C   UNL A   1     -26.155  -3.232  30.065  0.00  0.00    -0.000 C 
ENDBRANCH  27  28
BRANCH  27  34
ATOM     34  C   UNL A   1     -25.387  -0.679  31.571  0.00  0.00    +0.120 C 
ATOM     35  C   UNL A   1     -25.189   0.773  32.028  0.00  0.00    +0.023 C 
ATOM     36  C   UNL A   1     -25.336   0.684  33.544  0.00  0.00    +0.020 C 
ATOM     37  C   UNL A   1     -24.829  -0.715  33.905  0.00  0.00    +0.089 C 
ATOM     38  N   UNL A   1     -24.758  -1.481  32.646  0.00  0.00    -0.215 NA
ENDBRANCH  27  34
ENDBRANCH  25  27
BRANCH  24  39
ATOM     39  C   UNL A   1     -28.034   1.230  29.093  0.00  0.00    +0.116 C 
BRANCH  39  40
ATOM     40  C   UNL A   1     -28.915   1.353  30.358  0.00  0.00    +0.048 C 
BRANCH  40  41
ATOM     41  C   UNL A   1     -28.747   2.731  31.039  0.00  0.00    +0.183 C 
ATOM     42  O   UNL A   1     -27.395   3.074  31.318  0.00  0.00    -0.220 OA
ENDBRANCH  40  41
ENDBRANCH  39  40
ENDBRANCH  24  39
ENDBRANCH   8  25
TORSDOF 12
