REMARK  Name = outputs/IAG933/test6/raw/output_3504_IAG933_linker_design_.xyz
REMARK  9 active torsions:
REMARK  status: ('A' for Active; 'I' for Inactive)
REMARK    1  A    between atoms: C_1  and  C_2
REMARK    2  A    between atoms: C_1  and  C_8
REMARK    3  A    between atoms: C_1  and  C_40
REMARK    4  A    between atoms: C_9  and  C_36
REMARK    5  A    between atoms: C_13  and  N_30
REMARK    6  A    between atoms: C_14  and  C_15
REMARK    7  A    between atoms: C_21  and  O_22
REMARK    8  A    between atoms: O_22  and  C_23
REMARK    9  A    between atoms: C_23  and  C_24
REMARK                            x       y       z     vdW  Elec       q    Type
REMARK                         _______ _______ _______ _____ _____    ______ ____
ROOT
ATOM      1  O   UNL A   1     -25.331  -0.916  27.632  0.00  0.00    -0.274 OA
ATOM      2  N   UNL A   1     -24.543   1.161  27.140  0.00  0.00    -0.224 N 
ATOM      3  C   UNL A   1     -23.298   1.686  26.775  0.00  0.00    +0.293 C 
ATOM      4  C   UNL A   1     -22.986   0.527  29.624  0.00  0.00    +0.038 C 
ATOM      5  C   UNL A   1     -22.073   1.731  27.543  0.00  0.00    +0.166 C 
ATOM      6  C   UNL A   1     -21.884   1.270  28.792  0.00  0.00    +0.004 C 
ATOM      7  C   UNL A   1     -24.809   0.129  27.986  0.00  0.00    +0.232 C 
ATOM      8  F   UNL A   1     -21.016   2.071  27.084  0.00  0.00    -0.204 F 
ATOM      9  C   UNL A   1     -24.169   0.000  29.346  0.00  0.00    +0.087 C 
ATOM     10  F   UNL A   1     -23.257   2.312  25.668  0.00  0.00    -0.207 F 
ENDROOT
BRANCH   2  11
ATOM     11  C   UNL A   1     -25.688   1.614  26.461  0.00  0.00    +0.095 C 
ATOM     12  C   UNL A   1     -26.250   2.920  26.395  0.00  0.00    +0.090 C 
ATOM     13  C   UNL A   1     -27.438   3.091  25.645  0.00  0.00    +0.108 C 
ATOM     14  N   UNL A   1     -28.075   2.089  25.003  0.00  0.00    -0.208 NA
ATOM     15  C   UNL A   1     -27.543   0.849  25.079  0.00  0.00    +0.255 C 
ATOM     16  C   UNL A   1     -26.354   0.576  25.777  0.00  0.00    +0.207 C 
ATOM     17  F   UNL A   1     -25.860  -0.681  25.795  0.00  0.00    -0.198 F 
BRANCH  12  18
ATOM     18  C   UNL A   1     -25.642   4.093  27.123  0.00  0.00    +0.268 C 
ATOM     19  N   UNL A   1     -25.614   5.252  26.449  0.00  0.00    -0.200 NA
ATOM     20  C   UNL A   1     -25.026   6.479  26.963  0.00  0.00    +0.139 C 
ATOM     21  O   UNL A   1     -25.143   3.966  28.243  0.00  0.00    -0.268 OA
ENDBRANCH  12  18
BRANCH  15  22
ATOM     22  O   UNL A   1     -28.193  -0.208  24.477  0.00  0.00    -0.456 OA
BRANCH  22  23
ATOM     23  C   UNL A   1     -29.460   0.005  23.866  0.00  0.00    +0.243 C 
BRANCH  23  24
ATOM     24  C   UNL A   1     -30.065  -1.377  23.573  0.00  0.00    +0.229 C 
ATOM     25  O   UNL A   1     -30.729  -1.878  24.721  0.00  0.00    -0.216 OA
ENDBRANCH  23  24
ENDBRANCH  22  23
ENDBRANCH  15  22
ENDBRANCH   2  11
BRANCH   9  26
ATOM     26  C   UNL A   1     -24.855  -1.012  30.143  0.00  0.00    +0.047 C 
BRANCH  26  27
ATOM     27  C   UNL A   1     -24.973  -2.505  29.788  0.00  0.00    -0.021 C 
ATOM     28  C   UNL A   1     -23.906  -3.173  29.146  0.00  0.00    -0.004 C 
ATOM     29  C   UNL A   1     -23.989  -4.549  28.853  0.00  0.00    -0.000 C 
ATOM     30  C   UNL A   1     -25.137  -5.280  29.205  0.00  0.00    -0.000 C 
ATOM     31  C   UNL A   1     -26.232  -4.611  29.784  0.00  0.00    -0.000 C 
ATOM     32  C   UNL A   1     -26.155  -3.232  30.065  0.00  0.00    -0.004 C 
ENDBRANCH  26  27
BRANCH  26  33
ATOM     33  C   UNL A   1     -25.387  -0.679  31.571  0.00  0.00    +0.080 C 
ATOM     34  C   UNL A   1     -25.189   0.773  32.028  0.00  0.00    +0.045 C 
ATOM     35  C   UNL A   1     -25.336   0.684  33.544  0.00  0.00    +0.023 C 
ATOM     36  C   UNL A   1     -24.829  -0.715  33.905  0.00  0.00    +0.089 C 
ATOM     37  N   UNL A   1     -24.758  -1.481  32.646  0.00  0.00    -0.219 NA
BRANCH  34  40
ATOM     38  C   UNL A   1     -27.336   3.535  31.219  0.00  0.00    +0.035 C 
ATOM     39  O   UNL A   1     -26.598   1.642  30.087  0.00  0.00    -0.356 OA
ATOM     40  C   UNL A   1     -25.598   1.705  31.134  0.00  0.00    +0.117 C 
ATOM     41  C   UNL A   1     -25.982   3.169  31.804  0.00  0.00    +0.032 C 
ATOM     42  C   UNL A   1     -27.802   2.120  30.632  0.00  0.00    +0.142 C 
ENDBRANCH  34  40
ENDBRANCH  26  33
ENDBRANCH   9  26
TORSDOF 9
