MODEL 3505
MODEL 1
REMARK VINA RESULT:    -4.587      0.000      0.000
REMARK INTER + INTRA:          -4.587
REMARK INTER:                  -4.587
REMARK INTRA:                   0.000
REMARK UNBOUND:                 0.000
REMARK  Name = No_3505-gen_results/8p0m/2024-11-27-11-27-31/
REMARK  0 active torsions:
REMARK  status: ('A' for Active; 'I' for Inactive)
REMARK                            x       y       z     vdW  Elec       q    Type
REMARK                         _______ _______ _______ _____ _____    ______ ____
ROOT
ATOM      1  C   UNL A   1     -10.167  -9.849  18.363  0.00  0.00    +0.030 A 
ATOM      2  C   UNL A   1      -9.173 -10.445  18.015  0.00  0.00    +0.140 A 
ATOM      3  C   UNL A   1      -8.044 -10.492  18.825  0.00  0.00    +0.030 A 
ATOM      4  C   UNL A   1      -8.005  -9.794  20.084  0.00  0.00    +0.002 A 
ATOM      5  C   UNL A   1      -9.188  -9.111  20.397  0.00  0.00    +0.000 A 
ATOM      6  C   UNL A   1     -10.223  -9.084  19.589  0.00  0.00    +0.002 A 
ATOM      7  F   UNL A   1      -9.165 -10.944  16.761  0.00  0.00    -0.204 F 
ENDROOT
TORSDOF 0
ENDMDL
ENDMDL
