REMARK  Name = outputs/IAG933/test6/raw/output_3506_IAG933_linker_design_.xyz
REMARK  12 active torsions:
REMARK  status: ('A' for Active; 'I' for Inactive)
REMARK    1  A    between atoms: C_1  and  C_2
REMARK    2  A    between atoms: C_1  and  C_8
REMARK    3  A    between atoms: C_1  and  N_35
REMARK    4  A    between atoms: C_13  and  C_29
REMARK    5  A    between atoms: C_14  and  C_15
REMARK    6  A    between atoms: C_21  and  O_22
REMARK    7  A    between atoms: O_22  and  C_23
REMARK    8  A    between atoms: C_23  and  C_24
REMARK    9  A    between atoms: C_28  and  N_35
REMARK   10  A    between atoms: N_35  and  C_39
REMARK   11  A    between atoms: C_37  and  O_40
REMARK   12  A    between atoms: C_39  and  C_42
REMARK                            x       y       z     vdW  Elec       q    Type
REMARK                         _______ _______ _______ _____ _____    ______ ____
ROOT
ATOM      1  C   UNL A   1     -24.413   1.306  26.840  0.00  0.00    +0.091 C 
ATOM      2  F   UNL A   1     -21.296   0.999  28.105  0.00  0.00    -0.201 F 
ATOM      3  C   UNL A   1     -21.956   2.023  27.484  0.00  0.00    +0.311 C 
ATOM      4  O   UNL A   1     -22.225   1.760  26.043  0.00  0.00    -0.296 OA
ATOM      5  F   UNL A   1     -23.911   0.996  24.546  0.00  0.00    -0.204 F 
ATOM      6  C   UNL A   1     -23.489   1.319  25.727  0.00  0.00    +0.284 C 
ATOM      7  C   UNL A   1     -23.101   2.323  28.434  0.00  0.00    +0.221 C 
ATOM      8  C   UNL A   1     -24.115   1.149  28.139  0.00  0.00    +0.066 C 
ENDROOT
BRANCH   1   9
ATOM      9  C   UNL A   1     -25.688   1.614  26.461  0.00  0.00    +0.021 C 
ATOM     10  C   UNL A   1     -26.250   2.920  26.395  0.00  0.00    +0.073 C 
ATOM     11  C   UNL A   1     -27.438   3.091  25.645  0.00  0.00    +0.106 C 
ATOM     12  N   UNL A   1     -28.075   2.089  25.003  0.00  0.00    -0.208 NA
ATOM     13  C   UNL A   1     -27.543   0.849  25.079  0.00  0.00    +0.253 C 
ATOM     14  C   UNL A   1     -26.354   0.576  25.777  0.00  0.00    +0.189 C 
ATOM     15  F   UNL A   1     -25.860  -0.681  25.795  0.00  0.00    -0.200 F 
BRANCH  10  16
ATOM     16  C   UNL A   1     -25.642   4.093  27.123  0.00  0.00    +0.266 C 
ATOM     17  N   UNL A   1     -25.614   5.252  26.449  0.00  0.00    -0.200 NA
ATOM     18  C   UNL A   1     -25.026   6.479  26.963  0.00  0.00    +0.139 C 
ATOM     19  O   UNL A   1     -25.143   3.966  28.243  0.00  0.00    -0.268 OA
ENDBRANCH  10  16
BRANCH  13  20
ATOM     20  O   UNL A   1     -28.193  -0.208  24.477  0.00  0.00    -0.456 OA
BRANCH  20  21
ATOM     21  C   UNL A   1     -29.460   0.005  23.866  0.00  0.00    +0.243 C 
BRANCH  21  22
ATOM     22  C   UNL A   1     -30.065  -1.377  23.573  0.00  0.00    +0.229 C 
ATOM     23  O   UNL A   1     -30.729  -1.878  24.721  0.00  0.00    -0.216 OA
ENDBRANCH  21  22
ENDBRANCH  20  21
ENDBRANCH  13  20
ENDBRANCH   1   9
BRANCH   7  25
ATOM     24  F   UNL A   1     -22.684   0.625  29.998  0.00  0.00    -0.047 F 
ATOM     25  O   UNL A   1     -22.919   1.972  29.860  0.00  0.00    -0.176 OA
ENDBRANCH   7  25
BRANCH   8  26
ATOM     26  C   UNL A   1     -25.299   1.200  29.142  0.00  0.00    +0.103 C 
BRANCH  26  27
ATOM     27  N   UNL A   1     -25.636  -0.293  29.058  0.00  0.00    -0.265 N 
BRANCH  27  28
ATOM     28  C   UNL A   1     -26.958  -0.489  28.944  0.00  0.00    +0.001 C 
ATOM     29  C   UNL A   1     -29.318   0.364  28.975  0.00  0.00    +0.092 C 
ATOM     30  C   UNL A   1     -28.057  -0.189  28.999  0.00  0.00    -0.070 C 
ENDBRANCH  27  28
BRANCH  27  31
ATOM     31  C   UNL A   1     -24.855  -1.012  30.143  0.00  0.00    +0.119 C 
BRANCH  31  32
ATOM     32  C   UNL A   1     -24.973  -2.505  29.788  0.00  0.00    -0.002 C 
ATOM     33  C   UNL A   1     -23.906  -3.173  29.146  0.00  0.00    -0.003 C 
ATOM     34  C   UNL A   1     -23.989  -4.549  28.853  0.00  0.00    -0.000 C 
ATOM     35  C   UNL A   1     -25.137  -5.280  29.205  0.00  0.00    -0.000 C 
ATOM     36  C   UNL A   1     -26.232  -4.611  29.784  0.00  0.00    -0.000 C 
ATOM     37  C   UNL A   1     -26.155  -3.232  30.065  0.00  0.00    -0.003 C 
ENDBRANCH  31  32
BRANCH  31  38
ATOM     38  C   UNL A   1     -25.387  -0.679  31.571  0.00  0.00    +0.096 C 
ATOM     39  C   UNL A   1     -25.189   0.773  32.028  0.00  0.00    +0.021 C 
ATOM     40  C   UNL A   1     -25.336   0.684  33.544  0.00  0.00    +0.020 C 
ATOM     41  C   UNL A   1     -24.829  -0.715  33.905  0.00  0.00    +0.089 C 
ATOM     42  N   UNL A   1     -24.758  -1.481  32.646  0.00  0.00    -0.217 NA
ENDBRANCH  31  38
ENDBRANCH  27  31
ENDBRANCH  26  27
ENDBRANCH   8  26
TORSDOF 12
