MODEL 3507
MODEL 1
REMARK VINA RESULT:    -5.237      0.000      0.000
REMARK INTER + INTRA:          -5.588
REMARK INTER:                  -5.543
REMARK INTRA:                  -0.046
REMARK UNBOUND:                -0.046
REMARK  Name = No_3507-gen_results/8p0m/2024-11-27-11-27-31/
REMARK  1 active torsions:
REMARK  status: ('A' for Active; 'I' for Inactive)
REMARK    1  A    between atoms: C_1  and  C_10
REMARK                            x       y       z     vdW  Elec       q    Type
REMARK                         _______ _______ _______ _____ _____    ______ ____
ROOT
ATOM      1  C   UNL A   1     -24.881  -3.043  29.132  0.00  0.00    -0.014 C 
ATOM      2  C   UNL A   1     -24.412  -1.979  28.797  0.00  0.00    -0.046 C 
ATOM      3  C   UNL A   1     -24.958  -1.131  27.848  0.00  0.00    +0.026 C 
ATOM      4  C   UNL A   1     -24.380   0.102  27.371  0.00  0.00    +0.026 C 
ATOM      5  C   UNL A   1     -23.138   0.519  27.907  0.00  0.00    -0.048 C 
ATOM      6  C   UNL A   1     -22.464   1.691  27.493  0.00  0.00    -0.034 C 
ATOM      7  C   UNL A   1     -23.083   2.275  26.320  0.00  0.00    +0.030 C 
ATOM      8  C   UNL A   1     -23.049  -1.515  29.335  0.00  0.00    +0.026 C 
ATOM      9  C   UNL A   1     -22.448  -0.332  28.936  0.00  0.00    +0.026 C 
ENDROOT
BRANCH   1  10
ATOM     10  C   UNL A   1     -26.106  -2.928  29.973  0.00  0.00    +0.135 C 
ATOM     11  N   UNL A   1     -27.060  -3.887  29.824  0.00  0.00    -0.126 NA
ENDBRANCH   1  10
TORSDOF 1
ENDMDL
ENDMDL
