REMARK  Name = No_3507-gen_results/8p0m/2024-11-27-11-27-31/
REMARK  1 active torsions:
REMARK  status: ('A' for Active; 'I' for Inactive)
REMARK    1  A    between atoms: C_1  and  C_10
REMARK                            x       y       z     vdW  Elec       q    Type
REMARK                         _______ _______ _______ _____ _____    ______ ____
ROOT
ATOM      1  C   UNL A   1     -28.016  -0.814  28.878  0.00  0.00    -0.014 C 
ATOM      2  C   UNL A   1     -27.064  -0.119  28.608  0.00  0.00    -0.046 C 
ATOM      3  C   UNL A   1     -26.972   0.714  27.506  0.00  0.00    +0.026 C 
ATOM      4  C   UNL A   1     -25.820   1.491  27.116  0.00  0.00    +0.026 C 
ATOM      5  C   UNL A   1     -24.656   1.424  27.918  0.00  0.00    -0.048 C 
ATOM      6  C   UNL A   1     -23.460   2.116  27.616  0.00  0.00    -0.034 C 
ATOM      7  C   UNL A   1     -23.507   2.708  26.294  0.00  0.00    +0.030 C 
ATOM      8  C   UNL A   1     -25.773  -0.195  29.440  0.00  0.00    +0.026 C 
ATOM      9  C   UNL A   1     -24.639   0.541  29.134  0.00  0.00    +0.026 C 
ENDROOT
BRANCH   1  10
ATOM     10  C   UNL A   1     -29.197  -0.057  29.381  0.00  0.00    +0.135 C 
ATOM     11  N   UNL A   1     -30.305  -0.774  29.715  0.00  0.00    -0.126 NA
ENDBRANCH   1  10
TORSDOF 1
