REMARK  Name = No_3508-gen_results/8p0m/2024-11-27-11-27-31/
REMARK  1 active torsions:
REMARK  status: ('A' for Active; 'I' for Inactive)
REMARK    1  A    between atoms: C_5  and  N_7
REMARK                            x       y       z     vdW  Elec       q    Type
REMARK                         _______ _______ _______ _____ _____    ______ ____
ROOT
ATOM      1  N   UNL A   1     -28.712  -2.761  30.290  0.00  0.00    -0.227 N 
ATOM      2  C   UNL A   1     -29.911  -2.440  30.479  0.00  0.00    +0.308 C 
ATOM      3  O   UNL A   1     -30.350  -1.384  30.402  0.00  0.00    -0.265 OA
ATOM      4  C   UNL A   1     -30.783  -3.679  30.890  0.00  0.00    +0.304 C 
ATOM      5  N   UNL A   1     -30.323  -4.694  30.888  0.00  0.00    -0.264 N 
ATOM      6  C   UNL A   1     -28.421  -4.187  30.593  0.00  0.00    +0.219 C 
ATOM      7  C   UNL A   1     -31.232  -5.848  31.222  0.00  0.00    +0.121 C 
ATOM      8  C   UNL A   1     -29.055  -5.125  30.842  0.00  0.00    +0.145 C 
ATOM      9  C   UNL A   1     -31.043  -6.791  32.172  0.00  0.00    -0.000 C 
ATOM     10  C   UNL A   1     -30.409  -6.294  33.229  0.00  0.00    +0.051 C 
ATOM     11  C   UNL A   1     -30.332  -4.892  33.494  0.00  0.00    +0.000 A 
ATOM     12  C   UNL A   1     -30.837  -4.590  34.682  0.00  0.00    -0.002 A 
ATOM     13  C   UNL A   1     -30.731  -3.199  35.038  0.00  0.00    -0.003 A 
ATOM     14  C   UNL A   1     -30.150  -2.200  34.205  0.00  0.00    -0.001 A 
ATOM     15  C   UNL A   1     -29.426  -2.704  33.105  0.00  0.00    -0.002 A 
ATOM     16  C   UNL A   1     -29.560  -3.973  32.790  0.00  0.00    +0.007 A 
ATOM     17  C   UNL A   1     -28.141  -4.505  32.803  0.00  0.00    +0.171 C 
ATOM     18  O   UNL A   1     -27.322  -4.160  31.680  0.00  0.00    -0.331 OA
ATOM     19  O   UNL A   1     -32.056  -3.307  30.926  0.00  0.00    -0.265 OA
ATOM     20  C   UNL A   1     -29.799  -7.215  34.240  0.00  0.00    +0.249 C 
ATOM     21  O   UNL A   1     -29.607  -8.361  33.989  0.00  0.00    -0.270 OA
ATOM     22  N   UNL A   1     -29.541  -6.799  35.569  0.00  0.00    -0.270 N 
ATOM     23  C   UNL A   1     -29.085  -7.140  36.447  0.00  0.00    +0.116 C 
ATOM     24  C   UNL A   1     -30.056  -5.209  35.673  0.00  0.00    +0.120 C 
ENDROOT
BRANCH   1  29
ATOM     25  C   UNL A   1     -28.016  -0.814  28.878  0.00  0.00    +0.015 A 
ATOM     26  C   UNL A   1     -27.064  -0.119  28.608  0.00  0.00    +0.001 A 
ATOM     27  C   UNL A   1     -25.765  -0.390  29.036  0.00  0.00    +0.000 A 
ATOM     28  C   UNL A   1     -25.489  -1.154  29.717  0.00  0.00    +0.001 A 
ATOM     29  C   UNL A   1     -27.761  -1.903  29.857  0.00  0.00    +0.056 A 
ATOM     30  C   UNL A   1     -26.478  -2.106  30.236  0.00  0.00    +0.015 A 
ENDBRANCH   1  29
TORSDOF 1
