MODEL 3509
MODEL 1
REMARK VINA RESULT:    -6.976      0.000      0.000
REMARK INTER + INTRA:          -8.970
REMARK INTER:                  -8.200
REMARK INTRA:                  -0.770
REMARK UNBOUND:                -0.770
REMARK  Name = No_3509-gen_results/8p0m/2024-11-27-11-27-31/
REMARK  3 active torsions:
REMARK  status: ('A' for Active; 'I' for Inactive)
REMARK    1  A    between atoms: C_3  and  C_4
REMARK    2  A    between atoms: C_4  and  C_8
REMARK    3  A    between atoms: C_7  and  C_14
REMARK                            x       y       z     vdW  Elec       q    Type
REMARK                         _______ _______ _______ _____ _____    ______ ____
ROOT
ATOM      1  C   UNL A   1     -25.692  -0.537  26.532  0.00  0.00    -0.004 A 
ATOM      2  C   UNL A   1     -25.334  -0.011  25.692  0.00  0.00    -0.000 A 
ATOM      3  C   UNL A   1     -24.953  -0.350  27.791  0.00  0.00    -0.011 A 
ATOM      4  C   UNL A   1     -24.325   1.067  25.564  0.00  0.00    +0.000 A 
ATOM      5  C   UNL A   1     -23.586   1.310  26.716  0.00  0.00    +0.006 A 
ATOM      6  C   UNL A   1     -23.874   0.640  27.886  0.00  0.00    +0.076 A 
ENDROOT
BRANCH   6   7
ATOM      7  C   UNL A   1     -23.115   0.905  29.044  0.00  0.00    +0.388 C 
ATOM      8  O   UNL A   1     -23.216   1.819  29.735  0.00  0.00    -0.241 OA
ATOM      9  O   UNL A   1     -21.873   0.254  29.090  0.00  0.00    -0.241 OA
ENDBRANCH   6   7
BRANCH   3  10
ATOM     10  C   UNL A   1     -25.150  -1.067  29.042  0.00  0.00    +0.053 C 
BRANCH  10  11
ATOM     11  C   UNL A   1     -24.997  -2.529  28.977  0.00  0.00    -0.018 A 
ATOM     12  C   UNL A   1     -24.042  -3.066  28.563  0.00  0.00    -0.004 A 
ATOM     13  C   UNL A   1     -23.971  -4.554  28.582  0.00  0.00    -0.000 A 
ATOM     14  C   UNL A   1     -25.034  -5.317  29.095  0.00  0.00    -0.000 A 
ATOM     15  C   UNL A   1     -26.113  -4.632  29.631  0.00  0.00    -0.000 A 
ATOM     16  C   UNL A   1     -26.124  -3.200  29.632  0.00  0.00    -0.004 A 
ENDBRANCH  10  11
ENDBRANCH   3  10
TORSDOF 3
ENDMDL
ENDMDL
