REMARK  Name = No_351-gen_results/8p0m/2024-11-27-11-27-31/
REMARK  4 active torsions:
REMARK  status: ('A' for Active; 'I' for Inactive)
REMARK    1  A    between atoms: C_1  and  C_2
REMARK    2  A    between atoms: C_1  and  N_8
REMARK    3  A    between atoms: C_5  and  C_11
REMARK    4  A    between atoms: N_8  and  C_10
REMARK                            x       y       z     vdW  Elec       q    Type
REMARK                         _______ _______ _______ _____ _____    ______ ____
ROOT
ATOM      1  C   UNL A   1     -28.016  -0.814  28.878  0.00  0.00    +0.118 C 
ENDROOT
BRANCH   1   2
ATOM      2  C   UNL A   1     -27.064  -0.119  28.608  0.00  0.00    -0.002 A 
ATOM      3  C   UNL A   1     -25.792  -0.430  29.076  0.00  0.00    -0.002 A 
ATOM      4  C   UNL A   1     -24.546   0.349  28.823  0.00  0.00    +0.006 A 
ATOM      5  C   UNL A   1     -24.659   1.420  27.888  0.00  0.00    +0.080 A 
ATOM      6  C   UNL A   1     -25.947   1.681  27.379  0.00  0.00    +0.006 A 
ATOM      7  C   UNL A   1     -27.044   0.974  27.687  0.00  0.00    -0.002 A 
BRANCH   5   8
ATOM      8  C   UNL A   1     -23.462   2.174  27.627  0.00  0.00    +0.388 C 
ATOM      9  O   UNL A   1     -23.479   3.147  26.911  0.00  0.00    -0.241 OA
ATOM     10  O   UNL A   1     -22.266   1.711  27.989  0.00  0.00    -0.241 OA
ENDBRANCH   5   8
ENDBRANCH   1   2
BRANCH   1  11
ATOM     11  N   UNL A   1     -29.180  -0.120  29.129  0.00  0.00    -0.302 N 
ATOM     12  C   UNL A   1     -29.584   0.132  30.404  0.00  0.00    +0.113 C 
BRANCH  11  13
ATOM     13  C   UNL A   1     -30.054   0.097  28.054  0.00  0.00    +0.048 A 
ATOM     14  C   UNL A   1     -31.389  -0.199  28.287  0.00  0.00    +0.015 A 
ATOM     15  C   UNL A   1     -32.232   0.336  27.496  0.00  0.00    +0.001 A 
ATOM     16  C   UNL A   1     -31.843   0.529  26.227  0.00  0.00    +0.000 A 
ATOM     17  C   UNL A   1     -30.494   0.795  25.875  0.00  0.00    +0.001 A 
ATOM     18  C   UNL A   1     -29.632   0.622  26.828  0.00  0.00    +0.015 A 
ENDBRANCH  11  13
ENDBRANCH   1  11
TORSDOF 4
