MODEL 3510
MODEL 1
REMARK VINA RESULT:    -5.042      0.000      0.000
REMARK INTER + INTRA:          -5.276
REMARK INTER:                  -5.337
REMARK INTRA:                   0.062
REMARK UNBOUND:                 0.062
REMARK  Name = No_3510-gen_results/8p0m/2024-11-27-11-27-31/
REMARK  1 active torsions:
REMARK  status: ('A' for Active; 'I' for Inactive)
REMARK    1  A    between atoms: C_2  and  C_8
REMARK                            x       y       z     vdW  Elec       q    Type
REMARK                         _______ _______ _______ _____ _____    ______ ____
ROOT
ATOM      1  C   UNL A   1     -25.810  -2.803  29.439  0.00  0.00    +0.011 A 
ATOM      2  C   UNL A   1     -24.711  -2.594  28.979  0.00  0.00    +0.001 A 
ATOM      3  C   UNL A   1     -23.885  -3.643  28.589  0.00  0.00    +0.000 A 
ATOM      4  C   UNL A   1     -24.295  -5.013  28.763  0.00  0.00    +0.001 A 
ATOM      5  C   UNL A   1     -25.569  -5.163  29.324  0.00  0.00    +0.011 A 
ATOM      6  C   UNL A   1     -26.304  -4.138  29.692  0.00  0.00    +0.058 A 
ATOM      7 CL   UNL A   1     -27.816  -4.440  30.416  0.00  0.00    -0.082 Cl
ENDROOT
BRANCH   2   8
ATOM      8  C   UNL A   1     -24.111  -1.244  28.758  0.00  0.00    -0.004 C 
ATOM      9  C   UNL A   1     -23.454  -0.627  29.679  0.00  0.00    -0.026 C 
ATOM     10  C   UNL A   1     -23.425  -1.148  31.003  0.00  0.00    +0.031 C 
ENDBRANCH   2   8
TORSDOF 1
ENDMDL
ENDMDL
