REMARK  Name = No_3511-gen_results/8p0m/2024-11-27-11-27-31/
REMARK  9 active torsions:
REMARK  status: ('A' for Active; 'I' for Inactive)
REMARK    1  A    between atoms: C_1  and  C_6
REMARK    2  A    between atoms: C_3  and  C_14
REMARK    3  A    between atoms: C_5  and  C_10
REMARK    4  A    between atoms: C_6  and  O_8
REMARK    5  A    between atoms: O_8  and  C_21
REMARK    6  A    between atoms: C_21  and  C_22
REMARK    7  A    between atoms: C_22  and  C_23
REMARK    8  A    between atoms: C_25  and  C_29
REMARK    9  A    between atoms: C_29  and  C_30
REMARK                            x       y       z     vdW  Elec       q    Type
REMARK                         _______ _______ _______ _____ _____    ______ ____
ROOT
ATOM      1  C   UNL A   1     -28.022  -1.590  30.088  0.00  0.00    +0.341 C 
ATOM      2  O   UNL A   1     -28.836  -1.356  31.056  0.00  0.00    -0.245 OA
ENDROOT
BRANCH   1   3
ATOM      3  C   UNL A   1     -28.016  -0.814  28.878  0.00  0.00    +0.076 A 
ATOM      4  C   UNL A   1     -27.064  -0.119  28.608  0.00  0.00    +0.011 A 
ATOM      5  C   UNL A   1     -26.972   0.714  27.506  0.00  0.00    +0.057 A 
ATOM      6  C   UNL A   1     -28.105   0.774  26.642  0.00  0.00    +0.009 A 
ATOM      7  C   UNL A   1     -29.201   0.104  27.053  0.00  0.00    +0.055 A 
ATOM      8  C   UNL A   1     -29.164  -0.639  28.148  0.00  0.00    +0.011 A 
BRANCH   5   9
ATOM      9  C   UNL A   1     -25.677   1.421  27.129  0.00  0.00    +0.265 C 
ATOM     10  N   UNL A   1     -24.578   0.937  27.472  0.00  0.00    -0.272 N 
ATOM     11  C   UNL A   1     -24.030   0.009  27.796  0.00  0.00    +0.083 A 
ATOM     12  C   UNL A   1     -22.747  -0.072  28.427  0.00  0.00    +0.021 A 
ATOM     13  C   UNL A   1     -22.250   1.246  28.080  0.00  0.00    +0.021 A 
ATOM     14  C   UNL A   1     -23.475   2.012  27.641  0.00  0.00    +0.083 A 
ATOM     15  O   UNL A   1     -25.869   2.406  26.336  0.00  0.00    -0.267 OA
ENDBRANCH   5   9
BRANCH   7  16
ATOM     16  C   UNL A   1     -30.282   0.276  25.996  0.00  0.00    +0.265 C 
ATOM     17  N   UNL A   1     -31.364  -0.334  26.262  0.00  0.00    -0.200 NA
ATOM     18  O   UNL A   1     -30.197   0.915  24.970  0.00  0.00    -0.268 OA
ATOM     19  C   UNL A   1     -32.506  -0.370  25.322  0.00  0.00    +0.139 C 
ENDBRANCH   7  16
ENDBRANCH   1   3
BRANCH   1  20
ATOM     20  O   UNL A   1     -27.115  -2.378  30.350  0.00  0.00    -0.445 OA
BRANCH  20  21
ATOM     21  C   UNL A   1     -27.387  -3.764  30.225  0.00  0.00    +0.213 C 
BRANCH  21  22
ATOM     22  C   UNL A   1     -27.834  -4.237  28.951  0.00  0.00    +0.074 C 
BRANCH  22  23
ATOM     23  C   UNL A   1     -29.082  -5.122  29.309  0.00  0.00    -0.019 A 
ATOM     24  C   UNL A   1     -30.221  -4.948  28.484  0.00  0.00    -0.008 A 
ATOM     25  C   UNL A   1     -31.296  -5.897  28.689  0.00  0.00    -0.018 A 
ATOM     26  C   UNL A   1     -31.274  -6.702  29.783  0.00  0.00    -0.004 A 
ATOM     27  C   UNL A   1     -30.241  -6.716  30.690  0.00  0.00    -0.001 A 
ATOM     28  C   UNL A   1     -29.144  -5.878  30.501  0.00  0.00    -0.004 A 
BRANCH  25  29
ATOM     29  C   UNL A   1     -32.388  -5.857  27.722  0.00  0.00    +0.053 C 
BRANCH  29  30
ATOM     30  C   UNL A   1     -33.162  -4.790  27.514  0.00  0.00    -0.018 A 
ATOM     31  C   UNL A   1     -33.311  -3.911  28.361  0.00  0.00    -0.004 A 
ATOM     32  C   UNL A   1     -34.145  -2.676  28.142  0.00  0.00    -0.000 A 
ATOM     33  C   UNL A   1     -34.757  -2.599  26.931  0.00  0.00    -0.000 A 
ATOM     34  C   UNL A   1     -34.583  -3.569  25.956  0.00  0.00    -0.000 A 
ATOM     35  C   UNL A   1     -33.758  -4.676  26.227  0.00  0.00    -0.004 A 
ENDBRANCH  29  30
ENDBRANCH  25  29
ENDBRANCH  22  23
ENDBRANCH  21  22
ENDBRANCH  20  21
ENDBRANCH   1  20
TORSDOF 9
