MODEL 3511
MODEL 1
REMARK VINA RESULT:    -6.480      0.000      0.000
REMARK INTER + INTRA:         -14.570
REMARK INTER:                  -9.889
REMARK INTRA:                  -4.681
REMARK UNBOUND:                -4.681
REMARK  Name = No_3511-gen_results/8p0m/2024-11-27-11-27-31/
REMARK  9 active torsions:
REMARK  status: ('A' for Active; 'I' for Inactive)
REMARK    1  A    between atoms: C_1  and  C_6
REMARK    2  A    between atoms: C_3  and  C_14
REMARK    3  A    between atoms: C_5  and  C_10
REMARK    4  A    between atoms: C_6  and  O_8
REMARK    5  A    between atoms: O_8  and  C_21
REMARK    6  A    between atoms: C_21  and  C_22
REMARK    7  A    between atoms: C_22  and  C_23
REMARK    8  A    between atoms: C_25  and  C_29
REMARK    9  A    between atoms: C_29  and  C_30
REMARK                            x       y       z     vdW  Elec       q    Type
REMARK                         _______ _______ _______ _____ _____    ______ ____
ROOT
ATOM      1  C   UNL A   1     -30.114 -12.107  12.272  0.00  0.00    +0.341 C 
ATOM      2  O   UNL A   1     -30.950 -11.557  13.080  0.00  0.00    -0.245 OA
ENDROOT
BRANCH   1   3
ATOM      3  C   UNL A   1     -29.751 -11.515  11.014  0.00  0.00    +0.076 A 
ATOM      4  C   UNL A   1     -30.084 -10.381  10.758  0.00  0.00    +0.011 A 
ATOM      5  C   UNL A   1     -29.845  -9.730   9.560  0.00  0.00    +0.057 A 
ATOM      6  C   UNL A   1     -29.178 -10.473   8.541  0.00  0.00    +0.009 A 
ATOM      7  C   UNL A   1     -28.955 -11.776   8.805  0.00  0.00    +0.055 A 
ATOM      8  C   UNL A   1     -29.259 -12.284   9.990  0.00  0.00    +0.011 A 
BRANCH   5   9
ATOM      9  C   UNL A   1     -30.130  -8.246   9.371  0.00  0.00    +0.265 C 
ATOM     10  N   UNL A   1     -31.134  -7.730   9.905  0.00  0.00    -0.272 N 
ATOM     11  C   UNL A   1     -31.906  -7.821  10.718  0.00  0.00    +0.083 A 
ATOM     12  C   UNL A   1     -33.155  -7.128  10.818  0.00  0.00    +0.021 A 
ATOM     13  C   UNL A   1     -32.875  -6.041   9.899  0.00  0.00    +0.021 A 
ATOM     14  C   UNL A   1     -31.661  -6.499   9.126  0.00  0.00    +0.083 A 
ATOM     15  O   UNL A   1     -29.177  -7.636   8.775  0.00  0.00    -0.267 OA
ENDBRANCH   5   9
BRANCH   7  16
ATOM     16  C   UNL A   1     -28.226 -12.381   7.615  0.00  0.00    +0.265 C 
ATOM     17  N   UNL A   1     -28.244 -11.651   6.575  0.00  0.00    -0.200 NA
ATOM     18  O   UNL A   1     -27.659 -13.451   7.579  0.00  0.00    -0.268 OA
ATOM     19  C   UNL A   1     -27.672 -12.094   5.284  0.00  0.00    +0.139 C 
ENDBRANCH   7  16
ENDBRANCH   1   3
BRANCH   1  20
ATOM     20  O   UNL A   1     -29.490 -13.058  12.738  0.00  0.00    -0.445 OA
BRANCH  20  21
ATOM     21  C   UNL A   1     -30.224 -14.213  13.110  0.00  0.00    +0.213 C 
BRANCH  21  22
ATOM     22  C   UNL A   1     -29.687 -15.485  12.738  0.00  0.00    +0.074 C 
BRANCH  22  23
ATOM     23  C   UNL A   1     -29.944 -15.550  11.190  0.00  0.00    -0.019 A 
ATOM     24  C   UNL A   1     -31.220 -15.115  10.755  0.00  0.00    -0.008 A 
ATOM     25  C   UNL A   1     -31.387 -14.990   9.322  0.00  0.00    -0.018 A 
ATOM     26  C   UNL A   1     -30.450 -15.519   8.493  0.00  0.00    -0.004 A 
ATOM     27  C   UNL A   1     -29.298 -16.120   8.943  0.00  0.00    -0.001 A 
ATOM     28  C   UNL A   1     -29.049 -16.201  10.311  0.00  0.00    -0.004 A 
BRANCH  25  29
ATOM     29  C   UNL A   1     -32.622 -14.359   8.866  0.00  0.00    +0.053 C 
BRANCH  29  30
ATOM     30  C   UNL A   1     -32.735 -13.061   8.578  0.00  0.00    -0.018 A 
ATOM     31  C   UNL A   1     -32.413 -12.601   7.484  0.00  0.00    -0.004 A 
ATOM     32  C   UNL A   1     -32.565 -11.149   7.114  0.00  0.00    -0.000 A 
ATOM     33  C   UNL A   1     -33.072 -10.353   8.093  0.00  0.00    -0.000 A 
ATOM     34  C   UNL A   1     -33.461 -10.858   9.324  0.00  0.00    -0.000 A 
ATOM     35  C   UNL A   1     -33.319 -12.235   9.578  0.00  0.00    -0.004 A 
ENDBRANCH  29  30
ENDBRANCH  25  29
ENDBRANCH  22  23
ENDBRANCH  21  22
ENDBRANCH  20  21
ENDBRANCH   1  20
TORSDOF 9
ENDMDL
ENDMDL
