MODEL 3513
MODEL 1
REMARK VINA RESULT:    -8.190      0.000      0.000
REMARK INTER + INTRA:          -8.515
REMARK INTER:                  -8.668
REMARK INTRA:                   0.153
REMARK UNBOUND:                 0.153
REMARK  Name = No_3513-gen_results/8p0m/2024-11-27-11-27-31/
REMARK  1 active torsions:
REMARK  status: ('A' for Active; 'I' for Inactive)
REMARK    1  A    between atoms: C_16  and  C_19
REMARK                            x       y       z     vdW  Elec       q    Type
REMARK                         _______ _______ _______ _____ _____    ______ ____
ROOT
ATOM      1  C   UNL A   1     -27.594   0.021  27.468  0.00  0.00    +0.033 A 
ATOM      2  C   UNL A   1     -26.482  -0.151  27.912  0.00  0.00    +0.037 A 
ATOM      3  C   UNL A   1     -25.356   0.534  27.459  0.00  0.00    +0.003 A 
ATOM      4  C   UNL A   1     -25.492   1.467  26.357  0.00  0.00    +0.002 A 
ATOM      5  C   UNL A   1     -26.787   1.621  25.863  0.00  0.00    +0.030 A 
ATOM      6  C   UNL A   1     -27.796   0.922  26.344  0.00  0.00    +0.140 A 
ATOM      7  C   UNL A   1     -23.960   0.381  27.961  0.00  0.00    -0.000 A 
ATOM      8  C   UNL A   1     -23.699  -0.085  29.146  0.00  0.00    +0.022 A 
ATOM      9  C   UNL A   1     -22.354  -0.151  29.644  0.00  0.00    +0.135 A 
ATOM     10  C   UNL A   1     -21.294   0.371  28.987  0.00  0.00    +0.037 A 
ATOM     11  C   UNL A   1     -22.843   0.967  27.203  0.00  0.00    -0.000 A 
ATOM     12  C   UNL A   1     -21.526   0.934  27.749  0.00  0.00    +0.003 A 
ATOM     13  F   UNL A   1     -29.016   1.104  25.830  0.00  0.00    -0.204 F 
ATOM     14  O   UNL A   1     -22.177  -0.738  30.877  0.00  0.00    -0.476 OA
ATOM     15  C   UNL A   1     -23.374  -1.126  31.446  0.00  0.00    +0.206 C 
ATOM     16  C   UNL A   1     -24.623  -0.643  29.997  0.00  0.00    +0.099 C 
ATOM     17  C   UNL A   1     -24.428  -0.520  31.439  0.00  0.00    +0.063 C 
ATOM     18  C   UNL A   1     -26.037   0.030  29.710  0.00  0.00    +0.180 C 
ATOM     19  O   UNL A   1     -26.877   0.379  30.421  0.00  0.00    -0.291 OA
ENDROOT
BRANCH  16  20
ATOM     20  C   UNL A   1     -24.848  -2.186  29.575  0.00  0.00    -0.012 A 
ATOM     21  C   UNL A   1     -24.060  -2.738  28.985  0.00  0.00    -0.004 A 
ATOM     22  C   UNL A   1     -24.148  -4.211  28.572  0.00  0.00    -0.000 A 
ATOM     23  C   UNL A   1     -25.148  -4.846  28.964  0.00  0.00    -0.000 A 
ATOM     24  C   UNL A   1     -26.177  -4.186  29.705  0.00  0.00    -0.000 A 
ATOM     25  C   UNL A   1     -26.027  -2.866  30.049  0.00  0.00    -0.004 A 
ENDBRANCH  16  20
TORSDOF 1
ENDMDL
ENDMDL
