REMARK  Name = No_3513-gen_results/8p0m/2024-11-27-11-27-31/
REMARK  1 active torsions:
REMARK  status: ('A' for Active; 'I' for Inactive)
REMARK    1  A    between atoms: C_16  and  C_19
REMARK                            x       y       z     vdW  Elec       q    Type
REMARK                         _______ _______ _______ _____ _____    ______ ____
ROOT
ATOM      1  C   UNL A   1     -28.016  -0.814  28.878  0.00  0.00    +0.033 A 
ATOM      2  C   UNL A   1     -27.064  -0.119  28.608  0.00  0.00    +0.037 A 
ATOM      3  C   UNL A   1     -25.765  -0.390  29.036  0.00  0.00    +0.003 A 
ATOM      4  C   UNL A   1     -25.530  -1.530  29.901  0.00  0.00    +0.002 A 
ATOM      5  C   UNL A   1     -26.658  -2.292  30.203  0.00  0.00    +0.030 A 
ATOM      6  C   UNL A   1     -27.855  -1.956  29.763  0.00  0.00    +0.140 A 
ATOM      7  C   UNL A   1     -24.544   0.413  28.738  0.00  0.00    -0.000 A 
ATOM      8  C   UNL A   1     -24.473   1.206  27.711  0.00  0.00    +0.022 A 
ATOM      9  C   UNL A   1     -23.263   1.911  27.393  0.00  0.00    +0.135 A 
ATOM     10  C   UNL A   1     -22.096   1.712  28.046  0.00  0.00    +0.037 A 
ATOM     11  C   UNL A   1     -23.301   0.156  29.482  0.00  0.00    -0.000 A 
ATOM     12  C   UNL A   1     -22.102   0.831  29.108  0.00  0.00    +0.003 A 
ATOM     13  F   UNL A   1     -28.903  -2.718  30.087  0.00  0.00    -0.204 F 
ATOM     14  O   UNL A   1     -23.317   2.790  26.334  0.00  0.00    -0.476 OA
ATOM     15  C   UNL A   1     -24.556   2.796  25.724  0.00  0.00    +0.206 C 
ATOM     16  C   UNL A   1     -25.527   1.537  26.893  0.00  0.00    +0.099 C 
ATOM     17  C   UNL A   1     -25.269   1.840  25.487  0.00  0.00    +0.063 C 
ATOM     18  C   UNL A   1     -26.547   0.314  26.873  0.00  0.00    +0.180 C 
ATOM     19  O   UNL A   1     -27.155  -0.161  26.015  0.00  0.00    -0.291 OA
ENDROOT
BRANCH  16  20
ATOM     20  C   UNL A   1     -26.373   2.721  27.593  0.00  0.00    -0.012 A 
ATOM     21  C   UNL A   1     -25.943   3.290  28.468  0.00  0.00    -0.004 A 
ATOM     22  C   UNL A   1     -26.636   4.459  29.177  0.00  0.00    -0.000 A 
ATOM     23  C   UNL A   1     -27.734   4.827  28.712  0.00  0.00    -0.000 A 
ATOM     24  C   UNL A   1     -28.322   4.130  27.611  0.00  0.00    -0.000 A 
ATOM     25  C   UNL A   1     -27.639   3.098  27.017  0.00  0.00    -0.004 A 
ENDBRANCH  16  20
TORSDOF 1
