MODEL 3514
MODEL 1
REMARK VINA RESULT:    -7.337      0.000      0.000
REMARK INTER + INTRA:          -9.558
REMARK INTER:                  -8.194
REMARK INTRA:                  -1.364
REMARK UNBOUND:                -1.364
REMARK  Name = No_3514-gen_results/8p0m/2024-11-27-11-27-31/
REMARK  2 active torsions:
REMARK  status: ('A' for Active; 'I' for Inactive)
REMARK    1  A    between atoms: C_3  and  C_7
REMARK    2  A    between atoms: C_9  and  C_10
REMARK                            x       y       z     vdW  Elec       q    Type
REMARK                         _______ _______ _______ _____ _____    ______ ____
ROOT
ATOM      1  C   UNL A   1     -24.500  -0.290  29.597  0.00  0.00    +0.000 A 
ATOM      2  C   UNL A   1     -24.370   1.034  29.283  0.00  0.00    +0.000 A 
ATOM      3  C   UNL A   1     -24.815  -1.249  28.662  0.00  0.00    +0.000 A 
ATOM      4  C   UNL A   1     -24.918  -0.759  27.320  0.00  0.00    +0.000 A 
ATOM      5  C   UNL A   1     -24.815   0.606  27.050  0.00  0.00    +0.000 A 
ATOM      6  C   UNL A   1     -24.519   1.483  27.991  0.00  0.00    +0.000 A 
ENDROOT
BRANCH   1   9
ATOM      7  C   UNL A   1     -23.039  -1.098  31.541  0.00  0.00    +0.000 A 
ATOM      8  C   UNL A   1     -22.956  -1.260  32.579  0.00  0.00    +0.000 A 
ATOM      9  C   UNL A   1     -24.264  -0.599  31.048  0.00  0.00    +0.000 A 
ATOM     10  C   UNL A   1     -25.335  -0.339  31.879  0.00  0.00    +0.000 A 
ATOM     11  C   UNL A   1     -23.931  -1.064  33.671  0.00  0.00    +0.000 A 
ATOM     12  C   UNL A   1     -25.120  -0.588  33.241  0.00  0.00    +0.000 A 
ENDBRANCH   1   9
BRANCH   3  13
ATOM     13  C   UNL A   1     -25.025  -2.551  28.977  0.00  0.00    +0.000 A 
ATOM     14  C   UNL A   1     -26.204  -2.979  29.501  0.00  0.00    +0.000 A 
ATOM     15  C   UNL A   1     -26.273  -4.491  29.711  0.00  0.00    +0.000 A 
ATOM     16  C   UNL A   1     -25.221  -5.215  29.315  0.00  0.00    +0.000 A 
ATOM     17  C   UNL A   1     -24.074  -3.519  28.561  0.00  0.00    +0.000 A 
ATOM     18  C   UNL A   1     -24.150  -4.807  28.713  0.00  0.00    +0.000 A 
ENDBRANCH   3  13
TORSDOF 2
ENDMDL
ENDMDL
