MODEL 3515
MODEL 1
REMARK VINA RESULT:    -7.146      0.000      0.000
REMARK INTER + INTRA:          -9.242
REMARK INTER:                  -8.399
REMARK INTRA:                  -0.843
REMARK UNBOUND:                -0.843
REMARK  Name = No_3515-gen_results/8p0m/2024-11-27-11-27-31/
REMARK  3 active torsions:
REMARK  status: ('A' for Active; 'I' for Inactive)
REMARK    1  A    between atoms: C_3  and  C_7
REMARK    2  A    between atoms: C_7  and  C_8
REMARK    3  A    between atoms: C_7  and  C_14
REMARK                            x       y       z     vdW  Elec       q    Type
REMARK                         _______ _______ _______ _____ _____    ______ ____
ROOT
ATOM      1  C   UNL A   1     -23.970  -1.480  29.636  0.00  0.00    +0.045 C 
ENDROOT
BRANCH   1   4
ATOM      2  C   UNL A   1     -21.611  -0.716  29.076  0.00  0.00    -0.004 A 
ATOM      3  C   UNL A   1     -21.020  -0.045  28.519  0.00  0.00    -0.000 A 
ATOM      4  C   UNL A   1     -23.053  -0.477  28.941  0.00  0.00    -0.018 A 
ATOM      5  C   UNL A   1     -23.546   0.598  28.323  0.00  0.00    -0.004 A 
ATOM      6  C   UNL A   1     -21.315   1.176  27.809  0.00  0.00    -0.000 A 
ATOM      7  C   UNL A   1     -22.658   1.395  27.716  0.00  0.00    -0.000 A 
ENDBRANCH   1   4
BRANCH   1   8
ATOM      8  C   UNL A   1     -24.593  -2.500  28.838  0.00  0.00    -0.018 A 
ATOM      9  C   UNL A   1     -23.888  -3.637  28.443  0.00  0.00    -0.004 A 
ATOM     10  C   UNL A   1     -24.185  -4.795  28.574  0.00  0.00    -0.000 A 
ATOM     11  C   UNL A   1     -25.272  -5.212  29.428  0.00  0.00    -0.000 A 
ATOM     12  C   UNL A   1     -26.180  -4.185  29.705  0.00  0.00    -0.000 A 
ATOM     13  C   UNL A   1     -25.891  -2.848  29.330  0.00  0.00    -0.004 A 
ENDBRANCH   1   8
BRANCH   1  14
ATOM     14  C   UNL A   1     -24.279  -1.524  30.987  0.00  0.00    +0.009 C 
ATOM     15  C   UNL A   1     -23.360  -1.140  31.891  0.00  0.00    +0.001 C 
ENDBRANCH   1  14
TORSDOF 3
ENDMDL
ENDMDL
