REMARK  Name = No_3515-gen_results/8p0m/2024-11-27-11-27-31/
REMARK  3 active torsions:
REMARK  status: ('A' for Active; 'I' for Inactive)
REMARK    1  A    between atoms: C_3  and  C_7
REMARK    2  A    between atoms: C_7  and  C_8
REMARK    3  A    between atoms: C_7  and  C_14
REMARK                            x       y       z     vdW  Elec       q    Type
REMARK                         _______ _______ _______ _____ _____    ______ ____
ROOT
ATOM      1  C   UNL A   1     -27.459   0.493  26.770  0.00  0.00    +0.045 C 
ENDROOT
BRANCH   1   4
ATOM      2  C   UNL A   1     -28.016  -0.814  28.878  0.00  0.00    -0.004 A 
ATOM      3  C   UNL A   1     -28.469  -0.785  29.829  0.00  0.00    -0.000 A 
ATOM      4  C   UNL A   1     -28.182   0.428  28.113  0.00  0.00    -0.018 A 
ATOM      5  C   UNL A   1     -28.984   1.415  28.515  0.00  0.00    -0.004 A 
ATOM      6  C   UNL A   1     -29.380   0.138  30.461  0.00  0.00    -0.000 A 
ATOM      7  C   UNL A   1     -29.541   1.274  29.724  0.00  0.00    -0.000 A 
ENDBRANCH   1   4
BRANCH   1   8
ATOM      8  C   UNL A   1     -26.026   0.384  26.762  0.00  0.00    -0.018 A 
ATOM      9  C   UNL A   1     -25.226   1.351  27.372  0.00  0.00    -0.004 A 
ATOM     10  C   UNL A   1     -24.352   1.206  28.185  0.00  0.00    -0.000 A 
ATOM     11  C   UNL A   1     -24.150  -0.047  28.874  0.00  0.00    -0.000 A 
ATOM     12  C   UNL A   1     -24.727  -1.137  28.215  0.00  0.00    -0.000 A 
ATOM     13  C   UNL A   1     -25.587  -0.934  27.105  0.00  0.00    -0.004 A 
ENDBRANCH   1   8
BRANCH   1  14
ATOM     14  C   UNL A   1     -28.041   0.647  25.521  0.00  0.00    +0.009 C 
ATOM     15  C   UNL A   1     -29.101  -0.110  25.185  0.00  0.00    +0.001 C 
ENDBRANCH   1  14
TORSDOF 3
