MODEL 3516
MODEL 1
REMARK VINA RESULT:    -8.782      0.000      0.000
REMARK INTER + INTRA:         -10.859
REMARK INTER:                 -10.323
REMARK INTRA:                  -0.536
REMARK UNBOUND:                -0.536
REMARK  Name = No_3516-gen_results/8p0m/2024-11-27-11-27-31/
REMARK  3 active torsions:
REMARK  status: ('A' for Active; 'I' for Inactive)
REMARK    1  A    between atoms: C_1  and  C_2
REMARK    2  A    between atoms: C_1  and  C_8
REMARK    3  A    between atoms: C_5  and  C_10
REMARK                            x       y       z     vdW  Elec       q    Type
REMARK                         _______ _______ _______ _____ _____    ______ ____
ROOT
ATOM      1  C   UNL A   1     -25.609   0.459  27.964  0.00  0.00    +0.083 C 
ATOM      2  N   UNL A   1     -24.602   0.936  28.490  0.00  0.00    -0.244 N 
ATOM      3  C   UNL A   1     -23.652   1.394  27.908  0.00  0.00    +0.447 C 
ATOM      4  O   UNL A   1     -23.101   2.430  28.328  0.00  0.00    -0.222 OA
ATOM      5  O   UNL A   1     -22.975   0.863  26.969  0.00  0.00    -0.222 OA
ATOM      6  C   UNL A   1     -24.576   1.024  30.062  0.00  0.00    +0.101 C 
ATOM      7  C   UNL A   1     -24.815  -0.270  30.624  0.00  0.00    +0.041 C 
ATOM      8  C   UNL A   1     -26.177  -0.557  30.420  0.00  0.00    +0.011 C 
ATOM      9  C   UNL A   1     -26.505  -0.480  28.832  0.00  0.00    +0.021 C 
ATOM     10  C   UNL A   1     -24.606  -0.251  32.159  0.00  0.00    -0.025 A 
ATOM     11  C   UNL A   1     -23.603  -0.869  32.493  0.00  0.00    -0.004 A 
ATOM     12  C   UNL A   1     -23.508  -1.496  33.700  0.00  0.00    -0.000 A 
ATOM     13  C   UNL A   1     -24.331  -1.014  34.752  0.00  0.00    -0.000 A 
ATOM     14  C   UNL A   1     -25.444  -0.255  34.419  0.00  0.00    -0.005 A 
ATOM     15  C   UNL A   1     -25.670   0.062  33.070  0.00  0.00    -0.026 A 
ATOM     16  C   UNL A   1     -23.977  -1.361  29.995  0.00  0.00    +0.032 C 
ATOM     17  C   UNL A   1     -24.626  -2.557  29.804  0.00  0.00    -0.026 A 
ATOM     18  C   UNL A   1     -23.945  -3.656  29.482  0.00  0.00    -0.005 A 
ATOM     19  C   UNL A   1     -24.585  -4.890  29.209  0.00  0.00    -0.000 A 
ATOM     20  C   UNL A   1     -25.972  -4.970  29.215  0.00  0.00    -0.000 A 
ATOM     21  C   UNL A   1     -26.712  -3.843  29.550  0.00  0.00    -0.005 A 
ATOM     22  C   UNL A   1     -26.026  -2.729  29.821  0.00  0.00    -0.026 A 
ATOM     23  C   UNL A   1     -26.625  -1.971  30.698  0.00  0.00    +0.026 C 
ATOM     24  C   UNL A   1     -27.233   0.552  30.938  0.00  0.00    +0.005 C 
ATOM     25  C   UNL A   1     -26.961   0.613  32.572  0.00  0.00    +0.026 C 
ENDROOT
BRANCH   1  26
ATOM     26  C   UNL A   1     -25.967   0.798  26.512  0.00  0.00    +0.046 C 
BRANCH  26  27
ATOM     27  C   UNL A   1     -26.731   1.719  26.340  0.00  0.00    -0.021 A 
ATOM     28  C   UNL A   1     -27.091   2.597  27.310  0.00  0.00    -0.004 A 
ATOM     29  C   UNL A   1     -28.023   3.731  27.116  0.00  0.00    +0.006 A 
ATOM     30  C   UNL A   1     -28.557   3.913  25.798  0.00  0.00    +0.080 A 
ATOM     31  C   UNL A   1     -28.102   3.022  24.800  0.00  0.00    +0.006 A 
ATOM     32  C   UNL A   1     -27.234   1.992  25.054  0.00  0.00    -0.004 A 
BRANCH  30  33
ATOM     33  C   UNL A   1     -29.466   4.977  25.473  0.00  0.00    +0.388 C 
ATOM     34  O   UNL A   1     -29.293   6.126  25.658  0.00  0.00    -0.241 OA
ATOM     35  O   UNL A   1     -30.516   4.570  24.724  0.00  0.00    -0.241 OA
ENDBRANCH  30  33
ENDBRANCH  26  27
ENDBRANCH   1  26
TORSDOF 3
ENDMDL
ENDMDL
