MODEL 3517
MODEL 1
REMARK VINA RESULT:    -5.465      0.000      0.000
REMARK INTER + INTRA:         -10.930
REMARK INTER:                  -8.021
REMARK INTRA:                  -2.910
REMARK UNBOUND:                -2.910
REMARK  Name = No_3517-gen_results/8p0m/2024-11-27-11-27-31/
REMARK  8 active torsions:
REMARK  status: ('A' for Active; 'I' for Inactive)
REMARK    1  A    between atoms: C_4  and  O_8
REMARK    2  A    between atoms: O_8  and  C_9
REMARK    3  A    between atoms: C_9  and  C_10
REMARK    4  A    between atoms: C_10  and  C_11
REMARK    5  A    between atoms: C_11  and  N_12
REMARK    6  A    between atoms: C_13  and  C_14
REMARK    7  A    between atoms: C_15  and  C_16
REMARK    8  A    between atoms: C_19  and  C_24
REMARK                            x       y       z     vdW  Elec       q    Type
REMARK                         _______ _______ _______ _____ _____    ______ ____
ROOT
ATOM      1  N   UNL A   1     -16.150 -24.292   9.878  0.00  0.00    -0.274 N 
ATOM      2  C   UNL A   1     -16.070 -23.114   9.563  0.00  0.00    +0.249 C 
ATOM      3  O   UNL A   1     -15.787 -22.303  10.496  0.00  0.00    -0.270 OA
ATOM      4  C   UNL A   1     -15.020 -24.796  10.701  0.00  0.00    +0.115 C 
ENDROOT
BRANCH   2   5
ATOM      5  C   UNL A   1     -16.793 -22.585   8.465  0.00  0.00    +0.058 C 
ATOM      6  C   UNL A   1     -17.744 -21.760   8.660  0.00  0.00    +0.005 C 
BRANCH   6   7
ATOM      7  C   UNL A   1     -18.581 -21.284   7.629  0.00  0.00    +0.000 A 
ATOM      8  C   UNL A   1     -17.961 -20.440   6.758  0.00  0.00    +0.000 A 
ATOM      9  C   UNL A   1     -18.728 -19.968   5.681  0.00  0.00    +0.004 A 
ATOM     10  C   UNL A   1     -20.110 -20.115   5.737  0.00  0.00    +0.054 A 
ATOM     11  C   UNL A   1     -20.785 -20.784   6.723  0.00  0.00    +0.004 A 
ATOM     12  C   UNL A   1     -20.039 -21.394   7.740  0.00  0.00    +0.000 A 
BRANCH  10  13
ATOM     13  C   UNL A   1     -20.947 -19.484   4.639  0.00  0.00    +0.253 C 
ATOM     14  N   UNL A   1     -21.615 -18.431   4.829  0.00  0.00    -0.254 N 
ATOM     15  C   UNL A   1     -22.257 -17.604   4.098  0.00  0.00    +0.063 C 
ATOM     16  C   UNL A   1     -22.900 -16.448   4.582  0.00  0.00    -0.008 C 
ATOM     17  C   UNL A   1     -22.150 -16.084   5.761  0.00  0.00    +0.049 C 
ATOM     18  C   UNL A   1     -21.323 -17.455   6.064  0.00  0.00    +0.103 C 
ATOM     19  O   UNL A   1     -21.120 -20.102   3.628  0.00  0.00    -0.270 OA
ENDBRANCH  10  13
ENDBRANCH   6   7
ENDBRANCH   2   5
BRANCH   1  20
ATOM     20  C   UNL A   1     -16.937 -25.176   9.293  0.00  0.00    +0.098 C 
BRANCH  20  21
ATOM     21  C   UNL A   1     -18.267 -25.457   9.796  0.00  0.00    +0.069 C 
BRANCH  21  22
ATOM     22  C   UNL A   1     -19.391 -25.082   8.849  0.00  0.00    +0.207 C 
BRANCH  22  23
ATOM     23  O   UNL A   1     -19.317 -25.488   7.777  0.00  0.00    -0.475 OA
BRANCH  23  27
ATOM     24  C   UNL A   1     -18.541 -23.803   4.521  0.00  0.00    +0.015 A 
ATOM     25  C   UNL A   1     -19.532 -23.560   4.257  0.00  0.00    +0.058 A 
ATOM     26  C   UNL A   1     -18.349 -24.469   5.819  0.00  0.00    +0.038 A 
ATOM     27  C   UNL A   1     -19.471 -24.881   6.595  0.00  0.00    +0.139 A 
ATOM     28  C   UNL A   1     -20.852 -23.919   4.842  0.00  0.00    +0.015 A 
ATOM     29  C   UNL A   1     -20.716 -24.530   6.053  0.00  0.00    +0.038 A 
ATOM     30 CL   UNL A   1     -19.789 -22.751   2.654  0.00  0.00    -0.082 Cl
ENDBRANCH  23  27
ENDBRANCH  22  23
ENDBRANCH  21  22
ENDBRANCH  20  21
ENDBRANCH   1  20
TORSDOF 8
ENDMDL
ENDMDL
