REMARK  Name = outputs/IAG933/test6/raw/output_3518_IAG933_linker_design_.xyz
REMARK  12 active torsions:
REMARK  status: ('A' for Active; 'I' for Inactive)
REMARK    1  A    between atoms: C_1  and  C_2
REMARK    2  A    between atoms: C_1  and  C_8
REMARK    3  A    between atoms: C_1  and  N_39
REMARK    4  A    between atoms: C_14  and  C_15
REMARK    5  A    between atoms: C_21  and  O_22
REMARK    6  A    between atoms: O_22  and  C_23
REMARK    7  A    between atoms: C_23  and  C_24
REMARK    8  A    between atoms: N_28  and  N_39
REMARK    9  A    between atoms: C_29  and  C_30
REMARK   10  A    between atoms: C_30  and  C_44
REMARK   11  A    between atoms: C_34  and  C_40
REMARK   12  A    between atoms: N_39  and  C_44
REMARK                            x       y       z     vdW  Elec       q    Type
REMARK                         _______ _______ _______ _____ _____    ______ ____
ROOT
ATOM      1  N   UNL A   1     -24.893   0.021  29.118  0.00  0.00    -0.175 NA
ENDROOT
BRANCH   1   2
ATOM      2  N   UNL A   1     -26.067   0.387  28.777  0.00  0.00    -0.127 NA
ATOM      3  C   UNL A   1     -27.349  -0.016  29.023  0.00  0.00    +0.256 C 
ATOM      4  O   UNL A   1     -27.669  -0.854  28.528  0.00  0.00    -0.272 OA
BRANCH   3   8
ATOM      5  C   UNL A   1     -28.169   2.531  29.764  0.00  0.00    +0.041 C 
ATOM      6  C   UNL A   1     -29.085   2.878  28.537  0.00  0.00    +0.033 C 
ATOM      7  C   UNL A   1     -29.056   3.021  30.902  0.00  0.00    +0.142 C 
ATOM      8  C   UNL A   1     -28.447   1.015  29.535  0.00  0.00    +0.084 C 
ATOM      9  O   UNL A   1     -30.382   2.575  30.554  0.00  0.00    -0.356 OA
ATOM     10  C   UNL A   1     -29.560   1.405  28.434  0.00  0.00    +0.038 C 
ATOM     11  C   UNL A   1     -30.407   2.407  29.095  0.00  0.00    +0.116 C 
ENDBRANCH   3   8
ENDBRANCH   1   2
BRANCH   1  12
ATOM     12  C   UNL A   1     -24.855  -1.012  30.143  0.00  0.00    +0.116 C 
BRANCH  12  13
ATOM     13  C   UNL A   1     -24.973  -2.505  29.788  0.00  0.00    -0.005 C 
ATOM     14  C   UNL A   1     -23.906  -3.173  29.146  0.00  0.00    -0.003 C 
ATOM     15  C   UNL A   1     -23.989  -4.549  28.853  0.00  0.00    -0.000 C 
ATOM     16  C   UNL A   1     -25.137  -5.280  29.205  0.00  0.00    -0.000 C 
ATOM     17  C   UNL A   1     -26.232  -4.611  29.784  0.00  0.00    -0.000 C 
ATOM     18  C   UNL A   1     -26.155  -3.232  30.065  0.00  0.00    -0.003 C 
ENDBRANCH  12  13
BRANCH  12  19
ATOM     19  C   UNL A   1     -25.387  -0.679  31.571  0.00  0.00    +0.093 C 
ATOM     20  C   UNL A   1     -25.189   0.773  32.028  0.00  0.00    +0.021 C 
ATOM     21  C   UNL A   1     -25.336   0.684  33.544  0.00  0.00    +0.020 C 
ATOM     22  C   UNL A   1     -24.829  -0.715  33.905  0.00  0.00    +0.089 C 
ATOM     23  N   UNL A   1     -24.758  -1.481  32.646  0.00  0.00    -0.218 NA
ENDBRANCH  12  19
ENDBRANCH   1  12
BRANCH   1  24
ATOM     24  C   UNL A   1     -23.590  -0.070  28.563  0.00  0.00    +0.125 C 
BRANCH  24  32
ATOM     25  C   UNL A   1     -25.688   1.614  26.461  0.00  0.00    +0.059 C 
ATOM     26  C   UNL A   1     -26.250   2.920  26.395  0.00  0.00    +0.080 C 
ATOM     27  C   UNL A   1     -27.438   3.091  25.645  0.00  0.00    +0.107 C 
ATOM     28  N   UNL A   1     -28.075   2.089  25.003  0.00  0.00    -0.211 NA
ATOM     29  C   UNL A   1     -27.543   0.849  25.079  0.00  0.00    +0.239 C 
ATOM     30  C   UNL A   1     -26.354   0.576  25.777  0.00  0.00    +0.265 C 
ATOM     31  F   UNL A   1     -25.860  -0.681  25.795  0.00  0.00    -0.222 F 
ATOM     32  C   UNL A   1     -23.445   0.958  27.343  0.00  0.00    +0.022 C 
ATOM     33  C   UNL A   1     -24.656   1.254  26.959  0.00  0.00    -0.109 C 
BRANCH  26  34
ATOM     34  C   UNL A   1     -25.642   4.093  27.123  0.00  0.00    +0.267 C 
ATOM     35  N   UNL A   1     -25.614   5.252  26.449  0.00  0.00    -0.200 NA
ATOM     36  C   UNL A   1     -25.026   6.479  26.963  0.00  0.00    +0.139 C 
ATOM     37  O   UNL A   1     -25.143   3.966  28.243  0.00  0.00    -0.268 OA
ENDBRANCH  26  34
BRANCH  32  38
ATOM     38  C   UNL A   1     -22.516   2.175  27.229  0.00  0.00    +0.106 C 
ATOM     39  C   UNL A   1     -21.149   1.603  27.649  0.00  0.00    +0.023 C 
ATOM     40 CL   UNL A   1     -22.436   2.632  25.555  0.00  0.00    -0.110 Cl
ENDBRANCH  32  38
BRANCH  29  41
ATOM     41  O   UNL A   1     -28.193  -0.208  24.477  0.00  0.00    -0.458 OA
BRANCH  41  42
ATOM     42  C   UNL A   1     -29.460   0.005  23.866  0.00  0.00    +0.242 C 
BRANCH  42  43
ATOM     43  C   UNL A   1     -30.065  -1.377  23.573  0.00  0.00    +0.229 C 
ATOM     44  O   UNL A   1     -30.729  -1.878  24.721  0.00  0.00    -0.216 OA
ENDBRANCH  42  43
ENDBRANCH  41  42
ENDBRANCH  29  41
ENDBRANCH  24  32
ENDBRANCH   1  24
TORSDOF 12
