MODEL 3518
MODEL 1
REMARK VINA RESULT:    -5.265      0.000      0.000
REMARK INTER + INTRA:          -5.710
REMARK INTER:                  -5.573
REMARK INTRA:                  -0.137
REMARK UNBOUND:                -0.137
REMARK  Name = No_3518-gen_results/8p0m/2024-11-27-11-27-31/
REMARK  1 active torsions:
REMARK  status: ('A' for Active; 'I' for Inactive)
REMARK    1  A    between atoms: C_3  and  C_7
REMARK                            x       y       z     vdW  Elec       q    Type
REMARK                         _______ _______ _______ _____ _____    ______ ____
ROOT
ATOM      1  C   UNL A   1     -26.006  -2.956  29.614  0.00  0.00    +0.015 A 
ATOM      2  C   UNL A   1     -26.171  -3.994  29.689  0.00  0.00    +0.058 A 
ATOM      3  C   UNL A   1     -24.734  -2.609  28.981  0.00  0.00    +0.072 A 
ATOM      4  C   UNL A   1     -23.864  -3.565  28.517  0.00  0.00    +0.004 A 
ATOM      5  C   UNL A   1     -25.451  -5.205  29.293  0.00  0.00    +0.011 A 
ATOM      6  C   UNL A   1     -24.218  -4.880  28.679  0.00  0.00    +0.001 A 
ATOM      7 CL   UNL A   1     -27.800  -4.532  30.376  0.00  0.00    -0.082 Cl
ENDROOT
BRANCH   3   8
ATOM      8  C   UNL A   1     -24.340  -1.189  28.749  0.00  0.00    +0.419 C 
ATOM      9  F   UNL A   1     -24.769  -0.486  29.549  0.00  0.00    -0.166 F 
ATOM     10  F   UNL A   1     -24.812  -0.726  27.518  0.00  0.00    -0.166 F 
ATOM     11  F   UNL A   1     -22.952  -1.095  28.625  0.00  0.00    -0.166 F 
ENDBRANCH   3   8
TORSDOF 1
ENDMDL
ENDMDL
