MODEL 351
MODEL 1
REMARK VINA RESULT:    -6.934      0.000      0.000
REMARK INTER + INTRA:          -8.940
REMARK INTER:                  -8.556
REMARK INTRA:                  -0.385
REMARK UNBOUND:                -0.385
REMARK  Name = No_351-gen_results/8p0m/2024-11-27-11-27-31/
REMARK  4 active torsions:
REMARK  status: ('A' for Active; 'I' for Inactive)
REMARK    1  A    between atoms: C_1  and  C_2
REMARK    2  A    between atoms: C_1  and  N_8
REMARK    3  A    between atoms: C_5  and  C_11
REMARK    4  A    between atoms: N_8  and  C_10
REMARK                            x       y       z     vdW  Elec       q    Type
REMARK                         _______ _______ _______ _____ _____    ______ ____
ROOT
ATOM      1  C   UNL A   1     -23.095  -1.044  29.465  0.00  0.00    +0.118 C 
ENDROOT
BRANCH   1   2
ATOM      2  C   UNL A   1     -23.169  -0.207  28.596  0.00  0.00    -0.002 A 
ATOM      3  C   UNL A   1     -22.150   0.720  28.403  0.00  0.00    -0.002 A 
ATOM      4  C   UNL A   1     -22.127   1.802  27.378  0.00  0.00    +0.006 A 
ATOM      5  C   UNL A   1     -23.181   1.775  26.418  0.00  0.00    +0.080 A 
ATOM      6  C   UNL A   1     -24.173   0.790  26.597  0.00  0.00    +0.006 A 
ATOM      7  C   UNL A   1     -24.166  -0.128  27.574  0.00  0.00    -0.002 A 
BRANCH   5   8
ATOM      8  C   UNL A   1     -23.166   2.808  25.417  0.00  0.00    +0.388 C 
ATOM      9  O   UNL A   1     -22.304   2.848  24.571  0.00  0.00    -0.241 OA
ATOM     10  O   UNL A   1     -23.969   3.868  25.512  0.00  0.00    -0.241 OA
ENDBRANCH   5   8
ENDBRANCH   1   2
BRANCH   1  11
ATOM     11  N   UNL A   1     -24.311  -1.493  29.934  0.00  0.00    -0.302 N 
ATOM     12  C   UNL A   1     -25.027  -0.764  30.833  0.00  0.00    +0.113 C 
BRANCH  11  13
ATOM     13  C   UNL A   1     -24.667  -2.820  29.655  0.00  0.00    +0.048 A 
ATOM     14  C   UNL A   1     -25.896  -3.236  30.147  0.00  0.00    +0.015 A 
ATOM     15  C   UNL A   1     -26.403  -4.268  29.599  0.00  0.00    +0.001 A 
ATOM     16  C   UNL A   1     -25.552  -5.207  29.158  0.00  0.00    +0.000 A 
ATOM     17  C   UNL A   1     -24.255  -4.893  28.675  0.00  0.00    +0.001 A 
ATOM     18  C   UNL A   1     -23.865  -3.676  28.892  0.00  0.00    +0.015 A 
ENDBRANCH  11  13
ENDBRANCH   1  11
TORSDOF 4
ENDMDL
ENDMDL
