MODEL 3520
MODEL 1
REMARK VINA RESULT:    -7.700      0.000      0.000
REMARK INTER + INTRA:         -10.059
REMARK INTER:                  -9.050
REMARK INTRA:                  -1.009
REMARK UNBOUND:                -1.009
REMARK  Name = No_3520-gen_results/8p0m/2024-11-27-11-27-31/
REMARK  3 active torsions:
REMARK  status: ('A' for Active; 'I' for Inactive)
REMARK    1  A    between atoms: C_3  and  N_7
REMARK    2  A    between atoms: N_7  and  C_8
REMARK    3  A    between atoms: N_7  and  C_9
REMARK                            x       y       z     vdW  Elec       q    Type
REMARK                         _______ _______ _______ _____ _____    ______ ____
ROOT
ATOM      1  N   UNL A   1     -24.330  -1.398  29.788  0.00  0.00    -0.238 N 
ENDROOT
BRANCH   1   2
ATOM      2  C   UNL A   1     -23.827  -0.661  28.624  0.00  0.00    +0.058 A 
ATOM      3  C   UNL A   1     -22.767   0.137  28.633  0.00  0.00    +0.016 A 
ATOM      4  C   UNL A   1     -22.521   1.110  27.695  0.00  0.00    +0.013 A 
ATOM      5  C   UNL A   1     -23.456   1.273  26.668  0.00  0.00    +0.058 A 
ATOM      6  C   UNL A   1     -24.636   0.525  26.647  0.00  0.00    +0.013 A 
ATOM      7  C   UNL A   1     -24.914  -0.355  27.697  0.00  0.00    +0.016 A 
ATOM      8 CL   UNL A   1     -23.192   2.536  25.555  0.00  0.00    -0.082 Cl
ENDBRANCH   1   2
BRANCH   1  11
ATOM      9  C   UNL A   1     -25.977  -3.335  29.967  0.00  0.00    +0.015 A 
ATOM     10  C   UNL A   1     -26.170  -4.320  29.646  0.00  0.00    +0.001 A 
ATOM     11  C   UNL A   1     -24.730  -2.764  29.545  0.00  0.00    +0.058 A 
ATOM     12  C   UNL A   1     -23.779  -3.468  28.924  0.00  0.00    +0.015 A 
ATOM     13  C   UNL A   1     -25.285  -5.271  28.987  0.00  0.00    +0.000 A 
ATOM     14  C   UNL A   1     -24.119  -4.764  28.610  0.00  0.00    +0.001 A 
ENDBRANCH   1  11
BRANCH   1  15
ATOM     15  C   UNL A   1     -24.547  -0.692  30.826  0.00  0.00    +0.193 C 
ATOM     16  C   UNL A   1     -24.198  -0.273  31.794  0.00  0.00    +0.009 C 
ATOM     17  C   UNL A   1     -25.257   0.037  32.665  0.00  0.00    +0.074 C 
ATOM     18  O   UNL A   1     -25.738  -0.167  30.707  0.00  0.00    -0.463 OA
ATOM     19  C   UNL A   1     -26.230   0.246  31.849  0.00  0.00    +0.211 C 
ATOM     20  C   UNL A   1     -23.035  -1.198  32.627  0.00  0.00    +0.031 C 
ENDBRANCH   1  15
TORSDOF 3
ENDMDL
ENDMDL
