MODEL 3521
MODEL 1
REMARK VINA RESULT:    -6.201      0.000      0.000
REMARK INTER + INTRA:          -8.870
REMARK INTER:                  -8.014
REMARK INTRA:                  -0.856
REMARK UNBOUND:                -0.856
REMARK  Name = No_3521-gen_results/8p0m/2024-11-27-11-27-31/
REMARK  5 active torsions:
REMARK  status: ('A' for Active; 'I' for Inactive)
REMARK    1  A    between atoms: C_2  and  C_15
REMARK    2  A    between atoms: C_4  and  C_7
REMARK    3  A    between atoms: C_8  and  C_18
REMARK    4  A    between atoms: C_18  and  O_20
REMARK    5  A    between atoms: O_20  and  C_21
REMARK                            x       y       z     vdW  Elec       q    Type
REMARK                         _______ _______ _______ _____ _____    ______ ____
ROOT
ATOM      1  C   UNL A   1     -23.409   0.372  28.772  0.00  0.00    +0.060 C 
ATOM      2  C   UNL A   1     -23.687   1.265  27.682  0.00  0.00    +0.107 C 
ATOM      3  C   UNL A   1     -22.724   1.930  26.967  0.00  0.00    +0.030 C 
ATOM      4  C   UNL A   1     -21.395   1.712  27.353  0.00  0.00    +0.091 C 
ATOM      5  C   UNL A   1     -21.881   0.078  28.588  0.00  0.00    +0.168 C 
ATOM      6  N   UNL A   1     -21.000   0.914  28.128  0.00  0.00    -0.201 NA
ATOM      7  C   UNL A   1     -23.384   1.325  30.078  0.00  0.00    +0.008 C 
ATOM      8  N   UNL A   1     -21.427  -1.047  29.187  0.00  0.00    -0.113 NA
ENDROOT
BRANCH   1  12
ATOM      9  C   UNL A   1     -25.128  -3.079  28.494  0.00  0.00    +0.006 A 
ATOM     10  C   UNL A   1     -25.610  -2.978  29.425  0.00  0.00    +0.080 A 
ATOM     11  C   UNL A   1     -24.338  -1.873  28.037  0.00  0.00    -0.004 A 
ATOM     12  C   UNL A   1     -24.174  -0.780  28.914  0.00  0.00    -0.019 A 
ATOM     13  C   UNL A   1     -25.576  -1.988  30.526  0.00  0.00    +0.006 A 
ATOM     14  C   UNL A   1     -24.852  -0.867  30.145  0.00  0.00    -0.004 A 
BRANCH  10  15
ATOM     15  C   UNL A   1     -26.473  -4.265  29.918  0.00  0.00    +0.388 C 
ATOM     16  O   UNL A   1     -27.778  -4.190  29.885  0.00  0.00    -0.241 OA
ATOM     17  O   UNL A   1     -25.937  -5.363  29.866  0.00  0.00    -0.241 OA
ENDBRANCH  10  15
ENDBRANCH   1  12
BRANCH   2  18
ATOM     18  C   UNL A   1     -25.163   1.657  27.419  0.00  0.00    +0.317 C 
ATOM     19  O   UNL A   1     -26.013   1.763  28.143  0.00  0.00    -0.250 OA
BRANCH  18  20
ATOM     20  O   UNL A   1     -25.443   1.703  26.039  0.00  0.00    -0.449 OA
BRANCH  20  21
ATOM     21  C   UNL A   1     -26.159   0.740  25.473  0.00  0.00    +0.209 C 
ATOM     22  C   UNL A   1     -25.662  -0.198  25.040  0.00  0.00    +0.051 C 
ENDBRANCH  20  21
ENDBRANCH  18  20
ENDBRANCH   2  18
TORSDOF 5
ENDMDL
ENDMDL
