MODEL 3522
MODEL 1
REMARK VINA RESULT:    -9.200      0.000      0.000
REMARK INTER + INTRA:         -14.662
REMARK INTER:                 -12.427
REMARK INTRA:                  -2.235
REMARK UNBOUND:                -2.235
REMARK  Name = No_3522-gen_results/8p0m/2024-11-27-11-27-31/
REMARK  6 active torsions:
REMARK  status: ('A' for Active; 'I' for Inactive)
REMARK    1  A    between atoms: C_5  and  C_8
REMARK    2  A    between atoms: C_8  and  C_9
REMARK    3  A    between atoms: C_8  and  C_15
REMARK    4  A    between atoms: C_15  and  C_16
REMARK    5  A    between atoms: C_15  and  C_22
REMARK    6  A    between atoms: C_23  and  C_24
REMARK                            x       y       z     vdW  Elec       q    Type
REMARK                         _______ _______ _______ _____ _____    ______ ____
ROOT
ATOM      1  C   UNL A   1     -25.115  -0.993  28.378  0.00  0.00    +0.052 C 
ENDROOT
BRANCH   1   2
ATOM      2  C   UNL A   1     -25.107  -2.218  28.689  0.00  0.00    -0.018 A 
ATOM      3  C   UNL A   1     -24.467  -3.100  28.521  0.00  0.00    -0.004 A 
ATOM      4  C   UNL A   1     -24.698  -4.514  28.889  0.00  0.00    -0.000 A 
ATOM      5  C   UNL A   1     -25.891  -4.600  29.594  0.00  0.00    -0.000 A 
ATOM      6  C   UNL A   1     -26.732  -3.676  29.951  0.00  0.00    -0.000 A 
ATOM      7  C   UNL A   1     -26.429  -2.461  29.603  0.00  0.00    -0.004 A 
ENDBRANCH   1   2
BRANCH   1   8
ATOM      8  C   UNL A   1     -26.000  -0.497  27.357  0.00  0.00    -0.021 C 
ATOM      9  C   UNL A   1     -25.710   0.013  26.224  0.00  0.00    -0.004 C 
BRANCH   9  10
ATOM     10  C   UNL A   1     -26.620   0.546  25.297  0.00  0.00    +0.006 A 
ATOM     11  C   UNL A   1     -26.918   1.941  25.227  0.00  0.00    +0.035 A 
ATOM     12  C   UNL A   1     -27.843   2.441  24.414  0.00  0.00    +0.007 A 
ATOM     13  C   UNL A   1     -28.646   1.642  23.622  0.00  0.00    +0.001 A 
ATOM     14  C   UNL A   1     -28.559   0.493  23.812  0.00  0.00    +0.000 A 
ATOM     15  C   UNL A   1     -27.586  -0.234  24.441  0.00  0.00    +0.001 A 
ATOM     16 BR   UNL A   1     -25.745   3.079  26.237  0.00  0.00    -0.049 Br
ENDBRANCH   9  10
ENDBRANCH   1   8
BRANCH   1  17
ATOM     17  C   UNL A   1     -24.147   0.029  29.023  0.00  0.00    +0.053 C 
BRANCH  17  22
ATOM     18  C   UNL A   1     -23.135  -1.302  32.212  0.00  0.00    +0.029 A 
ATOM     19  C   UNL A   1     -23.276  -1.072  31.193  0.00  0.00    -0.002 A 
ATOM     20  C   UNL A   1     -24.218  -0.817  33.076  0.00  0.00    +0.140 A 
ATOM     21  C   UNL A   1     -25.181  -0.009  32.631  0.00  0.00    +0.029 A 
ATOM     22  C   UNL A   1     -24.204  -0.218  30.493  0.00  0.00    -0.018 A 
ATOM     23  C   UNL A   1     -25.187   0.243  31.317  0.00  0.00    -0.002 A 
ATOM     24  F   UNL A   1     -24.106  -1.169  34.398  0.00  0.00    -0.204 F 
ENDBRANCH  17  22
BRANCH  17  25
ATOM     25  C   UNL A   1     -22.987   0.170  28.504  0.00  0.00    -0.018 A 
ATOM     26  C   UNL A   1     -21.875  -0.675  28.860  0.00  0.00    -0.004 A 
ATOM     27  C   UNL A   1     -20.671  -0.222  28.663  0.00  0.00    -0.000 A 
ATOM     28  C   UNL A   1     -20.437   0.940  27.826  0.00  0.00    -0.000 A 
ATOM     29  C   UNL A   1     -21.466   1.709  27.482  0.00  0.00    -0.000 A 
ATOM     30  C   UNL A   1     -22.711   1.392  27.873  0.00  0.00    -0.004 A 
ENDBRANCH  17  25
ENDBRANCH   1  17
TORSDOF 6
ENDMDL
ENDMDL
