REMARK  Name = No_3523-gen_results/8p0m/2024-11-27-11-27-31/
REMARK  2 active torsions:
REMARK  status: ('A' for Active; 'I' for Inactive)
REMARK    1  A    between atoms: C_4  and  C_9
REMARK    2  A    between atoms: C_12  and  C_15
REMARK                            x       y       z     vdW  Elec       q    Type
REMARK                         _______ _______ _______ _____ _____    ______ ____
ROOT
ATOM      1  C   UNL A   1     -28.016  -0.814  28.878  0.00  0.00    -0.000 A 
ATOM      2  C   UNL A   1     -28.469  -0.785  29.829  0.00  0.00    -0.000 A 
ATOM      3  C   UNL A   1     -28.196   0.348  28.055  0.00  0.00    -0.000 A 
ATOM      4  C   UNL A   1     -27.442   0.510  26.795  0.00  0.00    -0.000 A 
ATOM      5  C   UNL A   1     -27.843   1.333  25.806  0.00  0.00    -0.000 A 
ATOM      6  C   UNL A   1     -29.496   0.109  30.345  0.00  0.00    -0.000 A 
ATOM      7  C   UNL A   1     -29.728   1.187  29.569  0.00  0.00    -0.000 A 
ATOM      8  C   UNL A   1     -29.042   1.367  28.372  0.00  0.00    -0.004 A 
ATOM      9  C   UNL A   1     -28.490   2.462  26.103  0.00  0.00    -0.004 A 
ATOM     10  C   UNL A   1     -29.220   2.436  27.415  0.00  0.00    -0.022 A 
ATOM     11  C   UNL A   1     -30.271   3.473  27.735  0.00  0.00    +0.031 C 
ENDROOT
BRANCH   4  12
ATOM     12  C   UNL A   1     -25.938   0.828  27.023  0.00  0.00    +0.000 A 
ATOM     13  C   UNL A   1     -25.195  -0.073  27.702  0.00  0.00    +0.000 A 
ATOM     14  C   UNL A   1     -23.846   0.126  28.035  0.00  0.00    +0.002 A 
ATOM     15  C   UNL A   1     -23.194   1.210  27.479  0.00  0.00    +0.021 A 
ATOM     16  C   UNL A   1     -23.881   2.091  26.600  0.00  0.00    +0.002 A 
ATOM     17  C   UNL A   1     -25.292   1.880  26.390  0.00  0.00    +0.000 A 
BRANCH  15  18
ATOM     18  C   UNL A   1     -21.775   1.503  27.735  0.00  0.00    +0.122 C 
ATOM     19  N   UNL A   1     -21.207   0.941  28.788  0.00  0.00    -0.146 NA
ENDBRANCH  15  18
ENDBRANCH   4  12
TORSDOF 2
