MODEL 3525
MODEL 1
REMARK VINA RESULT:    -7.711      0.000      0.000
REMARK INTER + INTRA:          -8.231
REMARK INTER:                  -8.162
REMARK INTRA:                  -0.069
REMARK UNBOUND:                -0.069
REMARK  Name = No_3525-gen_results/8p0m/2024-11-27-11-27-31/
REMARK  1 active torsions:
REMARK  status: ('A' for Active; 'I' for Inactive)
REMARK    1  A    between atoms: C_5  and  C_7
REMARK                            x       y       z     vdW  Elec       q    Type
REMARK                         _______ _______ _______ _____ _____    ______ ____
ROOT
ATOM      1  C   UNL A   1     -29.785  -9.896  31.724  0.00  0.00    +0.000 A 
ATOM      2  C   UNL A   1     -29.625 -10.518  30.700  0.00  0.00    +0.000 A 
ATOM      3  C   UNL A   1     -28.691 -11.522  30.515  0.00  0.00    +0.000 A 
ATOM      4  C   UNL A   1     -27.876 -11.865  31.635  0.00  0.00    +0.007 A 
ATOM      5  C   UNL A   1     -28.183 -11.257  32.799  0.00  0.00    +0.080 A 
ATOM      6  C   UNL A   1     -29.168 -10.361  32.887  0.00  0.00    +0.007 A 
ATOM      7  C   UNL A   1     -30.542 -10.029  29.526  0.00  0.00    +0.000 A 
ATOM      8  C   UNL A   1     -30.671 -10.385  28.521  0.00  0.00    +0.000 A 
ATOM      9  C   UNL A   1     -31.129 -10.123  27.390  0.00  0.00    +0.000 A 
ATOM     10  C   UNL A   1     -31.058 -10.779  26.120  0.00  0.00    +0.000 A 
ATOM     11  C   UNL A   1     -30.120 -11.814  26.057  0.00  0.00    +0.000 A 
ATOM     12  C   UNL A   1     -29.375 -12.178  27.147  0.00  0.00    +0.000 A 
ATOM     13  C   UNL A   1     -29.541 -11.523  28.277  0.00  0.00    +0.000 A 
ATOM     14  C   UNL A   1     -28.725 -11.934  29.403  0.00  0.00    +0.000 A 
ENDROOT
BRANCH   5  15
ATOM     15  C   UNL A   1     -27.359 -11.666  33.953  0.00  0.00    +0.388 C 
ATOM     16  O   UNL A   1     -26.837 -12.757  34.050  0.00  0.00    -0.241 OA
ATOM     17  O   UNL A   1     -26.979 -10.731  34.819  0.00  0.00    -0.241 OA
ENDBRANCH   5  15
TORSDOF 1
ENDMDL
ENDMDL
