REMARK  Name = outputs/IAG933/test6/raw/output_3525_IAG933_linker_design_.xyz
REMARK  13 active torsions:
REMARK  status: ('A' for Active; 'I' for Inactive)
REMARK    1  A    between atoms: C_1  and  C_2
REMARK    2  A    between atoms: C_1  and  C_8
REMARK    3  A    between atoms: C_1  and  C_35
REMARK    4  A    between atoms: C_13  and  C_28
REMARK    5  A    between atoms: C_14  and  C_15
REMARK    6  A    between atoms: C_21  and  O_22
REMARK    7  A    between atoms: O_22  and  C_23
REMARK    8  A    between atoms: C_23  and  C_24
REMARK    9  A    between atoms: C_28  and  N_33
REMARK   10  A    between atoms: C_28  and  C_40
REMARK   11  A    between atoms: N_33  and  C_35
REMARK   12  A    between atoms: N_41  and  C_46
REMARK   13  A    between atoms: C_44  and  C_46
REMARK                            x       y       z     vdW  Elec       q    Type
REMARK                         _______ _______ _______ _____ _____    ______ ____
ROOT
ATOM      1  N   UNL A   1     -25.227   1.208  28.930  0.00  0.00    -0.260 N 
ATOM      2  C   UNL A   1     -26.032   2.171  29.668  0.00  0.00    +0.324 C 
ATOM      3  N   UNL A   1     -25.644   3.238  30.689  0.00  0.00    -0.186 NA
ATOM      4  O   UNL A   1     -27.186   2.113  29.555  0.00  0.00    -0.251 OA
ENDROOT
BRANCH   1   5
ATOM      5  C   UNL A   1     -24.726   1.254  27.554  0.00  0.00    +0.111 C 
BRANCH   5   6
ATOM      6  C   UNL A   1     -25.688   1.614  26.461  0.00  0.00    +0.093 C 
ATOM      7  C   UNL A   1     -26.250   2.920  26.395  0.00  0.00    +0.057 C 
ATOM      8  C   UNL A   1     -27.438   3.091  25.645  0.00  0.00    +0.102 C 
ATOM      9  N   UNL A   1     -28.075   2.089  25.003  0.00  0.00    -0.212 NA
ATOM     10  C   UNL A   1     -27.543   0.849  25.079  0.00  0.00    +0.234 C 
ATOM     11  C   UNL A   1     -26.354   0.576  25.777  0.00  0.00    +0.242 C 
ATOM     12  F   UNL A   1     -25.860  -0.681  25.795  0.00  0.00    -0.227 F 
BRANCH   7  13
ATOM     13  C   UNL A   1     -25.642   4.093  27.123  0.00  0.00    +0.263 C 
ATOM     14  N   UNL A   1     -25.614   5.252  26.449  0.00  0.00    -0.200 NA
ATOM     15  C   UNL A   1     -25.026   6.479  26.963  0.00  0.00    +0.139 C 
ATOM     16  O   UNL A   1     -25.143   3.966  28.243  0.00  0.00    -0.269 OA
ENDBRANCH   7  13
BRANCH  10  17
ATOM     17  O   UNL A   1     -28.193  -0.208  24.477  0.00  0.00    -0.459 OA
BRANCH  17  18
ATOM     18  C   UNL A   1     -29.460   0.005  23.866  0.00  0.00    +0.242 C 
BRANCH  18  19
ATOM     19  C   UNL A   1     -30.065  -1.377  23.573  0.00  0.00    +0.229 C 
ATOM     20  O   UNL A   1     -30.729  -1.878  24.721  0.00  0.00    -0.216 OA
ENDBRANCH  18  19
ENDBRANCH  17  18
ENDBRANCH  10  17
ENDBRANCH   5   6
BRANCH   5  25
ATOM     21 CL   UNL A   1     -22.918   2.792  25.190  0.00  0.00    -0.043 Cl
ATOM     22  C   UNL A   1     -21.175   1.063  28.178  0.00  0.00    +0.181 C 
ATOM     23  C   UNL A   1     -22.550   1.826  26.533  0.00  0.00    +0.201 C 
ATOM     24  C   UNL A   1     -22.529   0.904  28.627  0.00  0.00    +0.042 C 
ATOM     25  C   UNL A   1     -23.348   1.324  27.559  0.00  0.00    +0.045 C 
ATOM     26  O   UNL A   1     -21.151   1.575  26.873  0.00  0.00    -0.440 OA
ENDBRANCH   5  25
ENDBRANCH   1   5
BRANCH   1  27
ATOM     27  C   UNL A   1     -25.681  -0.180  29.147  0.00  0.00    +0.101 C 
BRANCH  27  28
ATOM     28  C   UNL A   1     -24.855  -1.012  30.143  0.00  0.00    +0.058 C 
BRANCH  28  29
ATOM     29  C   UNL A   1     -24.973  -2.505  29.788  0.00  0.00    -0.019 C 
ATOM     30  C   UNL A   1     -23.906  -3.173  29.146  0.00  0.00    -0.004 C 
ATOM     31  C   UNL A   1     -23.989  -4.549  28.853  0.00  0.00    -0.000 C 
ATOM     32  C   UNL A   1     -25.137  -5.280  29.205  0.00  0.00    -0.000 C 
ATOM     33  C   UNL A   1     -26.232  -4.611  29.784  0.00  0.00    -0.000 C 
ATOM     34  C   UNL A   1     -26.155  -3.232  30.065  0.00  0.00    -0.004 C 
ENDBRANCH  28  29
BRANCH  28  35
ATOM     35  C   UNL A   1     -25.387  -0.679  31.571  0.00  0.00    +0.079 C 
ATOM     36  C   UNL A   1     -25.189   0.773  32.028  0.00  0.00    +0.019 C 
ATOM     37  C   UNL A   1     -25.336   0.684  33.544  0.00  0.00    +0.020 C 
ATOM     38  C   UNL A   1     -24.829  -0.715  33.905  0.00  0.00    +0.089 C 
ATOM     39  N   UNL A   1     -24.758  -1.481  32.646  0.00  0.00    -0.219 NA
ENDBRANCH  28  35
ENDBRANCH  27  28
ENDBRANCH   1  27
BRANCH   3  40
ATOM     40  C   UNL A   1     -26.630   4.056  31.288  0.00  0.00    +0.148 C 
BRANCH  40  46
ATOM     41  C   UNL A   1     -25.563   6.310  32.129  0.00  0.00    +0.123 C 
ATOM     42  C   UNL A   1     -24.323   5.293  33.984  0.00  0.00    +0.144 C 
ATOM     43  C   UNL A   1     -24.240   6.350  32.895  0.00  0.00    +0.054 C 
ATOM     44  O   UNL A   1     -25.136   4.269  33.401  0.00  0.00    -0.353 OA
ATOM     45  N   UNL A   1     -25.350   6.497  30.672  0.00  0.00    -0.130 NA
ATOM     46  C   UNL A   1     -26.132   4.902  32.507  0.00  0.00    +0.154 C 
ENDBRANCH  40  46
ENDBRANCH   3  40
TORSDOF 13
