MODEL 3526
MODEL 1
REMARK VINA RESULT:    -4.888      0.000      0.000
REMARK INTER + INTRA:          -5.591
REMARK INTER:                  -5.459
REMARK INTRA:                  -0.131
REMARK UNBOUND:                -0.131
REMARK  Name = No_3526-gen_results/8p0m/2024-11-27-11-27-31/
REMARK  2 active torsions:
REMARK  status: ('A' for Active; 'I' for Inactive)
REMARK    1  A    between atoms: C_2  and  N_7
REMARK    2  A    between atoms: N_7  and  C_8
REMARK                            x       y       z     vdW  Elec       q    Type
REMARK                         _______ _______ _______ _____ _____    ______ ____
ROOT
ATOM      1  C   UNL A   1     -24.010  -4.325  28.718  0.00  0.00    +0.017 A 
ATOM      2  C   UNL A   1     -24.096  -3.159  29.027  0.00  0.00    +0.070 A 
ATOM      3  C   UNL A   1     -25.189  -2.607  29.612  0.00  0.00    +0.017 A 
ATOM      4  C   UNL A   1     -26.295  -3.438  29.878  0.00  0.00    +0.001 A 
ATOM      5  C   UNL A   1     -25.064  -5.250  29.048  0.00  0.00    +0.001 A 
ATOM      6  C   UNL A   1     -26.196  -4.741  29.610  0.00  0.00    +0.000 A 
ENDROOT
BRANCH   2   7
ATOM      7  N   UNL A   1     -23.041  -2.239  28.808  0.00  0.00    -0.211 NA
BRANCH   7   8
ATOM      8  C   UNL A   1     -23.052  -0.913  29.336  0.00  0.00    +0.086 C 
ATOM      9  C   UNL A   1     -21.974  -0.194  29.085  0.00  0.00    +0.019 C 
ENDBRANCH   7   8
ENDBRANCH   2   7
TORSDOF 2
ENDMDL
ENDMDL
