MODEL 3527
MODEL 1
REMARK VINA RESULT:    -4.413      0.000      0.000
REMARK INTER + INTRA:          -4.413
REMARK INTER:                  -4.413
REMARK INTRA:                   0.000
REMARK UNBOUND:                 0.000
REMARK  Name = No_3527-gen_results/8p0m/2024-11-27-11-27-31/
REMARK  0 active torsions:
REMARK  status: ('A' for Active; 'I' for Inactive)
REMARK                            x       y       z     vdW  Elec       q    Type
REMARK                         _______ _______ _______ _____ _____    ______ ____
ROOT
ATOM      1  C   UNL A   1      -8.018 -10.521  18.833  0.00  0.00    +0.011 A 
ATOM      2  C   UNL A   1      -8.197  -9.943  19.880  0.00  0.00    +0.058 A 
ATOM      3  C   UNL A   1      -9.322  -9.245  20.178  0.00  0.00    +0.011 A 
ATOM      4  C   UNL A   1     -10.346  -9.186  19.214  0.00  0.00    +0.001 A 
ATOM      5  C   UNL A   1      -9.061 -10.583  17.841  0.00  0.00    +0.001 A 
ATOM      6  C   UNL A   1     -10.200  -9.873  18.080  0.00  0.00    +0.000 A 
ATOM      7 CL   UNL A   1      -6.997  -9.963  21.142  0.00  0.00    -0.082 Cl
ENDROOT
TORSDOF 0
ENDMDL
ENDMDL
