REMARK  Name = outputs/IAG933/test6/raw/output_3528_IAG933_linker_design_.xyz
REMARK  13 active torsions:
REMARK  status: ('A' for Active; 'I' for Inactive)
REMARK    1  A    between atoms: C_1  and  C_2
REMARK    2  A    between atoms: C_1  and  C_8
REMARK    3  A    between atoms: C_1  and  O_33
REMARK    4  A    between atoms: C_13  and  N_37
REMARK    5  A    between atoms: C_14  and  C_15
REMARK    6  A    between atoms: C_21  and  O_22
REMARK    7  A    between atoms: O_22  and  C_23
REMARK    8  A    between atoms: C_23  and  C_24
REMARK    9  A    between atoms: O_30  and  C_41
REMARK   10  A    between atoms: C_31  and  N_37
REMARK   11  A    between atoms: O_33  and  C_42
REMARK   12  A    between atoms: N_37  and  N_44
REMARK   13  A    between atoms: C_40  and  N_45
REMARK                            x       y       z     vdW  Elec       q    Type
REMARK                         _______ _______ _______ _____ _____    ______ ____
ROOT
ATOM      1  N   UNL A   1     -25.070   1.145  27.729  0.00  0.00    -0.204 N 
ENDROOT
BRANCH   1   2
ATOM      2  C   UNL A   1     -25.688   1.614  26.461  0.00  0.00    +0.164 C 
ATOM      3  C   UNL A   1     -26.250   2.920  26.395  0.00  0.00    +0.075 C 
ATOM      4  C   UNL A   1     -27.438   3.091  25.645  0.00  0.00    +0.104 C 
ATOM      5  N   UNL A   1     -28.075   2.089  25.003  0.00  0.00    -0.212 NA
ATOM      6  C   UNL A   1     -27.543   0.849  25.079  0.00  0.00    +0.236 C 
ATOM      7  C   UNL A   1     -26.354   0.576  25.777  0.00  0.00    +0.260 C 
ATOM      8  F   UNL A   1     -25.860  -0.681  25.795  0.00  0.00    -0.225 F 
BRANCH   3   9
ATOM      9  C   UNL A   1     -25.642   4.093  27.123  0.00  0.00    +0.264 C 
ATOM     10  N   UNL A   1     -25.614   5.252  26.449  0.00  0.00    -0.200 NA
ATOM     11  C   UNL A   1     -25.026   6.479  26.963  0.00  0.00    +0.139 C 
ATOM     12  O   UNL A   1     -25.143   3.966  28.243  0.00  0.00    -0.269 OA
ENDBRANCH   3   9
BRANCH   6  13
ATOM     13  O   UNL A   1     -28.193  -0.208  24.477  0.00  0.00    -0.459 OA
BRANCH  13  14
ATOM     14  C   UNL A   1     -29.460   0.005  23.866  0.00  0.00    +0.242 C 
BRANCH  14  15
ATOM     15  C   UNL A   1     -30.065  -1.377  23.573  0.00  0.00    +0.229 C 
ATOM     16  O   UNL A   1     -30.729  -1.878  24.721  0.00  0.00    -0.216 OA
ENDBRANCH  14  15
ENDBRANCH  13  14
ENDBRANCH   6  13
ENDBRANCH   1   2
BRANCH   1  18
ATOM     17  C   UNL A   1     -21.541   1.821  27.072  0.00  0.00    +0.043 C 
ATOM     18  C   UNL A   1     -23.714   1.075  27.839  0.00  0.00    +0.139 C 
ATOM     19  C   UNL A   1     -21.664   0.439  29.027  0.00  0.00    +0.038 C 
ATOM     20  C   UNL A   1     -20.915   1.150  28.113  0.00  0.00    +0.006 C 
ATOM     21  C   UNL A   1     -22.903   1.695  26.853  0.00  0.00    +0.207 C 
ATOM     22  C   UNL A   1     -23.036   0.354  28.906  0.00  0.00    +0.157 C 
BRANCH  21  23
ATOM     23  O   UNL A   1     -23.383   2.123  25.591  0.00  0.00    -0.290 OA
ATOM     24  F   UNL A   1     -22.614   2.833  24.867  0.00  0.00    +0.014 F 
ENDBRANCH  21  23
BRANCH  22  25
ATOM     25  O   UNL A   1     -23.621  -0.442  29.912  0.00  0.00    -0.472 OA
BRANCH  25  26
ATOM     26  C   UNL A   1     -24.855  -1.012  30.143  0.00  0.00    +0.204 C 
BRANCH  26  27
ATOM     27  C   UNL A   1     -24.973  -2.505  29.788  0.00  0.00    +0.019 C 
ATOM     28  C   UNL A   1     -23.906  -3.173  29.146  0.00  0.00    -0.001 C 
ATOM     29  C   UNL A   1     -23.989  -4.549  28.853  0.00  0.00    -0.000 C 
ATOM     30  C   UNL A   1     -25.137  -5.280  29.205  0.00  0.00    -0.000 C 
ATOM     31  C   UNL A   1     -26.232  -4.611  29.784  0.00  0.00    -0.000 C 
ATOM     32  C   UNL A   1     -26.155  -3.232  30.065  0.00  0.00    -0.001 C 
ENDBRANCH  26  27
BRANCH  26  33
ATOM     33  C   UNL A   1     -25.387  -0.679  31.571  0.00  0.00    +0.117 C 
ATOM     34  C   UNL A   1     -25.189   0.773  32.028  0.00  0.00    +0.023 C 
ATOM     35  C   UNL A   1     -25.336   0.684  33.544  0.00  0.00    +0.020 C 
ATOM     36  C   UNL A   1     -24.829  -0.715  33.905  0.00  0.00    +0.089 C 
ATOM     37  N   UNL A   1     -24.758  -1.481  32.646  0.00  0.00    -0.215 NA
ENDBRANCH  26  33
ENDBRANCH  25  26
ENDBRANCH  22  25
ENDBRANCH   1  18
BRANCH   1  41
ATOM     38  C   UNL A   1     -29.697   1.744  29.284  0.00  0.00    +0.119 C 
ATOM     39  O   UNL A   1     -27.317   2.997  29.702  0.00  0.00    -0.249 OA
ATOM     40  C   UNL A   1     -27.220   1.885  29.285  0.00  0.00    +0.343 C 
ATOM     41  N   UNL A   1     -25.845   1.344  29.034  0.00  0.00    -0.092 NA
ATOM     42  N   UNL A   1     -28.391   1.227  28.997  0.00  0.00    -0.235 N 
BRANCH  42  45
ATOM     43  C   UNL A   1     -29.303  -0.319  27.446  0.00  0.00    +0.059 C 
ATOM     44  O   UNL A   1     -28.997  -0.665  29.946  0.00  0.00    -0.201 OA
ATOM     45  C   UNL A   1     -28.476  -0.215  28.729  0.00  0.00    +0.232 C 
ENDBRANCH  42  45
ENDBRANCH   1  41
TORSDOF 13
