MODEL 3528
MODEL 1
REMARK VINA RESULT:    -4.930      0.000      0.000
REMARK INTER + INTRA:          -5.166
REMARK INTER:                  -5.218
REMARK INTRA:                   0.053
REMARK UNBOUND:                 0.053
REMARK  Name = No_3528-gen_results/8p0m/2024-11-27-11-27-31/
REMARK  1 active torsions:
REMARK  status: ('A' for Active; 'I' for Inactive)
REMARK    1  A    between atoms: C_2  and  C_7
REMARK                            x       y       z     vdW  Elec       q    Type
REMARK                         _______ _______ _______ _____ _____    ______ ____
ROOT
ATOM      1  C   UNL A   1     -23.887  -3.487  28.593  0.00  0.00    -0.000 A 
ATOM      2  C   UNL A   1     -24.688  -2.691  29.026  0.00  0.00    -0.000 A 
ATOM      3  C   UNL A   1     -25.868  -3.115  29.626  0.00  0.00    -0.000 A 
ATOM      4  C   UNL A   1     -26.196  -4.516  29.708  0.00  0.00    -0.000 A 
ATOM      5  C   UNL A   1     -25.226  -5.365  29.161  0.00  0.00    -0.000 A 
ATOM      6  C   UNL A   1     -24.133  -4.912  28.590  0.00  0.00    -0.000 A 
ENDROOT
BRANCH   2   7
ATOM      7  C   UNL A   1     -24.382  -1.273  28.840  0.00  0.00    -0.005 C 
ATOM      8  C   UNL A   1     -23.848  -0.604  29.901  0.00  0.00    -0.026 C 
ATOM      9  C   UNL A   1     -23.534  -1.324  31.181  0.00  0.00    +0.031 C 
ENDBRANCH   2   7
TORSDOF 1
ENDMDL
ENDMDL
