MODEL 3529
MODEL 1
REMARK VINA RESULT:    -5.941      0.000      0.000
REMARK INTER + INTRA:          -7.383
REMARK INTER:                  -6.983
REMARK INTRA:                  -0.400
REMARK UNBOUND:                -0.400
REMARK  Name = No_3529-gen_results/8p0m/2024-11-27-11-27-31/
REMARK  3 active torsions:
REMARK  status: ('A' for Active; 'I' for Inactive)
REMARK    1  A    between atoms: C_1  and  C_6
REMARK    2  A    between atoms: C_2  and  C_3
REMARK    3  A    between atoms: C_3  and  C_4
REMARK                            x       y       z     vdW  Elec       q    Type
REMARK                         _______ _______ _______ _____ _____    ______ ____
ROOT
ATOM      1  C   UNL A   1     -24.693  -1.167  29.632  0.00  0.00    +0.052 C 
ENDROOT
BRANCH   1   2
ATOM      2  C   UNL A   1     -24.839  -2.557  29.351  0.00  0.00    -0.018 A 
ATOM      3  C   UNL A   1     -23.842  -3.251  28.792  0.00  0.00    -0.004 A 
ATOM      4  C   UNL A   1     -24.048  -4.588  28.572  0.00  0.00    -0.000 A 
ATOM      5  C   UNL A   1     -25.132  -5.257  29.000  0.00  0.00    -0.000 A 
ATOM      6  C   UNL A   1     -26.104  -4.524  29.642  0.00  0.00    -0.000 A 
ATOM      7  C   UNL A   1     -25.994  -3.212  29.804  0.00  0.00    -0.004 A 
ENDBRANCH   1   2
BRANCH   1   9
ATOM      8  C   UNL A   1     -23.272   0.391  28.705  0.00  0.00    +0.071 C 
ATOM      9  C   UNL A   1     -24.211  -0.365  28.612  0.00  0.00    -0.018 C 
BRANCH   8  10
ATOM     10  C   UNL A   1     -22.939   1.227  27.529  0.00  0.00    +0.418 C 
ATOM     11  F   UNL A   1     -21.655   1.334  27.237  0.00  0.00    -0.166 F 
ATOM     12  F   UNL A   1     -23.417   2.514  27.522  0.00  0.00    -0.166 F 
ATOM     13  F   UNL A   1     -23.590   0.664  26.425  0.00  0.00    -0.166 F 
ENDBRANCH   8  10
ENDBRANCH   1   9
TORSDOF 3
ENDMDL
ENDMDL
