MODEL 352
MODEL 1
REMARK VINA RESULT:    -6.680      0.000      0.000
REMARK INTER + INTRA:          -9.745
REMARK INTER:                  -8.633
REMARK INTRA:                  -1.112
REMARK UNBOUND:                -1.112
REMARK  Name = No_352-gen_results/8p0m/2024-11-27-11-27-31/
REMARK  5 active torsions:
REMARK  status: ('A' for Active; 'I' for Inactive)
REMARK    1  A    between atoms: C_5  and  C_17
REMARK    2  A    between atoms: C_9  and  C_10
REMARK    3  A    between atoms: C_17  and  O_18
REMARK    4  A    between atoms: O_18  and  C_19
REMARK    5  A    between atoms: C_20  and  C_21
REMARK                            x       y       z     vdW  Elec       q    Type
REMARK                         _______ _______ _______ _____ _____    ______ ____
ROOT
ATOM      1  O   UNL A   1     -26.338   1.750  28.090  0.00  0.00    -0.275 OA
ATOM      2  C   UNL A   1     -26.389   1.105  27.137  0.00  0.00    +0.229 C 
ATOM      3  N   UNL A   1     -27.299   1.274  26.261  0.00  0.00    -0.280 N 
ATOM      4  C   UNL A   1     -28.037   2.244  26.073  0.00  0.00    +0.098 C 
ATOM      5  C   UNL A   1     -25.224   0.261  26.645  0.00  0.00    +0.120 C 
ATOM      6  C   UNL A   1     -25.021  -0.378  25.787  0.00  0.00    +0.015 C 
ATOM      7  C   UNL A   1     -26.191  -0.372  24.809  0.00  0.00    +0.021 C 
ATOM      8  C   UNL A   1     -27.331   0.437  24.900  0.00  0.00    +0.086 C 
ATOM      9  C   UNL A   1     -28.314   0.519  23.974  0.00  0.00    +0.090 C 
ATOM     10  C   UNL A   1     -28.541   1.726  23.280  0.00  0.00    -0.023 C 
ATOM     11  C   UNL A   1     -28.908   2.948  23.909  0.00  0.00    -0.029 C 
ATOM     12  C   UNL A   1     -28.399   3.326  25.135  0.00  0.00    +0.047 C 
ENDROOT
BRANCH   9  13
ATOM     13  C   UNL A   1     -29.215  -0.549  23.904  0.00  0.00    +0.119 C 
ATOM     14  C   UNL A   1     -30.265  -0.718  24.496  0.00  0.00    -0.000 C 
ATOM     15  C   UNL A   1     -31.037  -1.920  24.354  0.00  0.00    +0.033 C 
ATOM     16  F   UNL A   1     -28.680  -1.589  23.187  0.00  0.00    -0.209 F 
ENDBRANCH   9  13
BRANCH   5  17
ATOM     17  C   UNL A   1     -24.144   0.230  27.816  0.00  0.00    +0.214 C 
BRANCH  17  18
ATOM     18  O   UNL A   1     -23.880  -0.800  28.239  0.00  0.00    -0.472 OA
BRANCH  18  19
ATOM     19  C   UNL A   1     -24.136  -1.109  29.378  0.00  0.00    +0.172 C 
ATOM     20  C   UNL A   1     -24.428  -2.304  29.664  0.00  0.00    +0.040 C 
BRANCH  20  21
ATOM     21  C   UNL A   1     -23.885  -3.333  28.985  0.00  0.00    -0.001 C 
ATOM     22  C   UNL A   1     -24.369  -4.281  28.754  0.00  0.00    -0.026 C 
ATOM     23  C   UNL A   1     -25.644  -4.722  29.390  0.00  0.00    +0.031 C 
ENDBRANCH  20  21
ENDBRANCH  18  19
ENDBRANCH  17  18
ENDBRANCH   5  17
TORSDOF 5
ENDMDL
ENDMDL
