REMARK  Name = outputs/IAG933/test6/raw/output_353_IAG933_linker_design_.xyz
REMARK  12 active torsions:
REMARK  status: ('A' for Active; 'I' for Inactive)
REMARK    1  A    between atoms: C_1  and  C_2
REMARK    2  A    between atoms: C_1  and  C_8
REMARK    3  A    between atoms: C_1  and  C_35
REMARK    4  A    between atoms: C_13  and  O_29
REMARK    5  A    between atoms: C_14  and  C_15
REMARK    6  A    between atoms: C_21  and  O_22
REMARK    7  A    between atoms: O_22  and  C_23
REMARK    8  A    between atoms: C_23  and  C_24
REMARK    9  A    between atoms: O_29  and  C_36
REMARK   10  A    between atoms: N_34  and  C_35
REMARK   11  A    between atoms: C_35  and  C_36
REMARK   12  A    between atoms: C_36  and  C_39
REMARK                            x       y       z     vdW  Elec       q    Type
REMARK                         _______ _______ _______ _____ _____    ______ ____
ROOT
ATOM      1  C   UNL A   1     -24.213   0.517  28.186  0.00  0.00    +0.259 C 
ENDROOT
BRANCH   1   4
ATOM      2  N   UNL A   1     -22.228   0.336  29.590  0.00  0.00    -0.085 NA
ATOM      3  O   UNL A   1     -21.967   0.958  27.500  0.00  0.00    -0.268 OA
ATOM      4  C   UNL A   1     -22.727   0.576  28.428  0.00  0.00    +0.302 C 
ENDBRANCH   1   4
BRANCH   1   5
ATOM      5  O   UNL A   1     -24.625   1.559  27.337  0.00  0.00    -0.466 OA
BRANCH   5   6
ATOM      6  C   UNL A   1     -25.688   1.614  26.461  0.00  0.00    +0.177 C 
ATOM      7  C   UNL A   1     -26.250   2.920  26.395  0.00  0.00    +0.111 C 
ATOM      8  C   UNL A   1     -27.438   3.091  25.645  0.00  0.00    +0.110 C 
ATOM      9  N   UNL A   1     -28.075   2.089  25.003  0.00  0.00    -0.208 NA
ATOM     10  C   UNL A   1     -27.543   0.849  25.079  0.00  0.00    +0.256 C 
ATOM     11  C   UNL A   1     -26.354   0.576  25.777  0.00  0.00    +0.227 C 
ATOM     12  F   UNL A   1     -25.860  -0.681  25.795  0.00  0.00    -0.196 F 
BRANCH   7  13
ATOM     13  C   UNL A   1     -25.642   4.093  27.123  0.00  0.00    +0.269 C 
ATOM     14  N   UNL A   1     -25.614   5.252  26.449  0.00  0.00    -0.200 NA
ATOM     15  C   UNL A   1     -25.026   6.479  26.963  0.00  0.00    +0.139 C 
ATOM     16  O   UNL A   1     -25.143   3.966  28.243  0.00  0.00    -0.268 OA
ENDBRANCH   7  13
BRANCH  10  17
ATOM     17  O   UNL A   1     -28.193  -0.208  24.477  0.00  0.00    -0.456 OA
BRANCH  17  18
ATOM     18  C   UNL A   1     -29.460   0.005  23.866  0.00  0.00    +0.243 C 
BRANCH  18  19
ATOM     19  C   UNL A   1     -30.065  -1.377  23.573  0.00  0.00    +0.229 C 
ATOM     20  O   UNL A   1     -30.729  -1.878  24.721  0.00  0.00    -0.216 OA
ENDBRANCH  18  19
ENDBRANCH  17  18
ENDBRANCH  10  17
ENDBRANCH   5   6
ENDBRANCH   1   5
BRANCH   1  21
ATOM     21  C   UNL A   1     -25.325  -0.075  29.040  0.00  0.00    +0.113 C 
BRANCH  21  26
ATOM     22  C   UNL A   1     -28.080   2.403  29.748  0.00  0.00    +0.017 C 
ATOM     23  C   UNL A   1     -27.018   1.338  29.538  0.00  0.00    +0.072 C 
ATOM     24  C   UNL A   1     -29.214   1.432  30.123  0.00  0.00    +0.003 C 
ATOM     25  C   UNL A   1     -29.084  -0.080  29.657  0.00  0.00    +0.017 C 
ATOM     26  N   UNL A   1     -26.680   0.288  29.010  0.00  0.00    -0.270 NA
ATOM     27  C   UNL A   1     -27.977  -0.260  28.589  0.00  0.00    +0.072 C 
ENDBRANCH  21  26
BRANCH  21  28
ATOM     28  C   UNL A   1     -24.855  -1.012  30.143  0.00  0.00    +0.057 C 
BRANCH  28  29
ATOM     29  C   UNL A   1     -24.973  -2.505  29.788  0.00  0.00    -0.020 C 
ATOM     30  C   UNL A   1     -23.906  -3.173  29.146  0.00  0.00    -0.004 C 
ATOM     31  C   UNL A   1     -23.989  -4.549  28.853  0.00  0.00    -0.000 C 
ATOM     32  C   UNL A   1     -25.137  -5.280  29.205  0.00  0.00    -0.000 C 
ATOM     33  C   UNL A   1     -26.232  -4.611  29.784  0.00  0.00    -0.000 C 
ATOM     34  C   UNL A   1     -26.155  -3.232  30.065  0.00  0.00    -0.004 C 
ENDBRANCH  28  29
BRANCH  28  35
ATOM     35  C   UNL A   1     -25.387  -0.679  31.571  0.00  0.00    +0.078 C 
ATOM     36  C   UNL A   1     -25.189   0.773  32.028  0.00  0.00    +0.019 C 
ATOM     37  C   UNL A   1     -25.336   0.684  33.544  0.00  0.00    +0.020 C 
ATOM     38  C   UNL A   1     -24.829  -0.715  33.905  0.00  0.00    +0.089 C 
ATOM     39  N   UNL A   1     -24.758  -1.481  32.646  0.00  0.00    -0.219 NA
ENDBRANCH  28  35
ENDBRANCH  21  28
ENDBRANCH   1  21
TORSDOF 12
