MODEL 3530
MODEL 1
REMARK VINA RESULT:    -4.462      0.000      0.000
REMARK INTER + INTRA:          -4.462
REMARK INTER:                  -4.462
REMARK INTRA:                   0.000
REMARK UNBOUND:                 0.000
REMARK  Name = No_3530-gen_results/8p0m/2024-11-27-11-27-31/
REMARK  0 active torsions:
REMARK  status: ('A' for Active; 'I' for Inactive)
REMARK                            x       y       z     vdW  Elec       q    Type
REMARK                         _______ _______ _______ _____ _____    ______ ____
ROOT
ATOM      1  O   UNL A   1      -6.820  -9.993  20.735  0.00  0.00    -0.259 OA
ATOM      2  C   UNL A   1      -7.854  -9.779  20.092  0.00  0.00    +0.308 C 
ATOM      3  C   UNL A   1      -8.756  -9.268  20.163  0.00  0.00    -0.006 C 
ATOM      4  N   UNL A   1      -7.913 -10.807  18.846  0.00  0.00    -0.193 NA
ATOM      5  C   UNL A   1     -10.041  -9.212  19.394  0.00  0.00    -0.080 C 
ATOM      6  C   UNL A   1      -9.955 -10.086  18.223  0.00  0.00    +0.100 C 
ATOM      7  C   UNL A   1      -8.906 -10.868  18.044  0.00  0.00    +0.130 C 
ENDROOT
TORSDOF 0
ENDMDL
ENDMDL
