MODEL 3531
MODEL 1
REMARK VINA RESULT:    -9.157      0.000      0.000
REMARK INTER + INTRA:         -13.236
REMARK INTER:                 -11.833
REMARK INTRA:                  -1.403
REMARK UNBOUND:                -1.403
REMARK  Name = No_3531-gen_results/8p0m/2024-11-27-11-27-31/
REMARK  5 active torsions:
REMARK  status: ('A' for Active; 'I' for Inactive)
REMARK    1  A    between atoms: C_2  and  O_7
REMARK    2  A    between atoms: C_4  and  C_16
REMARK    3  A    between atoms: O_7  and  C_8
REMARK    4  A    between atoms: C_8  and  C_9
REMARK    5  A    between atoms: C_16  and  C_17
REMARK                            x       y       z     vdW  Elec       q    Type
REMARK                         _______ _______ _______ _____ _____    ______ ____
ROOT
ATOM      1  C   UNL A   1     -27.605   1.339  25.428  0.00  0.00    +0.079 A 
ATOM      2  C   UNL A   1     -27.090   0.703  24.763  0.00  0.00    +0.145 A 
ATOM      3  C   UNL A   1     -26.851   1.712  26.685  0.00  0.00    +0.195 A 
ATOM      4  C   UNL A   1     -25.502   1.324  26.823  0.00  0.00    +0.021 A 
ATOM      5  C   UNL A   1     -25.704   0.194  24.654  0.00  0.00    +0.037 A 
ATOM      6  C   UNL A   1     -24.978   0.524  25.790  0.00  0.00    +0.002 A 
ATOM      7  O   UNL A   1     -26.763   3.200  26.610  0.00  0.00    -0.287 OA
ENDROOT
BRANCH   2   8
ATOM      8  O   UNL A   1     -27.819   0.336  23.540  0.00  0.00    -0.446 OA
BRANCH   8   9
ATOM      9  C   UNL A   1     -28.690  -0.602  23.647  0.00  0.00    +0.351 C 
ATOM     10  F   UNL A   1     -28.211  -1.818  23.636  0.00  0.00    -0.183 F 
BRANCH   9  11
ATOM     11  C   UNL A   1     -29.988  -0.437  23.712  0.00  0.00    +0.052 A 
ATOM     12  C   UNL A   1     -30.735  -1.652  24.006  0.00  0.00    +0.002 A 
ATOM     13  C   UNL A   1     -32.192  -1.654  23.935  0.00  0.00    -0.000 A 
ATOM     14  C   UNL A   1     -32.826  -0.435  23.513  0.00  0.00    -0.000 A 
ATOM     15  C   UNL A   1     -32.101   0.694  23.195  0.00  0.00    -0.000 A 
ATOM     16  C   UNL A   1     -30.672   0.678  23.235  0.00  0.00    +0.002 A 
ENDBRANCH   9  11
ENDBRANCH   8   9
ENDBRANCH   2   8
BRANCH   4  17
ATOM     17  C   UNL A   1     -24.779   1.664  28.009  0.00  0.00    +0.056 C 
BRANCH  17  18
ATOM     18  C   UNL A   1     -23.822   0.864  28.555  0.00  0.00    -0.018 A 
ATOM     19  C   UNL A   1     -22.422   1.107  28.228  0.00  0.00    -0.004 A 
ATOM     20  C   UNL A   1     -21.459   0.208  28.708  0.00  0.00    -0.000 A 
ATOM     21  C   UNL A   1     -21.874  -1.139  28.903  0.00  0.00    -0.000 A 
ATOM     22  C   UNL A   1     -23.247  -1.483  28.929  0.00  0.00    -0.001 A 
ATOM     23  C   UNL A   1     -23.661  -2.794  29.080  0.00  0.00    -0.000 A 
ATOM     24  C   UNL A   1     -24.121  -0.532  28.693  0.00  0.00    -0.008 A 
ATOM     25  C   UNL A   1     -24.899  -3.169  29.452  0.00  0.00    -0.000 A 
ATOM     26  C   UNL A   1     -25.480  -4.306  29.489  0.00  0.00    -0.000 A 
ATOM     27  C   UNL A   1     -26.854  -4.461  29.807  0.00  0.00    -0.000 A 
ATOM     28  C   UNL A   1     -27.473  -3.325  30.272  0.00  0.00    -0.000 A 
ATOM     29  C   UNL A   1     -26.881  -2.096  30.403  0.00  0.00    -0.000 A 
ATOM     30  C   UNL A   1     -25.555  -1.988  29.987  0.00  0.00    -0.004 A 
ATOM     31  C   UNL A   1     -25.123  -0.659  29.564  0.00  0.00    -0.022 A 
ATOM     32  C   UNL A   1     -24.419  -0.247  30.856  0.00  0.00    +0.031 C 
ENDBRANCH  17  18
ENDBRANCH   4  17
TORSDOF 5
ENDMDL
ENDMDL
