REMARK  Name = No_3531-gen_results/8p0m/2024-11-27-11-27-31/
REMARK  5 active torsions:
REMARK  status: ('A' for Active; 'I' for Inactive)
REMARK    1  A    between atoms: C_2  and  O_7
REMARK    2  A    between atoms: C_4  and  C_16
REMARK    3  A    between atoms: O_7  and  C_8
REMARK    4  A    between atoms: C_8  and  C_9
REMARK    5  A    between atoms: C_16  and  C_17
REMARK                            x       y       z     vdW  Elec       q    Type
REMARK                         _______ _______ _______ _____ _____    ______ ____
ROOT
ATOM      1  C   UNL A   1     -28.016  -0.814  28.878  0.00  0.00    +0.079 A 
ATOM      2  C   UNL A   1     -28.469  -0.785  29.829  0.00  0.00    +0.145 A 
ATOM      3  C   UNL A   1     -26.504  -0.778  28.877  0.00  0.00    +0.195 A 
ATOM      4  C   UNL A   1     -25.810  -0.853  30.103  0.00  0.00    +0.021 A 
ATOM      5  C   UNL A   1     -27.991  -0.892  31.226  0.00  0.00    +0.037 A 
ATOM      6  C   UNL A   1     -26.604  -0.868  31.265  0.00  0.00    +0.002 A 
ATOM      7  O   UNL A   1     -26.125  -2.053  28.201  0.00  0.00    -0.287 OA
ENDROOT
BRANCH   2   8
ATOM      8  O   UNL A   1     -29.939  -0.819  29.836  0.00  0.00    -0.446 OA
BRANCH   8   9
ATOM      9  C   UNL A   1     -30.536  -0.112  28.945  0.00  0.00    +0.351 C 
ATOM     10  F   UNL A   1     -30.220   1.157  28.930  0.00  0.00    -0.183 F 
BRANCH   9  11
ATOM     11  C   UNL A   1     -31.450  -0.543  28.111  0.00  0.00    +0.052 A 
ATOM     12  C   UNL A   1     -31.872  -1.917  28.339  0.00  0.00    +0.002 A 
ATOM     13  C   UNL A   1     -32.751  -2.584  27.385  0.00  0.00    -0.000 A 
ATOM     14  C   UNL A   1     -33.118  -1.843  26.209  0.00  0.00    -0.000 A 
ATOM     15  C   UNL A   1     -32.673  -0.557  25.987  0.00  0.00    -0.000 A 
ATOM     16  C   UNL A   1     -31.786   0.077  26.911  0.00  0.00    +0.002 A 
ENDBRANCH   9  11
ENDBRANCH   8   9
ENDBRANCH   2   8
BRANCH   4  17
ATOM     17  C   UNL A   1     -24.380  -0.813  30.117  0.00  0.00    +0.056 C 
BRANCH  17  18
ATOM     18  C   UNL A   1     -23.634  -0.428  29.045  0.00  0.00    -0.018 A 
ATOM     19  C   UNL A   1     -22.188  -0.316  29.190  0.00  0.00    -0.004 A 
ATOM     20  C   UNL A   1     -21.446   0.188  28.112  0.00  0.00    -0.000 A 
ATOM     21  C   UNL A   1     -22.103   1.112  27.252  0.00  0.00    -0.000 A 
ATOM     22  C   UNL A   1     -23.510   1.263  27.283  0.00  0.00    -0.001 A 
ATOM     23  C   UNL A   1     -24.156   2.185  26.479  0.00  0.00    -0.000 A 
ATOM     24  C   UNL A   1     -24.180   0.579  28.181  0.00  0.00    -0.008 A 
ATOM     25  C   UNL A   1     -25.471   2.164  26.193  0.00  0.00    -0.000 A 
ATOM     26  C   UNL A   1     -26.239   3.003  25.611  0.00  0.00    -0.000 A 
ATOM     27  C   UNL A   1     -27.644   2.828  25.519  0.00  0.00    -0.000 A 
ATOM     28  C   UNL A   1     -28.103   1.596  25.921  0.00  0.00    -0.000 A 
ATOM     29  C   UNL A   1     -27.325   0.585  26.421  0.00  0.00    -0.000 A 
ATOM     30  C   UNL A   1     -25.965   0.852  26.572  0.00  0.00    -0.004 A 
ATOM     31  C   UNL A   1     -25.272   0.080  27.599  0.00  0.00    -0.022 A 
ATOM     32  C   UNL A   1     -24.640  -0.968  26.683  0.00  0.00    +0.031 C 
ENDBRANCH  17  18
ENDBRANCH   4  17
TORSDOF 5
