MODEL 3532
MODEL 1
REMARK VINA RESULT:    -5.272      0.000      0.000
REMARK INTER + INTRA:          -5.646
REMARK INTER:                  -5.580
REMARK INTRA:                  -0.066
REMARK UNBOUND:                -0.066
REMARK  Name = No_3532-gen_results/8p0m/2024-11-27-11-27-31/
REMARK  1 active torsions:
REMARK  status: ('A' for Active; 'I' for Inactive)
REMARK    1  A    between atoms: C_2  and  C_7
REMARK                            x       y       z     vdW  Elec       q    Type
REMARK                         _______ _______ _______ _____ _____    ______ ____
ROOT
ATOM      1  C   UNL A   1     -10.240  -9.261  18.928  0.00  0.00    +0.006 A 
ATOM      2  C   UNL A   1      -9.866 -10.105  18.421  0.00  0.00    +0.068 A 
ATOM      3  C   UNL A   1      -9.907  -9.237  20.352  0.00  0.00    +0.000 A 
ATOM      4  C   UNL A   1      -8.746  -9.071  20.725  0.00  0.00    +0.000 A 
ATOM      5  C   UNL A   1      -8.340 -10.457  18.595  0.00  0.00    +0.006 A 
ATOM      6  C   UNL A   1      -7.853 -10.108  19.897  0.00  0.00    +0.000 A 
ENDROOT
BRANCH   2   7
ATOM      7  C   UNL A   1     -10.213 -10.517  16.992  0.00  0.00    +0.333 C 
ATOM      8  O   UNL A   1     -11.455 -10.494  16.860  0.00  0.00    -0.254 OA
ATOM      9  F   UNL A   1      -9.434 -10.839  16.043  0.00  0.00    -0.159 F 
ENDBRANCH   2   7
TORSDOF 1
ENDMDL
ENDMDL
