REMARK  Name = outputs/IAG933/test6/raw/output_3533_IAG933_linker_design_.xyz
REMARK  10 active torsions:
REMARK  status: ('A' for Active; 'I' for Inactive)
REMARK    1  A    between atoms: C_1  and  C_2
REMARK    2  A    between atoms: C_1  and  C_8
REMARK    3  A    between atoms: C_1  and  C_33
REMARK    4  A    between atoms: C_13  and  N_32
REMARK    5  A    between atoms: C_14  and  C_15
REMARK    6  A    between atoms: C_21  and  O_22
REMARK    7  A    between atoms: O_22  and  C_23
REMARK    8  A    between atoms: C_23  and  C_24
REMARK    9  A    between atoms: N_28  and  C_33
REMARK   10  A    between atoms: C_33  and  C_41
REMARK                            x       y       z     vdW  Elec       q    Type
REMARK                         _______ _______ _______ _____ _____    ______ ____
ROOT
ATOM      1  C   UNL A   1     -20.438   0.047  28.334  0.00  0.00    +0.070 C 
ATOM      2  C   UNL A   1     -21.342  -0.522  29.136  0.00  0.00    +0.048 C 
ATOM      3  N   UNL A   1     -20.727   0.934  27.424  0.00  0.00    -0.238 NA
ATOM      4  N   UNL A   1     -24.346   1.310  27.061  0.00  0.00    -0.278 N 
ATOM      5  F   UNL A   1     -21.813   2.367  26.030  0.00  0.00    -0.205 F 
ATOM      6  O   UNL A   1     -23.274   1.224  24.959  0.00  0.00    -0.195 OA
ATOM      7  C   UNL A   1     -21.996   1.467  26.978  0.00  0.00    +0.313 C 
ATOM      8  C   UNL A   1     -23.125   1.665  26.291  0.00  0.00    +0.285 C 
ATOM      9  C   UNL A   1     -23.799   0.425  28.365  0.00  0.00    +0.096 C 
ATOM     10  C   UNL A   1     -22.634  -0.118  29.127  0.00  0.00    +0.028 C 
ENDROOT
BRANCH   4  11
ATOM     11  C   UNL A   1     -25.688   1.614  26.461  0.00  0.00    +0.088 C 
ATOM     12  C   UNL A   1     -26.250   2.920  26.395  0.00  0.00    +0.090 C 
ATOM     13  C   UNL A   1     -27.438   3.091  25.645  0.00  0.00    +0.108 C 
ATOM     14  N   UNL A   1     -28.075   2.089  25.003  0.00  0.00    -0.208 NA
ATOM     15  C   UNL A   1     -27.543   0.849  25.079  0.00  0.00    +0.255 C 
ATOM     16  C   UNL A   1     -26.354   0.576  25.777  0.00  0.00    +0.206 C 
ATOM     17  F   UNL A   1     -25.860  -0.681  25.795  0.00  0.00    -0.198 F 
BRANCH  12  18
ATOM     18  C   UNL A   1     -25.642   4.093  27.123  0.00  0.00    +0.268 C 
ATOM     19  N   UNL A   1     -25.614   5.252  26.449  0.00  0.00    -0.200 NA
ATOM     20  C   UNL A   1     -25.026   6.479  26.963  0.00  0.00    +0.139 C 
ATOM     21  O   UNL A   1     -25.143   3.966  28.243  0.00  0.00    -0.268 OA
ENDBRANCH  12  18
BRANCH  15  22
ATOM     22  O   UNL A   1     -28.193  -0.208  24.477  0.00  0.00    -0.456 OA
BRANCH  22  23
ATOM     23  C   UNL A   1     -29.460   0.005  23.866  0.00  0.00    +0.243 C 
BRANCH  23  24
ATOM     24  C   UNL A   1     -30.065  -1.377  23.573  0.00  0.00    +0.229 C 
ATOM     25  O   UNL A   1     -30.729  -1.878  24.721  0.00  0.00    -0.216 OA
ENDBRANCH  23  24
ENDBRANCH  22  23
ENDBRANCH  15  22
ENDBRANCH   4  11
BRANCH   9  26
ATOM     26  C   UNL A   1     -24.917   0.099  29.094  0.00  0.00    +0.119 C 
BRANCH  26  27
ATOM     27  N   UNL A   1     -25.987   1.043  29.087  0.00  0.00    -0.205 NA
ATOM     28  O   UNL A   1     -27.382  -0.676  28.589  0.00  0.00    -0.273 OA
ATOM     29  C   UNL A   1     -28.209   1.171  29.936  0.00  0.00    +0.096 C 
ATOM     30  C   UNL A   1     -27.159   0.407  29.143  0.00  0.00    +0.242 C 
ENDBRANCH  26  27
BRANCH  26  31
ATOM     31  C   UNL A   1     -24.855  -1.012  30.143  0.00  0.00    +0.060 C 
BRANCH  31  32
ATOM     32  C   UNL A   1     -24.973  -2.505  29.788  0.00  0.00    -0.019 C 
ATOM     33  C   UNL A   1     -23.906  -3.173  29.146  0.00  0.00    -0.004 C 
ATOM     34  C   UNL A   1     -23.989  -4.549  28.853  0.00  0.00    -0.000 C 
ATOM     35  C   UNL A   1     -25.137  -5.280  29.205  0.00  0.00    -0.000 C 
ATOM     36  C   UNL A   1     -26.232  -4.611  29.784  0.00  0.00    -0.000 C 
ATOM     37  C   UNL A   1     -26.155  -3.232  30.065  0.00  0.00    -0.004 C 
ENDBRANCH  31  32
BRANCH  31  38
ATOM     38  C   UNL A   1     -25.387  -0.679  31.571  0.00  0.00    +0.079 C 
ATOM     39  C   UNL A   1     -25.189   0.773  32.028  0.00  0.00    +0.019 C 
ATOM     40  C   UNL A   1     -25.336   0.684  33.544  0.00  0.00    +0.020 C 
ATOM     41  C   UNL A   1     -24.829  -0.715  33.905  0.00  0.00    +0.089 C 
ATOM     42  N   UNL A   1     -24.758  -1.481  32.646  0.00  0.00    -0.219 NA
ENDBRANCH  31  38
ENDBRANCH  26  31
ENDBRANCH   9  26
TORSDOF 10
