MODEL 3533
MODEL 1
REMARK VINA RESULT:    -6.480      0.000      0.000
REMARK INTER + INTRA:          -7.106
REMARK INTER:                  -7.238
REMARK INTRA:                   0.132
REMARK UNBOUND:                 0.132
REMARK  Name = No_3533-gen_results/8p0m/2024-11-27-11-27-31/
REMARK  2 active torsions:
REMARK  status: ('A' for Active; 'I' for Inactive)
REMARK    1  A    between atoms: C_5  and  C_10
REMARK    2  A    between atoms: C_10  and  P_12
REMARK                            x       y       z     vdW  Elec       q    Type
REMARK                         _______ _______ _______ _____ _____    ______ ____
ROOT
ATOM      1  C   UNL A   1      -9.634   2.411  10.689  0.00  0.00    +0.077 A 
ATOM      2  C   UNL A   1      -8.774   1.732  10.176  0.00  0.00    +0.014 A 
ATOM      3  C   UNL A   1      -8.200   0.665  10.858  0.00  0.00    -0.016 A 
ATOM      4  C   UNL A   1      -7.129  -0.235  10.342  0.00  0.00    -0.002 A 
ATOM      5  C   UNL A   1      -6.785  -0.071   8.968  0.00  0.00    +0.022 A 
ATOM      6  C   UNL A   1      -7.424   0.978   8.278  0.00  0.00    +0.002 A 
ATOM      7  C   UNL A   1      -8.344   1.792   8.815  0.00  0.00    +0.001 A 
ATOM      8  N   UNL A   1      -9.587   3.742  10.389  0.00  0.00    -0.244 NA
ATOM      9  C   UNL A   1     -10.268   4.618  11.170  0.00  0.00    +0.099 A 
ATOM     10  C   UNL A   1     -10.763   4.172  12.363  0.00  0.00    +0.020 A 
ATOM     11  C   UNL A   1     -10.651   2.861  12.807  0.00  0.00    -0.001 A 
ATOM     12  C   UNL A   1      -9.589   2.081  12.215  0.00  0.00    -0.000 A 
ATOM     13  C   UNL A   1      -9.126   0.808  12.453  0.00  0.00    +0.054 C 
ENDROOT
BRANCH   5  14
ATOM     14  C   UNL A   1      -5.784  -0.967   8.445  0.00  0.00    +0.131 C 
ATOM     15  N   UNL A   1      -5.892  -1.478   7.202  0.00  0.00    -0.145 NA
BRANCH  14  16
ATOM     16  P   UNL A   1      -4.184   0.021   8.495  0.00  0.00    +0.159 P 
ATOM     17  O   UNL A   1      -3.789   0.029   7.063  0.00  0.00    -0.454 OA
ATOM     18  O   UNL A   1      -4.575   1.370   8.944  0.00  0.00    -0.353 OA
ATOM     19  O   UNL A   1      -3.301  -0.745   9.361  0.00  0.00    -0.353 OA
ENDBRANCH  14  16
ENDBRANCH   5  14
TORSDOF 2
ENDMDL
ENDMDL
