MODEL 3534
MODEL 1
REMARK VINA RESULT:    -5.050      0.000      0.000
REMARK INTER + INTRA:          -5.395
REMARK INTER:                  -5.345
REMARK INTRA:                  -0.050
REMARK UNBOUND:                -0.050
REMARK  Name = No_3534-gen_results/8p0m/2024-11-27-11-27-31/
REMARK  1 active torsions:
REMARK  status: ('A' for Active; 'I' for Inactive)
REMARK    1  A    between atoms: C_3  and  C_7
REMARK                            x       y       z     vdW  Elec       q    Type
REMARK                         _______ _______ _______ _____ _____    ______ ____
ROOT
ATOM      1  C   UNL A   1     -24.906  -5.167  28.991  0.00  0.00    +0.000 A 
ATOM      2  C   UNL A   1     -24.090  -4.298  28.785  0.00  0.00    +0.001 A 
ATOM      3  C   UNL A   1     -24.285  -2.960  29.125  0.00  0.00    +0.009 A 
ATOM      4  C   UNL A   1     -25.551  -2.556  29.705  0.00  0.00    +0.001 A 
ATOM      5  C   UNL A   1     -26.470  -3.586  29.908  0.00  0.00    +0.000 A 
ATOM      6  C   UNL A   1     -26.206  -4.826  29.545  0.00  0.00    +0.000 A 
ENDROOT
BRANCH   3   7
ATOM      7  C   UNL A   1     -23.328  -1.828  28.909  0.00  0.00    +0.063 C 
ATOM      8  C   UNL A   1     -22.870  -1.073  29.898  0.00  0.00    +0.021 C 
ATOM      9  N   UNL A   1     -22.282  -0.051  29.831  0.00  0.00    -0.095 NA
ENDBRANCH   3   7
TORSDOF 1
ENDMDL
ENDMDL
