MODEL 3535
MODEL 1
REMARK VINA RESULT:    -6.571      0.000      0.000
REMARK INTER + INTRA:          -7.310
REMARK INTER:                  -6.955
REMARK INTRA:                  -0.355
REMARK UNBOUND:                -0.355
REMARK  Name = No_3535-gen_results/8p0m/2024-11-27-11-27-31/
REMARK  1 active torsions:
REMARK  status: ('A' for Active; 'I' for Inactive)
REMARK    1  A    between atoms: C_3  and  C_7
REMARK                            x       y       z     vdW  Elec       q    Type
REMARK                         _______ _______ _______ _____ _____    ______ ____
ROOT
ATOM      1  C   UNL A   1     -26.435  -3.515  29.903  0.00  0.00    +0.000 A 
ATOM      2  C   UNL A   1     -25.698  -2.592  29.646  0.00  0.00    +0.000 A 
ATOM      3  C   UNL A   1     -24.511  -2.642  29.113  0.00  0.00    +0.000 A 
ATOM      4  C   UNL A   1     -23.973  -3.924  28.789  0.00  0.00    +0.000 A 
ATOM      5  C   UNL A   1     -24.804  -4.976  28.985  0.00  0.00    +0.000 A 
ATOM      6  C   UNL A   1     -26.061  -4.813  29.508  0.00  0.00    +0.000 A 
ENDROOT
BRANCH   3   7
ATOM      7  C   UNL A   1     -23.623  -1.452  28.893  0.00  0.00    +0.000 A 
ATOM      8  C   UNL A   1     -22.586  -1.218  29.270  0.00  0.00    +0.000 A 
ATOM      9  C   UNL A   1     -24.243  -0.406  28.035  0.00  0.00    +0.000 A 
ATOM     10  C   UNL A   1     -23.466   0.646  27.584  0.00  0.00    +0.000 A 
ATOM     11  C   UNL A   1     -21.645  -0.142  28.940  0.00  0.00    +0.000 A 
ATOM     12  C   UNL A   1     -22.139   0.804  28.068  0.00  0.00    +0.000 A 
ENDBRANCH   3   7
TORSDOF 1
ENDMDL
ENDMDL
