MODEL 3536
MODEL 1
REMARK VINA RESULT:    -7.066      0.000      0.000
REMARK INTER + INTRA:          -8.839
REMARK INTER:                  -8.305
REMARK INTRA:                  -0.534
REMARK UNBOUND:                -0.534
REMARK  Name = No_3536-gen_results/8p0m/2024-11-27-11-27-31/
REMARK  3 active torsions:
REMARK  status: ('A' for Active; 'I' for Inactive)
REMARK    1  A    between atoms: C_6  and  C_26
REMARK    2  A    between atoms: C_10  and  C_11
REMARK    3  A    between atoms: C_18  and  C_19
REMARK                            x       y       z     vdW  Elec       q    Type
REMARK                         _______ _______ _______ _____ _____    ______ ____
ROOT
ATOM      1  C   UNL A   1      -9.271   3.116  34.509  0.00  0.00    +0.021 A 
ATOM      2  C   UNL A   1      -8.953   2.030  34.934  0.00  0.00    +0.053 A 
ATOM      3  C   UNL A   1      -7.694   1.498  34.675  0.00  0.00    -0.004 A 
ATOM      4  C   UNL A   1      -6.746   2.206  33.853  0.00  0.00    -0.003 A 
ATOM      5  C   UNL A   1      -7.205   3.443  33.384  0.00  0.00    +0.006 A 
ATOM      6  C   UNL A   1      -8.338   3.829  33.651  0.00  0.00    +0.081 A 
ATOM      7  N   UNL A   1      -9.924   1.343  35.645  0.00  0.00    -0.229 N 
ATOM      8  C   UNL A   1      -9.632   0.158  36.145  0.00  0.00    +0.244 C 
ATOM      9  C   UNL A   1      -8.423  -0.439  36.005  0.00  0.00    +0.066 C 
ATOM     10  C   UNL A   1      -7.385   0.209  35.221  0.00  0.00    +0.053 C 
ATOM     11  F   UNL A   1     -10.410  -0.495  36.930  0.00  0.00    -0.214 F 
ATOM     12  C   UNL A   1     -11.188   1.957  35.969  0.00  0.00    +0.255 C 
ATOM     13  O   UNL A   1     -11.324   2.347  37.114  0.00  0.00    -0.270 OA
ENDROOT
BRANCH  10  14
ATOM     14  C   UNL A   1      -6.073  -0.440  35.062  0.00  0.00    +0.020 A 
ATOM     15  C   UNL A   1      -5.124  -0.168  35.428  0.00  0.00    +0.098 A 
ATOM     16  C   UNL A   1      -6.270  -1.811  34.420  0.00  0.00    +0.098 A 
ATOM     17  N   UNL A   1      -5.066  -2.458  34.346  0.00  0.00    -0.223 NA
ATOM     18  N   UNL A   1      -3.861  -0.797  35.306  0.00  0.00    -0.223 NA
ATOM     19  C   UNL A   1      -3.939  -1.960  34.711  0.00  0.00    +0.199 A 
ENDBRANCH  10  14
BRANCH  12  20
ATOM     20  C   UNL A   1     -12.099   1.938  34.929  0.00  0.00    +0.054 A 
ATOM     21  C   UNL A   1     -12.129   1.230  34.028  0.00  0.00    +0.004 A 
ATOM     22  C   UNL A   1     -13.135   1.232  32.907  0.00  0.00    +0.000 A 
ATOM     23  C   UNL A   1     -14.089   2.214  33.032  0.00  0.00    +0.000 A 
ATOM     24  C   UNL A   1     -14.094   3.076  34.066  0.00  0.00    +0.000 A 
ATOM     25  C   UNL A   1     -13.130   3.006  35.045  0.00  0.00    +0.004 A 
ENDBRANCH  12  20
BRANCH   6  26
ATOM     26  C   UNL A   1      -8.829   5.213  33.074  0.00  0.00    +0.388 C 
ATOM     27  O   UNL A   1      -9.938   5.522  33.162  0.00  0.00    -0.241 OA
ATOM     28  O   UNL A   1      -8.006   5.907  32.445  0.00  0.00    -0.241 OA
ENDBRANCH   6  26
TORSDOF 3
ENDMDL
ENDMDL
