REMARK  Name = No_3537-gen_results/8p0m/2024-11-27-11-27-31/
REMARK  3 active torsions:
REMARK  status: ('A' for Active; 'I' for Inactive)
REMARK    1  A    between atoms: C_1  and  C_7
REMARK    2  A    between atoms: C_5  and  C_11
REMARK    3  A    between atoms: C_7  and  N_8
REMARK                            x       y       z     vdW  Elec       q    Type
REMARK                         _______ _______ _______ _____ _____    ______ ____
ROOT
ATOM      1  C   UNL A   1     -28.016  -0.814  28.878  0.00  0.00    -0.006 A 
ATOM      2  C   UNL A   1     -27.064  -0.119  28.608  0.00  0.00    -0.003 A 
ATOM      3  C   UNL A   1     -27.001   0.691  27.491  0.00  0.00    -0.000 A 
ATOM      4  C   UNL A   1     -28.137   0.736  26.635  0.00  0.00    +0.002 A 
ATOM      5  C   UNL A   1     -29.236   0.076  27.069  0.00  0.00    +0.021 A 
ATOM      6  C   UNL A   1     -29.218  -0.643  28.175  0.00  0.00    -0.001 A 
ENDROOT
BRANCH   5   7
ATOM      7  C   UNL A   1     -30.443   0.190  26.212  0.00  0.00    +0.122 C 
ATOM      8  N   UNL A   1     -30.411   0.202  24.957  0.00  0.00    -0.146 NA
ENDBRANCH   5   7
BRANCH   1   9
ATOM      9  C   UNL A   1     -28.003  -1.660  30.127  0.00  0.00    +0.099 C 
BRANCH   9  10
ATOM     10  N   UNL A   1     -27.044  -2.495  30.269  0.00  0.00    -0.267 NA
ATOM     11  C   UNL A   1     -25.765  -2.066  30.274  0.00  0.00    +0.090 C 
ATOM     12  C   UNL A   1     -27.260  -3.886  30.062  0.00  0.00    +0.090 C 
ENDBRANCH   9  10
ENDBRANCH   1   9
TORSDOF 3
