MODEL 3538
MODEL 1
REMARK VINA RESULT:    -6.409      0.000      0.000
REMARK INTER + INTRA:          -6.850
REMARK INTER:                  -6.783
REMARK INTRA:                  -0.067
REMARK UNBOUND:                -0.067
REMARK  Name = No_3538-gen_results/8p0m/2024-11-27-11-27-31/
REMARK  1 active torsions:
REMARK  status: ('A' for Active; 'I' for Inactive)
REMARK    1  A    between atoms: C_5  and  C_11
REMARK                            x       y       z     vdW  Elec       q    Type
REMARK                         _______ _______ _______ _____ _____    ______ ____
ROOT
ATOM      1  C   UNL A   1     -30.744  -9.705  29.328  0.00  0.00    +0.000 A 
ATOM      2  C   UNL A   1     -30.077 -10.259  30.171  0.00  0.00    +0.000 A 
ATOM      3  C   UNL A   1     -29.127 -11.238  29.882  0.00  0.00    +0.000 A 
ATOM      4  C   UNL A   1     -28.281 -11.971  30.844  0.00  0.00    +0.008 A 
ATOM      5  C   UNL A   1     -28.298 -11.481  32.185  0.00  0.00    +0.098 A 
ATOM      6  C   UNL A   1     -29.205 -10.467  32.510  0.00  0.00    +0.008 A 
ATOM      7  C   UNL A   1     -30.020  -9.884  31.602  0.00  0.00    +0.000 A 
ATOM      8  C   UNL A   1     -31.019 -10.438  28.053  0.00  0.00    +0.000 A 
ATOM      9  C   UNL A   1     -29.956 -11.280  27.564  0.00  0.00    +0.000 A 
ATOM     10  C   UNL A   1     -29.098 -11.833  28.529  0.00  0.00    +0.000 A 
ENDROOT
BRANCH   5  11
ATOM     11  C   UNL A   1     -27.414 -12.159  33.168  0.00  0.00    +0.477 C 
ATOM     12  N   UNL A   1     -26.506 -12.898  32.744  0.00  0.00    +0.205 NA
ATOM     13  N   UNL A   1     -27.598 -12.120  34.509  0.00  0.00    +0.205 NA
ENDBRANCH   5  11
TORSDOF 1
ENDMDL
ENDMDL
