MODEL 3539
MODEL 1
REMARK VINA RESULT:    -5.592      0.000      0.000
REMARK INTER + INTRA:          -7.288
REMARK INTER:                  -6.899
REMARK INTRA:                  -0.389
REMARK UNBOUND:                -0.389
REMARK  Name = No_3539-gen_results/8p0m/2024-11-27-11-27-31/
REMARK  4 active torsions:
REMARK  status: ('A' for Active; 'I' for Inactive)
REMARK    1  A    between atoms: C_1  and  C_2
REMARK    2  A    between atoms: C_1  and  N_8
REMARK    3  A    between atoms: C_5  and  C_13
REMARK    4  A    between atoms: C_9  and  C_11
REMARK                            x       y       z     vdW  Elec       q    Type
REMARK                         _______ _______ _______ _____ _____    ______ ____
ROOT
ATOM      1  C   UNL A   1     -23.649  -0.344  29.454  0.00  0.00    -0.001 A 
ATOM      2  C   UNL A   1     -23.087  -1.505  29.033  0.00  0.00    -0.002 A 
ATOM      3  C   UNL A   1     -23.782  -2.811  28.996  0.00  0.00    +0.006 A 
ATOM      4  C   UNL A   1     -25.138  -2.838  29.463  0.00  0.00    +0.080 A 
ATOM      5  C   UNL A   1     -25.663  -1.623  29.960  0.00  0.00    +0.006 A 
ATOM      6  C   UNL A   1     -24.957  -0.448  29.962  0.00  0.00    -0.002 A 
ENDROOT
BRANCH   4   7
ATOM      7  C   UNL A   1     -25.931  -4.038  29.569  0.00  0.00    +0.388 C 
ATOM      8  O   UNL A   1     -26.962  -4.108  29.984  0.00  0.00    -0.241 OA
ATOM      9  O   UNL A   1     -25.232  -5.226  29.297  0.00  0.00    -0.241 OA
ENDBRANCH   4   7
BRANCH   1  10
ATOM     10  C   UNL A   1     -23.069   0.717  29.480  0.00  0.00    +0.142 C 
BRANCH  10  11
ATOM     11  N   UNL A   1     -23.331   1.613  28.617  0.00  0.00    -0.197 NA
ATOM     12  C   UNL A   1     -22.634   1.870  27.607  0.00  0.00    +0.265 C 
ATOM     13  O   UNL A   1     -21.589   1.484  27.438  0.00  0.00    -0.268 OA
BRANCH  12  14
ATOM     14  C   UNL A   1     -23.314   2.610  26.465  0.00  0.00    +0.055 C 
ATOM     15  C   UNL A   1     -24.222   1.974  25.887  0.00  0.00    -0.021 C 
ATOM     16  C   UNL A   1     -24.415   0.732  25.859  0.00  0.00    +0.031 C 
ENDBRANCH  12  14
ENDBRANCH  10  11
ENDBRANCH   1  10
TORSDOF 4
ENDMDL
ENDMDL
