REMARK  Name = outputs/IAG933/test6/raw/output_3539_IAG933_linker_design_.xyz
REMARK  15 active torsions:
REMARK  status: ('A' for Active; 'I' for Inactive)
REMARK    1  A    between atoms: C_1  and  C_2
REMARK    2  A    between atoms: C_1  and  C_8
REMARK    3  A    between atoms: C_1  and  C_32
REMARK    4  A    between atoms: C_13  and  C_31
REMARK    5  A    between atoms: C_14  and  C_15
REMARK    6  A    between atoms: C_21  and  O_22
REMARK    7  A    between atoms: O_22  and  C_23
REMARK    8  A    between atoms: C_23  and  C_24
REMARK    9  A    between atoms: C_32  and  C_33
REMARK   10  A    between atoms: C_32  and  C_35
REMARK   11  A    between atoms: C_33  and  C_42
REMARK   12  A    between atoms: C_36  and  C_43
REMARK   13  A    between atoms: C_37  and  C_39
REMARK   14  A    between atoms: C_37  and  O_40
REMARK   15  A    between atoms: O_40  and  C_42
REMARK                            x       y       z     vdW  Elec       q    Type
REMARK                         _______ _______ _______ _____ _____    ______ ____
ROOT
ATOM      1  C   UNL A   1     -22.844   0.770  28.598  0.00  0.00    +0.230 C 
ATOM      2  O   UNL A   1     -20.847   1.635  27.539  0.00  0.00    -0.283 OA
ATOM      3  C   UNL A   1     -24.418   1.343  27.040  0.00  0.00    +0.004 C 
ATOM      4  C   UNL A   1     -22.209   1.404  27.504  0.00  0.00    +0.233 C 
ATOM      5  C   UNL A   1     -24.359   0.692  28.270  0.00  0.00    +0.020 C 
ATOM      6  O   UNL A   1     -22.297   0.324  29.603  0.00  0.00    -0.283 OA
ATOM      7  C   UNL A   1     -23.126   1.744  26.534  0.00  0.00    +0.055 C 
ENDROOT
BRANCH   3   8
ATOM      8  C   UNL A   1     -25.688   1.614  26.461  0.00  0.00    +0.038 C 
ATOM      9  C   UNL A   1     -26.250   2.920  26.395  0.00  0.00    +0.076 C 
ATOM     10  C   UNL A   1     -27.438   3.091  25.645  0.00  0.00    +0.107 C 
ATOM     11  N   UNL A   1     -28.075   2.089  25.003  0.00  0.00    -0.208 NA
ATOM     12  C   UNL A   1     -27.543   0.849  25.079  0.00  0.00    +0.253 C 
ATOM     13  C   UNL A   1     -26.354   0.576  25.777  0.00  0.00    +0.193 C 
ATOM     14  F   UNL A   1     -25.860  -0.681  25.795  0.00  0.00    -0.199 F 
BRANCH   9  15
ATOM     15  C   UNL A   1     -25.642   4.093  27.123  0.00  0.00    +0.266 C 
ATOM     16  N   UNL A   1     -25.614   5.252  26.449  0.00  0.00    -0.200 NA
ATOM     17  C   UNL A   1     -25.026   6.479  26.963  0.00  0.00    +0.139 C 
ATOM     18  O   UNL A   1     -25.143   3.966  28.243  0.00  0.00    -0.268 OA
ENDBRANCH   9  15
BRANCH  12  19
ATOM     19  O   UNL A   1     -28.193  -0.208  24.477  0.00  0.00    -0.456 OA
BRANCH  19  20
ATOM     20  C   UNL A   1     -29.460   0.005  23.866  0.00  0.00    +0.243 C 
BRANCH  20  21
ATOM     21  C   UNL A   1     -30.065  -1.377  23.573  0.00  0.00    +0.229 C 
ATOM     22  O   UNL A   1     -30.729  -1.878  24.721  0.00  0.00    -0.216 OA
ENDBRANCH  20  21
ENDBRANCH  19  20
ENDBRANCH  12  19
ENDBRANCH   3   8
BRANCH   7  23
ATOM     23  C   UNL A   1     -22.796   2.428  25.485  0.00  0.00    +0.223 C 
ATOM     24  F   UNL A   1     -21.588   2.509  25.047  0.00  0.00    -0.229 F 
ENDBRANCH   7  23
BRANCH   5  25
ATOM     25  C   UNL A   1     -25.399  -0.083  29.084  0.00  0.00    +0.033 C 
BRANCH  25  26
ATOM     26  C   UNL A   1     -24.855  -1.012  30.143  0.00  0.00    +0.043 C 
BRANCH  26  27
ATOM     27  C   UNL A   1     -24.973  -2.505  29.788  0.00  0.00    -0.021 C 
ATOM     28  C   UNL A   1     -23.906  -3.173  29.146  0.00  0.00    -0.004 C 
ATOM     29  C   UNL A   1     -23.989  -4.549  28.853  0.00  0.00    -0.000 C 
ATOM     30  C   UNL A   1     -25.137  -5.280  29.205  0.00  0.00    -0.000 C 
ATOM     31  C   UNL A   1     -26.232  -4.611  29.784  0.00  0.00    -0.000 C 
ATOM     32  C   UNL A   1     -26.155  -3.232  30.065  0.00  0.00    -0.004 C 
ENDBRANCH  26  27
BRANCH  26  33
ATOM     33  C   UNL A   1     -25.387  -0.679  31.571  0.00  0.00    +0.077 C 
ATOM     34  C   UNL A   1     -25.189   0.773  32.028  0.00  0.00    +0.019 C 
ATOM     35  C   UNL A   1     -25.336   0.684  33.544  0.00  0.00    +0.020 C 
ATOM     36  C   UNL A   1     -24.829  -0.715  33.905  0.00  0.00    +0.089 C 
ATOM     37  N   UNL A   1     -24.758  -1.481  32.646  0.00  0.00    -0.219 NA
ENDBRANCH  26  33
ENDBRANCH  25  26
BRANCH  25  38
ATOM     38  C   UNL A   1     -26.875   0.043  28.831  0.00  0.00    +0.037 C 
BRANCH  38  39
ATOM     39  C   UNL A   1     -27.899   0.600  29.472  0.00  0.00    +0.143 C 
BRANCH  39  40
ATOM     40  O   UNL A   1     -28.541   1.804  29.426  0.00  0.00    -0.352 OA
BRANCH  40  41
ATOM     41  C   UNL A   1     -28.093   2.881  30.277  0.00  0.00    +0.163 C 
BRANCH  41  43
ATOM     42  N   UNL A   1     -28.638   4.277  32.231  0.00  0.00    -0.129 NA
ATOM     43  C   UNL A   1     -28.471   2.900  31.708  0.00  0.00    +0.141 C 
ENDBRANCH  41  43
ENDBRANCH  40  41
ENDBRANCH  39  40
ENDBRANCH  38  39
ENDBRANCH  25  38
ENDBRANCH   5  25
TORSDOF 15
