MODEL 353
MODEL 1
REMARK VINA RESULT:    -6.057      0.000      0.000
REMARK INTER + INTRA:          -7.721
REMARK INTER:                  -7.119
REMARK INTRA:                  -0.602
REMARK UNBOUND:                -0.602
REMARK  Name = No_353-gen_results/8p0m/2024-11-27-11-27-31/
REMARK  3 active torsions:
REMARK  status: ('A' for Active; 'I' for Inactive)
REMARK    1  A    between atoms: C_2  and  C_5
REMARK    2  A    between atoms: C_3  and  C_11
REMARK    3  A    between atoms: C_11  and  C_13
REMARK                            x       y       z     vdW  Elec       q    Type
REMARK                         _______ _______ _______ _____ _____    ______ ____
ROOT
ATOM      1  C   UNL A   1     -23.498   0.278  28.037  0.00  0.00    +0.001 A 
ATOM      2  C   UNL A   1     -22.876   1.007  27.598  0.00  0.00    +0.071 A 
ATOM      3  C   UNL A   1     -22.854  -0.657  28.916  0.00  0.00    -0.002 A 
ATOM      4  C   UNL A   1     -21.527  -0.729  29.058  0.00  0.00    -0.003 A 
ATOM      5  C   UNL A   1     -20.799   0.224  28.423  0.00  0.00    -0.000 A 
ATOM      6  C   UNL A   1     -21.449   1.125  27.661  0.00  0.00    +0.004 A 
ENDROOT
BRANCH   2   7
ATOM      7  C   UNL A   1     -23.460   2.126  26.642  0.00  0.00    +0.419 C 
ATOM      8  F   UNL A   1     -23.635   3.045  27.065  0.00  0.00    -0.166 F 
ATOM      9  F   UNL A   1     -24.631   1.596  25.997  0.00  0.00    -0.166 F 
ATOM     10  F   UNL A   1     -22.643   2.325  25.505  0.00  0.00    -0.166 F 
ENDBRANCH   2   7
BRANCH   3  11
ATOM     11  C   UNL A   1     -23.795  -1.689  29.659  0.00  0.00    +0.169 C 
ATOM     12 CL   UNL A   1     -24.233  -1.376  31.189  0.00  0.00    -0.104 Cl
BRANCH  11  13
ATOM     13  C   UNL A   1     -24.232  -2.868  29.088  0.00  0.00    +0.337 C 
ATOM     14  F   UNL A   1     -23.462  -3.499  28.555  0.00  0.00    -0.197 F 
ATOM     15  F   UNL A   1     -25.173  -2.568  28.171  0.00  0.00    -0.197 F 
ENDBRANCH  11  13
ENDBRANCH   3  11
TORSDOF 3
ENDMDL
ENDMDL
