MODEL 3540
MODEL 1
REMARK VINA RESULT:    -6.491      0.000      0.000
REMARK INTER + INTRA:          -8.144
REMARK INTER:                  -7.439
REMARK INTRA:                  -0.705
REMARK UNBOUND:                -0.705
REMARK  Name = No_3540-gen_results/8p0m/2024-11-27-11-27-31/
REMARK  5 active torsions:
REMARK  status: ('A' for Active; 'I' for Inactive)
REMARK    1  A    between atoms: C_1  and  C_2
REMARK    2  A    between atoms: C_8  and  C_9
REMARK    3  A    between atoms: C_14  and  C_15
REMARK    4  A    between atoms: C_15  and  C_18
REMARK    5  A    between atoms: C_18  and  C_20
REMARK                            x       y       z     vdW  Elec       q    Type
REMARK                         _______ _______ _______ _____ _____    ______ ____
ROOT
ATOM      1  C   UNL A   1     -30.226 -11.097  10.921  0.00  0.00    -0.013 C 
ATOM      2  C   UNL A   1     -28.990 -11.463  10.578  0.00  0.00    -0.004 C 
ATOM      3  C   UNL A   1     -28.469 -11.430   9.241  0.00  0.00    -0.005 C 
ATOM      4  C   UNL A   1     -29.335 -10.829   8.289  0.00  0.00    -0.025 C 
ATOM      5  C   UNL A   1     -30.548 -10.376   8.614  0.00  0.00    +0.041 C 
ATOM      6  C   UNL A   1     -31.045 -10.543   9.917  0.00  0.00    +0.071 C 
ATOM      7 BR   UNL A   1     -31.463  -9.659   9.175  0.00  0.00    -0.078 Br
ENDROOT
BRANCH   1   9
ATOM      8  C   UNL A   1     -31.279 -12.558  12.411  0.00  0.00    +0.002 C 
ATOM      9  C   UNL A   1     -30.616 -11.259  12.097  0.00  0.00    -0.003 C 
BRANCH   8  10
ATOM     10  C   UNL A   1     -31.035 -13.492  11.684  0.00  0.00    +0.028 A 
ATOM     11  C   UNL A   1     -31.840 -13.869  10.627  0.00  0.00    +0.140 A 
ATOM     12  C   UNL A   1     -31.632 -15.025   9.775  0.00  0.00    +0.030 A 
ATOM     13  C   UNL A   1     -30.863 -15.756  10.001  0.00  0.00    +0.002 A 
ATOM     14  C   UNL A   1     -29.850 -15.608  11.095  0.00  0.00    +0.000 A 
ATOM     15  C   UNL A   1     -29.999 -14.487  11.948  0.00  0.00    +0.002 A 
ATOM     16  F   UNL A   1     -33.108 -13.882  11.109  0.00  0.00    -0.204 F 
ENDBRANCH   8  10
ENDBRANCH   1   9
BRANCH   6  17
ATOM     17  C   UNL A   1     -31.032  -8.841  10.194  0.00  0.00    +0.018 C 
ATOM     18  C   UNL A   1     -30.262  -7.741   9.715  0.00  0.00    +0.002 C 
BRANCH  17  19
ATOM     19  C   UNL A   1     -32.365  -8.396  10.513  0.00  0.00    +0.027 C 
BRANCH  19  20
ATOM     20  C   UNL A   1     -31.930  -7.922  10.699  0.00  0.00    -0.026 C 
ATOM     21  C   UNL A   1     -31.008  -6.848  10.449  0.00  0.00    -0.005 C 
ENDBRANCH  19  20
ENDBRANCH  17  19
ENDBRANCH   6  17
TORSDOF 5
ENDMDL
ENDMDL
