MODEL 3541
MODEL 1
REMARK VINA RESULT:    -7.888      0.000      0.000
REMARK INTER + INTRA:         -12.505
REMARK INTER:                 -10.193
REMARK INTRA:                  -2.312
REMARK UNBOUND:                -2.312
REMARK  Name = No_3541-gen_results/8p0m/2024-11-27-11-27-31/
REMARK  5 active torsions:
REMARK  status: ('A' for Active; 'I' for Inactive)
REMARK    1  A    between atoms: C_4  and  C_11
REMARK    2  A    between atoms: C_7  and  O_17
REMARK    3  A    between atoms: O_17  and  C_18
REMARK    4  A    between atoms: C_18  and  C_19
REMARK    5  A    between atoms: C_18  and  C_25
REMARK                            x       y       z     vdW  Elec       q    Type
REMARK                         _______ _______ _______ _____ _____    ______ ____
ROOT
ATOM      1  C   UNL A   1     -25.522   1.000  31.914  0.00  0.00    +0.037 A 
ATOM      2  C   UNL A   1     -26.133   1.259  32.925  0.00  0.00    +0.003 A 
ATOM      3  C   UNL A   1     -25.914   0.548  34.099  0.00  0.00    +0.000 A 
ATOM      4  C   UNL A   1     -26.607   0.763  35.401  0.00  0.00    +0.000 A 
ATOM      5  C   UNL A   1     -26.380   0.003  36.602  0.00  0.00    +0.000 A 
ATOM      6  C   UNL A   1     -25.224  -0.820  36.509  0.00  0.00    +0.000 A 
ATOM      7  C   UNL A   1     -24.654  -0.203  31.865  0.00  0.00    +0.139 A 
ATOM      8  C   UNL A   1     -24.329  -0.898  33.007  0.00  0.00    +0.037 A 
ATOM      9  C   UNL A   1     -24.981  -0.591  34.195  0.00  0.00    +0.003 A 
ATOM     10  C   UNL A   1     -24.655  -1.223  35.409  0.00  0.00    +0.000 A 
ENDROOT
BRANCH   4  11
ATOM     11  C   UNL A   1     -27.650   1.826  35.531  0.00  0.00    +0.000 A 
ATOM     12  C   UNL A   1     -27.276   2.974  35.979  0.00  0.00    +0.000 A 
ATOM     13  C   UNL A   1     -28.248   3.939  36.325  0.00  0.00    +0.000 A 
ATOM     14  C   UNL A   1     -28.931   1.526  35.182  0.00  0.00    +0.000 A 
ATOM     15  C   UNL A   1     -29.945   2.462  35.357  0.00  0.00    +0.000 A 
ATOM     16  C   UNL A   1     -29.563   3.741  35.890  0.00  0.00    +0.000 A 
ENDBRANCH   4  11
BRANCH   7  17
ATOM     17  O   UNL A   1     -24.001  -0.480  30.677  0.00  0.00    -0.470 OA
BRANCH  17  18
ATOM     18  C   UNL A   1     -24.768  -0.895  29.590  0.00  0.00    +0.211 C 
BRANCH  18  19
ATOM     19  C   UNL A   1     -24.864  -2.481  29.659  0.00  0.00    +0.028 A 
ATOM     20  C   UNL A   1     -23.982  -3.169  28.876  0.00  0.00    +0.000 A 
ATOM     21  C   UNL A   1     -24.074  -4.586  28.837  0.00  0.00    -0.000 A 
ATOM     22  C   UNL A   1     -24.984  -5.161  28.905  0.00  0.00    +0.001 A 
ATOM     23  C   UNL A   1     -26.182  -4.465  29.601  0.00  0.00    +0.006 A 
ATOM     24  C   UNL A   1     -26.080  -3.080  29.926  0.00  0.00    +0.034 A 
ATOM     25 BR   UNL A   1     -27.499  -2.246  30.739  0.00  0.00    -0.049 Br
ENDBRANCH  18  19
BRANCH  18  26
ATOM     26  C   UNL A   1     -24.442  -0.448  28.409  0.00  0.00    +0.021 A 
ATOM     27  C   UNL A   1     -23.421   0.265  28.233  0.00  0.00    -0.001 A 
ATOM     28  C   UNL A   1     -23.420   1.043  27.034  0.00  0.00    -0.000 A 
ATOM     29  C   UNL A   1     -24.280   0.712  25.989  0.00  0.00    -0.000 A 
ATOM     30  C   UNL A   1     -25.515  -0.521  27.353  0.00  0.00    -0.001 A 
ATOM     31  C   UNL A   1     -25.404   0.062  26.172  0.00  0.00    -0.000 A 
ENDBRANCH  18  26
ENDBRANCH  17  18
ENDBRANCH   7  17
TORSDOF 5
ENDMDL
ENDMDL
