REMARK  Name = No_3542-gen_results/8p0m/2024-11-27-11-27-31/
REMARK  2 active torsions:
REMARK  status: ('A' for Active; 'I' for Inactive)
REMARK    1  A    between atoms: C_4  and  C_7
REMARK    2  A    between atoms: C_10  and  C_13
REMARK                            x       y       z     vdW  Elec       q    Type
REMARK                         _______ _______ _______ _____ _____    ______ ____
ROOT
ATOM      1  C   UNL A   1     -24.410  -0.971  29.864  0.00  0.00    +0.000 A 
ATOM      2  C   UNL A   1     -23.652  -1.625  30.452  0.00  0.00    +0.000 A 
ATOM      3  C   UNL A   1     -23.864  -0.076  28.869  0.00  0.00    +0.008 A 
ATOM      4  C   UNL A   1     -22.413   0.060  28.818  0.00  0.00    +0.098 A 
ATOM      5  C   UNL A   1     -22.186  -1.514  30.515  0.00  0.00    +0.000 A 
ATOM      6  C   UNL A   1     -21.641  -0.682  29.594  0.00  0.00    +0.008 A 
ENDROOT
BRANCH   1  10
ATOM      7  C   UNL A   1     -28.016  -0.814  28.878  0.00  0.00    +0.000 A 
ATOM      8  C   UNL A   1     -28.469  -0.785  29.829  0.00  0.00    +0.000 A 
ATOM      9  C   UNL A   1     -26.546  -0.876  28.850  0.00  0.00    +0.000 A 
ATOM     10  C   UNL A   1     -25.804  -1.032  30.057  0.00  0.00    +0.000 A 
ATOM     11  C   UNL A   1     -26.537  -1.039  31.217  0.00  0.00    +0.000 A 
ATOM     12  C   UNL A   1     -27.884  -0.953  31.186  0.00  0.00    +0.000 A 
ENDBRANCH   1  10
BRANCH   4  13
ATOM     13  C   UNL A   1     -21.872   1.063  27.869  0.00  0.00    +0.477 C 
ATOM     14  N   UNL A   1     -20.847   1.840  28.268  0.00  0.00    +0.205 NA
ATOM     15  N   UNL A   1     -22.531   1.458  26.785  0.00  0.00    +0.205 NA
ENDBRANCH   4  13
TORSDOF 2
