REMARK  Name = outputs/IAG933/test6/raw/output_3544_IAG933_linker_design_.xyz
REMARK  15 active torsions:
REMARK  status: ('A' for Active; 'I' for Inactive)
REMARK    1  A    between atoms: C_1  and  C_2
REMARK    2  A    between atoms: C_1  and  C_8
REMARK    3  A    between atoms: C_1  and  N_32
REMARK    4  A    between atoms: C_13  and  C_43
REMARK    5  A    between atoms: C_14  and  C_15
REMARK    6  A    between atoms: C_21  and  O_22
REMARK    7  A    between atoms: O_22  and  C_23
REMARK    8  A    between atoms: C_23  and  C_24
REMARK    9  A    between atoms: C_29  and  C_40
REMARK   10  A    between atoms: C_34  and  O_44
REMARK   11  A    between atoms: C_35  and  O_41
REMARK   12  A    between atoms: C_36  and  C_43
REMARK   13  A    between atoms: C_40  and  C_42
REMARK   14  A    between atoms: C_42  and  O_44
REMARK   15  A    between atoms: C_43  and  C_45
REMARK                            x       y       z     vdW  Elec       q    Type
REMARK                         _______ _______ _______ _____ _____    ______ ____
ROOT
ATOM      1  C   UNL A   1     -24.480   1.222  27.121  0.00  0.00    +0.131 C 
ENDROOT
BRANCH   1   2
ATOM      2  C   UNL A   1     -25.688   1.614  26.461  0.00  0.00    +0.029 C 
ATOM      3  C   UNL A   1     -26.250   2.920  26.395  0.00  0.00    +0.073 C 
ATOM      4  C   UNL A   1     -27.438   3.091  25.645  0.00  0.00    +0.106 C 
ATOM      5  N   UNL A   1     -28.075   2.089  25.003  0.00  0.00    -0.208 NA
ATOM      6  C   UNL A   1     -27.543   0.849  25.079  0.00  0.00    +0.253 C 
ATOM      7  C   UNL A   1     -26.354   0.576  25.777  0.00  0.00    +0.190 C 
ATOM      8  F   UNL A   1     -25.860  -0.681  25.795  0.00  0.00    -0.200 F 
BRANCH   3   9
ATOM      9  C   UNL A   1     -25.642   4.093  27.123  0.00  0.00    +0.266 C 
ATOM     10  N   UNL A   1     -25.614   5.252  26.449  0.00  0.00    -0.200 NA
ATOM     11  C   UNL A   1     -25.026   6.479  26.963  0.00  0.00    +0.139 C 
ATOM     12  O   UNL A   1     -25.143   3.966  28.243  0.00  0.00    -0.268 OA
ENDBRANCH   3   9
BRANCH   6  13
ATOM     13  O   UNL A   1     -28.193  -0.208  24.477  0.00  0.00    -0.456 OA
BRANCH  13  14
ATOM     14  C   UNL A   1     -29.460   0.005  23.866  0.00  0.00    +0.243 C 
BRANCH  14  15
ATOM     15  C   UNL A   1     -30.065  -1.377  23.573  0.00  0.00    +0.229 C 
ATOM     16  O   UNL A   1     -30.729  -1.878  24.721  0.00  0.00    -0.216 OA
ENDBRANCH  14  15
ENDBRANCH  13  14
ENDBRANCH   6  13
ENDBRANCH   1   2
BRANCH   1  22
ATOM     17  C   UNL A   1     -20.886   1.278  27.056  0.00  0.00    +0.041 C 
ATOM     18  C   UNL A   1     -21.968   0.719  29.146  0.00  0.00    +0.037 C 
ATOM     19  C   UNL A   1     -23.052   1.508  28.783  0.00  0.00    +0.138 C 
ATOM     20  C   UNL A   1     -22.058   1.825  26.612  0.00  0.00    +0.189 C 
ATOM     21  C   UNL A   1     -20.871   0.635  28.256  0.00  0.00    +0.006 C 
ATOM     22  C   UNL A   1     -23.210   1.628  27.404  0.00  0.00    +0.062 C 
BRANCH  20  24
ATOM     23  F   UNL A   1     -23.045   2.996  25.002  0.00  0.00    +0.014 F 
ATOM     24  O   UNL A   1     -21.903   2.436  25.369  0.00  0.00    -0.292 OA
ENDBRANCH  20  24
BRANCH  19  25
ATOM     25  O   UNL A   1     -23.844   2.218  29.705  0.00  0.00    -0.475 OA
BRANCH  25  26
ATOM     26  C   UNL A   1     -23.653   3.146  30.764  0.00  0.00    +0.217 C 
BRANCH  26  27
ATOM     27  C   UNL A   1     -23.784   4.649  30.772  0.00  0.00    +0.161 C 
BRANCH  27  29
ATOM     28  O   UNL A   1     -22.556   5.164  32.641  0.00  0.00    -0.245 OA
ATOM     29  C   UNL A   1     -23.695   4.977  32.232  0.00  0.00    +0.369 C 
ATOM     30  O   UNL A   1     -24.664   5.107  32.935  0.00  0.00    -0.245 OA
ENDBRANCH  27  29
ENDBRANCH  26  27
ENDBRANCH  25  26
ENDBRANCH  19  25
ENDBRANCH   1  22
BRANCH   1  32
ATOM     31  N   UNL A   1     -24.480   0.163  29.363  0.00  0.00    -0.201 NA
ATOM     32  C   UNL A   1     -25.026   0.266  28.072  0.00  0.00    +0.250 C 
ATOM     33  O   UNL A   1     -25.533  -0.801  27.820  0.00  0.00    -0.273 OA
BRANCH  31  34
ATOM     34  C   UNL A   1     -24.855  -1.012  30.143  0.00  0.00    +0.133 C 
BRANCH  34  35
ATOM     35  C   UNL A   1     -24.973  -2.505  29.788  0.00  0.00    -0.001 C 
ATOM     36  C   UNL A   1     -23.906  -3.173  29.146  0.00  0.00    -0.003 C 
ATOM     37  C   UNL A   1     -23.989  -4.549  28.853  0.00  0.00    -0.000 C 
ATOM     38  C   UNL A   1     -25.137  -5.280  29.205  0.00  0.00    -0.000 C 
ATOM     39  C   UNL A   1     -26.232  -4.611  29.784  0.00  0.00    -0.000 C 
ATOM     40  C   UNL A   1     -26.155  -3.232  30.065  0.00  0.00    -0.003 C 
ENDBRANCH  34  35
BRANCH  34  41
ATOM     41  C   UNL A   1     -25.387  -0.679  31.571  0.00  0.00    +0.097 C 
ATOM     42  C   UNL A   1     -25.189   0.773  32.028  0.00  0.00    +0.021 C 
ATOM     43  C   UNL A   1     -25.336   0.684  33.544  0.00  0.00    +0.020 C 
ATOM     44  C   UNL A   1     -24.829  -0.715  33.905  0.00  0.00    +0.089 C 
ATOM     45  N   UNL A   1     -24.758  -1.481  32.646  0.00  0.00    -0.217 NA
ENDBRANCH  34  41
ENDBRANCH  31  34
ENDBRANCH   1  32
TORSDOF 15
