MODEL 3544
MODEL 1
REMARK VINA RESULT:    -5.329      0.000      0.000
REMARK INTER + INTRA:          -5.795
REMARK INTER:                  -5.641
REMARK INTRA:                  -0.154
REMARK UNBOUND:                -0.154
REMARK  Name = No_3544-gen_results/8p0m/2024-11-27-11-27-31/
REMARK  1 active torsions:
REMARK  status: ('A' for Active; 'I' for Inactive)
REMARK    1  A    between atoms: C_4  and  C_7
REMARK                            x       y       z     vdW  Elec       q    Type
REMARK                         _______ _______ _______ _____ _____    ______ ____
ROOT
ATOM      1  C   UNL A   1     -26.590  -4.012  29.808  0.00  0.00    -0.000 A 
ATOM      2  C   UNL A   1     -26.029  -4.875  29.582  0.00  0.00    -0.000 A 
ATOM      3  C   UNL A   1     -25.873  -2.697  29.597  0.00  0.00    -0.000 A 
ATOM      4  C   UNL A   1     -24.598  -2.694  28.995  0.00  0.00    -0.000 A 
ATOM      5  C   UNL A   1     -24.730  -5.143  28.926  0.00  0.00    -0.000 A 
ATOM      6  C   UNL A   1     -24.043  -3.956  28.710  0.00  0.00    -0.000 A 
ENDROOT
BRANCH   4   7
ATOM      7  C   UNL A   1     -23.869  -1.489  28.789  0.00  0.00    -0.005 C 
ATOM      8  C   UNL A   1     -22.688  -1.296  29.207  0.00  0.00    -0.026 C 
ATOM      9  C   UNL A   1     -21.897  -0.100  28.868  0.00  0.00    +0.031 C 
ENDBRANCH   4   7
TORSDOF 1
ENDMDL
ENDMDL
