REMARK  Name = No_3546-gen_results/8p0m/2024-11-27-11-27-31/
REMARK  0 active torsions:
REMARK  status: ('A' for Active; 'I' for Inactive)
REMARK                            x       y       z     vdW  Elec       q    Type
REMARK                         _______ _______ _______ _____ _____    ______ ____
ROOT
ATOM      1  F   UNL A   1     -28.073  -1.254  28.532  0.00  0.00    -0.204 F 
ATOM      2  C   UNL A   1     -27.359  -0.379  28.722  0.00  0.00    +0.140 A 
ATOM      3  C   UNL A   1     -26.332  -0.644  29.452  0.00  0.00    +0.030 A 
ATOM      4  C   UNL A   1     -27.533   0.859  28.052  0.00  0.00    +0.030 A 
ATOM      5  C   UNL A   1     -26.466   1.824  28.084  0.00  0.00    +0.002 A 
ATOM      6  C   UNL A   1     -25.204   0.407  29.624  0.00  0.00    +0.002 A 
ATOM      7  C   UNL A   1     -25.364   1.622  28.934  0.00  0.00    +0.000 A 
ENDROOT
TORSDOF 0
