MODEL 3546
MODEL 1
REMARK VINA RESULT:    -4.514      0.000      0.000
REMARK INTER + INTRA:          -4.514
REMARK INTER:                  -4.514
REMARK INTRA:                   0.000
REMARK UNBOUND:                 0.000
REMARK  Name = No_3546-gen_results/8p0m/2024-11-27-11-27-31/
REMARK  0 active torsions:
REMARK  status: ('A' for Active; 'I' for Inactive)
REMARK                            x       y       z     vdW  Elec       q    Type
REMARK                         _______ _______ _______ _____ _____    ______ ____
ROOT
ATOM      1  F   UNL A   1     -24.904  -6.318  28.894  0.00  0.00    -0.204 F 
ATOM      2  C   UNL A   1     -25.006  -5.180  28.974  0.00  0.00    +0.140 A 
ATOM      3  C   UNL A   1     -26.061  -4.754  29.578  0.00  0.00    +0.030 A 
ATOM      4  C   UNL A   1     -23.949  -4.326  28.569  0.00  0.00    +0.030 A 
ATOM      5  C   UNL A   1     -23.989  -2.939  28.952  0.00  0.00    +0.002 A 
ATOM      6  C   UNL A   1     -26.216  -3.246  29.908  0.00  0.00    +0.002 A 
ATOM      7  C   UNL A   1     -25.153  -2.406  29.534  0.00  0.00    +0.000 A 
ENDROOT
TORSDOF 0
ENDMDL
ENDMDL
