REMARK  Name = outputs/IAG933/test6/raw/output_3547_IAG933_linker_design_.xyz
REMARK  15 active torsions:
REMARK  status: ('A' for Active; 'I' for Inactive)
REMARK    1  A    between atoms: C_1  and  C_2
REMARK    2  A    between atoms: C_1  and  C_8
REMARK    3  A    between atoms: C_1  and  N_44
REMARK    4  A    between atoms: C_13  and  C_30
REMARK    5  A    between atoms: C_14  and  C_15
REMARK    6  A    between atoms: C_21  and  O_22
REMARK    7  A    between atoms: O_22  and  C_23
REMARK    8  A    between atoms: C_23  and  C_24
REMARK    9  A    between atoms: C_28  and  N_31
REMARK   10  A    between atoms: C_28  and  C_45
REMARK   11  A    between atoms: C_30  and  C_33
REMARK   12  A    between atoms: C_30  and  C_43
REMARK   13  A    between atoms: C_33  and  C_39
REMARK   14  A    between atoms: C_33  and  N_44
REMARK   15  A    between atoms: C_39  and  C_45
REMARK                            x       y       z     vdW  Elec       q    Type
REMARK                         _______ _______ _______ _____ _____    ______ ____
ROOT
ATOM      1  C   UNL A   1     -25.760   0.918  28.538  0.00  0.00    +0.139 C 
ENDROOT
BRANCH   1   2
ATOM      2  C   UNL A   1     -27.319   0.896  28.995  0.00  0.00    +0.168 C 
ATOM      3  O   UNL A   1     -28.024  -0.076  28.816  0.00  0.00    -0.294 OA
BRANCH   2   4
ATOM      4  C   UNL A   1     -27.965   2.141  29.497  0.00  0.00    +0.083 C 
BRANCH   4   5
ATOM      5  C   UNL A   1     -29.463   1.918  29.725  0.00  0.00    +0.082 C 
BRANCH   5   7
ATOM      6  C   UNL A   1     -32.056   4.520  30.133  0.00  0.00    +0.021 C 
ATOM      7  N   UNL A   1     -30.186   3.083  30.050  0.00  0.00    -0.248 NA
ATOM      8  O   UNL A   1     -30.454   3.112  27.980  0.00  0.00    -0.205 OA
ATOM      9  C   UNL A   1     -31.238   4.917  28.913  0.00  0.00    +0.051 C 
ATOM     10  C   UNL A   1     -30.383   3.808  28.659  0.00  0.00    +0.213 C 
ATOM     11  C   UNL A   1     -31.640   2.994  30.314  0.00  0.00    +0.074 C 
ENDBRANCH   5   7
ENDBRANCH   4   5
ENDBRANCH   2   4
ENDBRANCH   1   2
BRANCH   1  12
ATOM     12  C   UNL A   1     -24.970   1.252  27.525  0.00  0.00    +0.107 C 
BRANCH  12  13
ATOM     13  C   UNL A   1     -25.688   1.614  26.461  0.00  0.00    +0.081 C 
ATOM     14  C   UNL A   1     -26.250   2.920  26.395  0.00  0.00    +0.055 C 
ATOM     15  C   UNL A   1     -27.438   3.091  25.645  0.00  0.00    +0.102 C 
ATOM     16  N   UNL A   1     -28.075   2.089  25.003  0.00  0.00    -0.212 NA
ATOM     17  C   UNL A   1     -27.543   0.849  25.079  0.00  0.00    +0.234 C 
ATOM     18  C   UNL A   1     -26.354   0.576  25.777  0.00  0.00    +0.240 C 
ATOM     19  F   UNL A   1     -25.860  -0.681  25.795  0.00  0.00    -0.227 F 
BRANCH  14  20
ATOM     20  C   UNL A   1     -25.642   4.093  27.123  0.00  0.00    +0.263 C 
ATOM     21  N   UNL A   1     -25.614   5.252  26.449  0.00  0.00    -0.200 NA
ATOM     22  C   UNL A   1     -25.026   6.479  26.963  0.00  0.00    +0.139 C 
ATOM     23  O   UNL A   1     -25.143   3.966  28.243  0.00  0.00    -0.269 OA
ENDBRANCH  14  20
BRANCH  17  24
ATOM     24  O   UNL A   1     -28.193  -0.208  24.477  0.00  0.00    -0.459 OA
BRANCH  24  25
ATOM     25  C   UNL A   1     -29.460   0.005  23.866  0.00  0.00    +0.242 C 
BRANCH  25  26
ATOM     26  C   UNL A   1     -30.065  -1.377  23.573  0.00  0.00    +0.229 C 
ATOM     27  O   UNL A   1     -30.729  -1.878  24.721  0.00  0.00    -0.216 OA
ENDBRANCH  25  26
ENDBRANCH  24  25
ENDBRANCH  17  24
ENDBRANCH  12  13
BRANCH  12  32
ATOM     28  N   UNL A   1     -22.712   2.014  26.823  0.00  0.00    -0.276 N 
ATOM     29  O   UNL A   1     -22.883   0.422  28.353  0.00  0.00    -0.275 OA
ATOM     30  C   UNL A   1     -23.026   2.386  25.456  0.00  0.00    +0.115 C 
ATOM     31  C   UNL A   1     -21.321   1.847  27.156  0.00  0.00    +0.115 C 
ATOM     32  C   UNL A   1     -23.494   1.226  27.535  0.00  0.00    +0.228 C 
ENDBRANCH  12  32
ENDBRANCH   1  12
BRANCH   1  33
ATOM     33  N   UNL A   1     -25.425  -0.198  29.379  0.00  0.00    -0.207 NA
BRANCH  33  34
ATOM     34  C   UNL A   1     -24.855  -1.012  30.143  0.00  0.00    +0.111 C 
BRANCH  34  35
ATOM     35  C   UNL A   1     -24.973  -2.505  29.788  0.00  0.00    -0.005 C 
ATOM     36  C   UNL A   1     -23.906  -3.173  29.146  0.00  0.00    -0.003 C 
ATOM     37  C   UNL A   1     -23.989  -4.549  28.853  0.00  0.00    -0.000 C 
ATOM     38  C   UNL A   1     -25.137  -5.280  29.205  0.00  0.00    -0.000 C 
ATOM     39  C   UNL A   1     -26.232  -4.611  29.784  0.00  0.00    -0.000 C 
ATOM     40  C   UNL A   1     -26.155  -3.232  30.065  0.00  0.00    -0.003 C 
ENDBRANCH  34  35
BRANCH  34  41
ATOM     41  C   UNL A   1     -25.387  -0.679  31.571  0.00  0.00    +0.093 C 
ATOM     42  C   UNL A   1     -25.189   0.773  32.028  0.00  0.00    +0.021 C 
ATOM     43  C   UNL A   1     -25.336   0.684  33.544  0.00  0.00    +0.020 C 
ATOM     44  C   UNL A   1     -24.829  -0.715  33.905  0.00  0.00    +0.089 C 
ATOM     45  N   UNL A   1     -24.758  -1.481  32.646  0.00  0.00    -0.218 NA
ENDBRANCH  34  41
ENDBRANCH  33  34
ENDBRANCH   1  33
TORSDOF 15
