MODEL 3547
MODEL 1
REMARK VINA RESULT:    -5.267      0.000      0.000
REMARK INTER + INTRA:          -6.243
REMARK INTER:                  -5.883
REMARK INTRA:                  -0.359
REMARK UNBOUND:                -0.359
REMARK  Name = No_3547-gen_results/8p0m/2024-11-27-11-27-31/
REMARK  2 active torsions:
REMARK  status: ('A' for Active; 'I' for Inactive)
REMARK    1  A    between atoms: C_3  and  C_4
REMARK    2  A    between atoms: C_4  and  C_8
REMARK                            x       y       z     vdW  Elec       q    Type
REMARK                         _______ _______ _______ _____ _____    ______ ____
ROOT
ATOM      1  C   UNL A   1     -26.351  -4.225  29.740  0.00  0.00    -0.000 A 
ATOM      2  C   UNL A   1     -26.004  -3.067  29.708  0.00  0.00    -0.004 A 
ATOM      3  C   UNL A   1     -24.805  -2.693  29.111  0.00  0.00    -0.018 A 
ATOM      4  C   UNL A   1     -25.411  -5.283  29.365  0.00  0.00    -0.000 A 
ATOM      5  C   UNL A   1     -24.253  -5.009  28.682  0.00  0.00    -0.000 A 
ATOM      6  C   UNL A   1     -23.897  -3.665  28.545  0.00  0.00    -0.004 A 
ENDROOT
BRANCH   3   7
ATOM      7  C   UNL A   1     -24.387  -1.343  28.982  0.00  0.00    +0.052 C 
BRANCH   7   8
ATOM      8  C   UNL A   1     -23.092  -0.947  29.016  0.00  0.00    -0.026 C 
ATOM      9  C   UNL A   1     -22.460  -0.589  30.235  0.00  0.00    -0.030 C 
ATOM     10  C   UNL A   1     -23.091  -0.671  31.461  0.00  0.00    +0.030 C 
ENDBRANCH   7   8
ENDBRANCH   3   7
TORSDOF 2
ENDMDL
ENDMDL
