REMARK  Name = outputs/IAG933/test6/raw/output_3548_IAG933_linker_design_.xyz
REMARK  11 active torsions:
REMARK  status: ('A' for Active; 'I' for Inactive)
REMARK    1  A    between atoms: C_1  and  C_2
REMARK    2  A    between atoms: C_1  and  C_8
REMARK    3  A    between atoms: C_1  and  C_33
REMARK    4  A    between atoms: C_13  and  C_30
REMARK    5  A    between atoms: C_14  and  C_15
REMARK    6  A    between atoms: C_21  and  O_22
REMARK    7  A    between atoms: O_22  and  C_23
REMARK    8  A    between atoms: C_23  and  C_24
REMARK    9  A    between atoms: C_32  and  C_43
REMARK   10  A    between atoms: C_36  and  O_39
REMARK   11  A    between atoms: O_39  and  C_44
REMARK                            x       y       z     vdW  Elec       q    Type
REMARK                         _______ _______ _______ _____ _____    ______ ____
ROOT
ATOM      1  C   UNL A   1     -23.459   1.103  27.649  0.00  0.00    +0.032 A 
ATOM      2  O   UNL A   1     -25.927   3.338  30.396  0.00  0.00    -0.272 OA
ATOM      3  C   UNL A   1     -24.696   1.349  27.514  0.00  0.00    +0.050 A 
ATOM      4  C   UNL A   1     -21.015   1.178  27.872  0.00  0.00    +0.208 C 
ATOM      5  C   UNL A   1     -26.384   2.461  29.822  0.00  0.00    +0.241 C 
ATOM      6  C   UNL A   1     -24.660   0.280  29.302  0.00  0.00    +0.047 A 
ATOM      7  F   UNL A   1     -22.072  -1.202  30.194  0.00  0.00    -0.232 F 
ATOM      8  C   UNL A   1     -20.828  -0.124  28.619  0.00  0.00    +0.079 C 
ATOM      9  C   UNL A   1     -22.055  -0.399  29.241  0.00  0.00    +0.187 C 
ATOM     10  C   UNL A   1     -23.319   0.247  28.801  0.00  0.00    +0.023 A 
ATOM     11  F   UNL A   1     -19.873   1.915  27.915  0.00  0.00    -0.233 F 
ATOM     12  C   UNL A   1     -22.136   1.435  27.103  0.00  0.00    +0.225 C 
ATOM     13  N   UNL A   1     -25.417   1.567  29.112  0.00  0.00    -0.285 N 
ENDROOT
BRANCH   3  14
ATOM     14  C   UNL A   1     -25.688   1.614  26.461  0.00  0.00    +0.108 C 
ATOM     15  C   UNL A   1     -26.250   2.920  26.395  0.00  0.00    +0.060 C 
ATOM     16  C   UNL A   1     -27.438   3.091  25.645  0.00  0.00    +0.102 C 
ATOM     17  N   UNL A   1     -28.075   2.089  25.003  0.00  0.00    -0.212 NA
ATOM     18  C   UNL A   1     -27.543   0.849  25.079  0.00  0.00    +0.234 C 
ATOM     19  C   UNL A   1     -26.354   0.576  25.777  0.00  0.00    +0.245 C 
ATOM     20  F   UNL A   1     -25.860  -0.681  25.795  0.00  0.00    -0.227 F 
BRANCH  15  21
ATOM     21  C   UNL A   1     -25.642   4.093  27.123  0.00  0.00    +0.263 C 
ATOM     22  N   UNL A   1     -25.614   5.252  26.449  0.00  0.00    -0.200 NA
ATOM     23  C   UNL A   1     -25.026   6.479  26.963  0.00  0.00    +0.139 C 
ATOM     24  O   UNL A   1     -25.143   3.966  28.243  0.00  0.00    -0.269 OA
ENDBRANCH  15  21
BRANCH  18  25
ATOM     25  O   UNL A   1     -28.193  -0.208  24.477  0.00  0.00    -0.459 OA
BRANCH  25  26
ATOM     26  C   UNL A   1     -29.460   0.005  23.866  0.00  0.00    +0.242 C 
BRANCH  26  27
ATOM     27  C   UNL A   1     -30.065  -1.377  23.573  0.00  0.00    +0.229 C 
ATOM     28  O   UNL A   1     -30.729  -1.878  24.721  0.00  0.00    -0.216 OA
ENDBRANCH  26  27
ENDBRANCH  25  26
ENDBRANCH  18  25
ENDBRANCH   3  14
BRANCH   5  30
ATOM     29  C   UNL A   1     -28.325   0.873  29.997  0.00  0.00    +0.010 C 
ATOM     30  C   UNL A   1     -27.871   2.319  29.831  0.00  0.00    +0.088 C 
ENDBRANCH   5  30
BRANCH   6  31
ATOM     31  C   UNL A   1     -24.855  -1.012  30.143  0.00  0.00    +0.077 C 
BRANCH  31  32
ATOM     32  C   UNL A   1     -24.973  -2.505  29.788  0.00  0.00    -0.016 C 
ATOM     33  C   UNL A   1     -23.906  -3.173  29.146  0.00  0.00    -0.004 C 
ATOM     34  C   UNL A   1     -23.989  -4.549  28.853  0.00  0.00    -0.000 C 
ATOM     35  C   UNL A   1     -25.137  -5.280  29.205  0.00  0.00    -0.000 C 
ATOM     36  C   UNL A   1     -26.232  -4.611  29.784  0.00  0.00    -0.000 C 
ATOM     37  C   UNL A   1     -26.155  -3.232  30.065  0.00  0.00    -0.004 C 
ENDBRANCH  31  32
BRANCH  31  38
ATOM     38  C   UNL A   1     -25.387  -0.679  31.571  0.00  0.00    +0.082 C 
ATOM     39  C   UNL A   1     -25.189   0.773  32.028  0.00  0.00    +0.020 C 
ATOM     40  C   UNL A   1     -25.336   0.684  33.544  0.00  0.00    +0.020 C 
ATOM     41  C   UNL A   1     -24.829  -0.715  33.905  0.00  0.00    +0.089 C 
ATOM     42  N   UNL A   1     -24.758  -1.481  32.646  0.00  0.00    -0.219 NA
ENDBRANCH  31  38
ENDBRANCH   6  31
BRANCH  12  43
ATOM     43  O   UNL A   1     -21.497   1.819  25.868  0.00  0.00    -0.437 OA
BRANCH  43  44
ATOM     44  C   UNL A   1     -22.718   2.225  25.147  0.00  0.00    +0.418 C 
ATOM     45  O   UNL A   1     -23.583   1.623  24.954  0.00  0.00    -0.237 OA
ENDBRANCH  43  44
ENDBRANCH  12  43
TORSDOF 11
