MODEL 3548
MODEL 1
REMARK VINA RESULT:    -7.075      0.000      0.000
REMARK INTER + INTRA:          -8.775
REMARK INTER:                  -8.316
REMARK INTRA:                  -0.459
REMARK UNBOUND:                -0.459
REMARK  Name = No_3548-gen_results/8p0m/2024-11-27-11-27-31/
REMARK  3 active torsions:
REMARK  status: ('A' for Active; 'I' for Inactive)
REMARK    1  A    between atoms: C_1  and  C_2
REMARK    2  A    between atoms: C_5  and  C_11
REMARK    3  A    between atoms: C_10  and  C_15
REMARK                            x       y       z     vdW  Elec       q    Type
REMARK                         _______ _______ _______ _____ _____    ______ ____
ROOT
ATOM      1  C   UNL A   1      -7.928   0.335  36.065  0.00  0.00    +0.289 C 
ATOM      2  N   UNL A   1      -9.011  -0.457  36.303  0.00  0.00    -0.136 NA
ATOM      3  O   UNL A   1      -8.204   1.630  35.993  0.00  0.00    -0.266 OA
ATOM      4  C   UNL A   1     -10.287   0.038  36.730  0.00  0.00    +0.272 C 
ATOM      5  O   UNL A   1     -10.994   0.591  35.908  0.00  0.00    -0.268 OA
ENDROOT
BRANCH   1   6
ATOM      6  C   UNL A   1      -6.950  -0.141  35.538  0.00  0.00    +0.137 A 
ATOM      7  N   UNL A   1      -5.691   0.227  35.814  0.00  0.00    -0.239 NA
ATOM      8  C   UNL A   1      -4.492  -0.298  35.222  0.00  0.00    +0.103 A 
ATOM      9  C   UNL A   1      -4.585  -1.479  34.553  0.00  0.00    +0.090 A 
ATOM     10  C   UNL A   1      -5.896  -1.964  34.307  0.00  0.00    +0.007 A 
ATOM     11  C   UNL A   1      -7.001  -1.362  34.808  0.00  0.00    +0.024 A 
BRANCH   9  12
ATOM     12  C   UNL A   1      -3.388  -2.077  34.000  0.00  0.00    +0.420 C 
ATOM     13  F   UNL A   1      -3.580  -2.976  33.289  0.00  0.00    -0.166 F 
ATOM     14  F   UNL A   1      -2.737  -1.105  33.161  0.00  0.00    -0.166 F 
ATOM     15  F   UNL A   1      -2.493  -2.410  35.000  0.00  0.00    -0.166 F 
ENDBRANCH   9  12
ENDBRANCH   1   6
BRANCH   4  16
ATOM     16  C   UNL A   1     -10.856  -0.768  37.779  0.00  0.00    +0.056 A 
ATOM     17  C   UNL A   1     -11.264  -1.972  37.494  0.00  0.00    +0.005 A 
ATOM     18  C   UNL A   1     -12.047  -2.668  38.473  0.00  0.00    +0.000 A 
ATOM     19  C   UNL A   1     -12.330  -2.111  39.725  0.00  0.00    +0.000 A 
ATOM     20  C   UNL A   1     -11.904  -0.840  39.966  0.00  0.00    +0.000 A 
ATOM     21  C   UNL A   1     -11.233  -0.113  38.982  0.00  0.00    +0.005 A 
ENDBRANCH   4  16
TORSDOF 3
ENDMDL
ENDMDL
