MODEL 3549
MODEL 1
REMARK VINA RESULT:    -6.277      0.000      0.000
REMARK INTER + INTRA:          -7.541
REMARK INTER:                  -7.011
REMARK INTRA:                  -0.530
REMARK UNBOUND:                -0.530
REMARK  Name = No_3549-gen_results/8p0m/2024-11-27-11-27-31/
REMARK  2 active torsions:
REMARK  status: ('A' for Active; 'I' for Inactive)
REMARK    1  A    between atoms: C_3  and  C_4
REMARK    2  A    between atoms: C_4  and  C_8
REMARK                            x       y       z     vdW  Elec       q    Type
REMARK                         _______ _______ _______ _____ _____    ______ ____
ROOT
ATOM      1  C   UNL A   1     -23.931  -1.089  29.354  0.00  0.00    +0.053 C 
ENDROOT
BRANCH   1   4
ATOM      2  C   UNL A   1     -25.031  -0.290  27.112  0.00  0.00    -0.004 A 
ATOM      3  C   UNL A   1     -24.873   0.337  26.280  0.00  0.00    -0.000 A 
ATOM      4  C   UNL A   1     -24.024  -0.230  28.183  0.00  0.00    -0.018 A 
ATOM      5  C   UNL A   1     -23.918   1.448  26.053  0.00  0.00    -0.000 A 
ATOM      6  C   UNL A   1     -22.934   1.575  27.027  0.00  0.00    -0.000 A 
ATOM      7  C   UNL A   1     -22.949   0.769  28.146  0.00  0.00    -0.004 A 
ENDBRANCH   1   4
BRANCH   1   8
ATOM      8  C   UNL A   1     -24.578  -2.406  29.239  0.00  0.00    -0.018 A 
ATOM      9  C   UNL A   1     -23.765  -3.371  28.742  0.00  0.00    -0.004 A 
ATOM     10  C   UNL A   1     -24.282  -4.725  28.679  0.00  0.00    -0.000 A 
ATOM     11  C   UNL A   1     -25.500  -5.036  29.186  0.00  0.00    -0.000 A 
ATOM     12  C   UNL A   1     -25.797  -2.719  29.819  0.00  0.00    -0.004 A 
ATOM     13  C   UNL A   1     -26.264  -4.000  29.793  0.00  0.00    -0.000 A 
ENDBRANCH   1   8
TORSDOF 2
ENDMDL
ENDMDL
