MODEL 354
MODEL 1
REMARK VINA RESULT:    -6.240      0.000      0.000
REMARK INTER + INTRA:          -8.193
REMARK INTER:                  -7.699
REMARK INTRA:                  -0.493
REMARK UNBOUND:                -0.493
REMARK  Name = No_354-gen_results/8p0m/2024-11-27-11-27-31/
REMARK  4 active torsions:
REMARK  status: ('A' for Active; 'I' for Inactive)
REMARK    1  A    between atoms: C_3  and  C_8
REMARK    2  A    between atoms: C_6  and  O_7
REMARK    3  A    between atoms: O_7  and  C_14
REMARK    4  A    between atoms: C_14  and  C_15
REMARK                            x       y       z     vdW  Elec       q    Type
REMARK                         _______ _______ _______ _____ _____    ______ ____
ROOT
ATOM      1  C   UNL A   1     -26.734  -2.539  30.027  0.00  0.00    +0.037 A 
ATOM      2  C   UNL A   1     -25.921  -1.720  29.667  0.00  0.00    +0.003 A 
ATOM      3  C   UNL A   1     -24.737  -2.047  29.007  0.00  0.00    +0.000 A 
ATOM      4  C   UNL A   1     -24.417  -3.443  28.781  0.00  0.00    +0.003 A 
ATOM      5  C   UNL A   1     -25.408  -4.342  29.236  0.00  0.00    +0.037 A 
ATOM      6  C   UNL A   1     -26.490  -3.939  29.854  0.00  0.00    +0.139 A 
ENDROOT
BRANCH   3   7
ATOM      7  C   UNL A   1     -23.762  -0.973  28.710  0.00  0.00    +0.001 A 
ATOM      8  C   UNL A   1     -22.516  -1.128  29.215  0.00  0.00    +0.000 A 
ATOM      9  C   UNL A   1     -21.534  -0.148  28.898  0.00  0.00    +0.001 A 
ATOM     10  C   UNL A   1     -23.952   0.033  27.846  0.00  0.00    +0.011 A 
ATOM     11  C   UNL A   1     -23.035   0.981  27.451  0.00  0.00    +0.058 A 
ATOM     12  C   UNL A   1     -21.745   0.880  27.988  0.00  0.00    +0.011 A 
ATOM     13 CL   UNL A   1     -23.375   2.170  26.296  0.00  0.00    -0.082 Cl
ENDBRANCH   3   7
BRANCH   6  14
ATOM     14  O   UNL A   1     -27.353  -4.901  30.297  0.00  0.00    -0.464 OA
BRANCH  14  15
ATOM     15  C   UNL A   1     -28.713  -4.691  30.415  0.00  0.00    +0.319 C 
BRANCH  15  16
ATOM     16  C   UNL A   1     -29.232  -5.301  31.632  0.00  0.00    +0.408 C 
ATOM     17  O   UNL A   1     -29.360  -4.500  32.576  0.00  0.00    -0.241 OA
ATOM     18  O   UNL A   1     -29.093  -6.502  31.835  0.00  0.00    -0.241 OA
ENDBRANCH  15  16
ENDBRANCH  14  15
ENDBRANCH   6  14
TORSDOF 4
ENDMDL
ENDMDL
