MODEL 3550
MODEL 1
REMARK VINA RESULT:    -5.884      0.000      0.000
REMARK INTER + INTRA:          -6.350
REMARK INTER:                  -6.228
REMARK INTRA:                  -0.122
REMARK UNBOUND:                -0.122
REMARK  Name = No_3550-gen_results/8p0m/2024-11-27-11-27-31/
REMARK  1 active torsions:
REMARK  status: ('A' for Active; 'I' for Inactive)
REMARK    1  A    between atoms: C_7  and  C_8
REMARK                            x       y       z     vdW  Elec       q    Type
REMARK                         _______ _______ _______ _____ _____    ______ ____
ROOT
ATOM      1  O   UNL A   1     -28.256  -2.859  30.410  0.00  0.00    -0.268 OA
ATOM      2  C   UNL A   1     -27.149  -2.385  30.132  0.00  0.00    +0.265 C 
ATOM      3  C   UNL A   1     -26.131  -3.055  29.738  0.00  0.00    +0.052 A 
ATOM      4  N   UNL A   1     -26.971  -0.946  30.110  0.00  0.00    -0.201 NA
ATOM      5  C   UNL A   1     -24.818  -2.531  29.424  0.00  0.00    -0.006 A 
ATOM      6  C   UNL A   1     -25.777  -0.327  29.783  0.00  0.00    +0.131 C 
ATOM      7  C   UNL A   1     -24.686  -1.079  29.451  0.00  0.00    +0.147 C 
ATOM      8  C   UNL A   1     -26.241  -4.539  29.660  0.00  0.00    +0.004 A 
ATOM      9  C   UNL A   1     -25.304  -5.315  29.196  0.00  0.00    +0.000 A 
ATOM     10  C   UNL A   1     -24.318  -5.018  28.738  0.00  0.00    -0.000 A 
ATOM     11  C   UNL A   1     -23.817  -3.491  28.818  0.00  0.00    -0.004 A 
ENDROOT
BRANCH   7  12
ATOM     12  C   UNL A   1     -23.427  -0.431  29.178  0.00  0.00    +0.370 C 
ATOM     13  O   UNL A   1     -23.197   0.002  27.990  0.00  0.00    -0.245 OA
ATOM     14  O   UNL A   1     -22.478  -0.413  30.080  0.00  0.00    -0.245 OA
ENDBRANCH   7  12
TORSDOF 1
ENDMDL
ENDMDL
