MODEL 3551
MODEL 1
REMARK VINA RESULT:    -5.772      0.000      0.000
REMARK INTER + INTRA:          -7.493
REMARK INTER:                  -7.122
REMARK INTRA:                  -0.371
REMARK UNBOUND:                -0.371
REMARK  Name = No_3551-gen_results/8p0m/2024-11-27-11-27-31/
REMARK  4 active torsions:
REMARK  status: ('A' for Active; 'I' for Inactive)
REMARK    1  A    between atoms: C_3  and  C_7
REMARK    2  A    between atoms: C_7  and  N_8
REMARK    3  A    between atoms: N_8  and  C_9
REMARK    4  A    between atoms: C_10  and  C_11
REMARK                            x       y       z     vdW  Elec       q    Type
REMARK                         _______ _______ _______ _____ _____    ______ ____
ROOT
ATOM      1  C   UNL A   1     -25.442  -1.290  29.432  0.00  0.00    +0.139 C 
ENDROOT
BRANCH   1   4
ATOM      2  C   UNL A   1     -26.265  -3.672  29.770  0.00  0.00    -0.003 A 
ATOM      3  C   UNL A   1     -26.102  -4.690  29.556  0.00  0.00    -0.000 A 
ATOM      4  C   UNL A   1     -25.214  -2.789  29.250  0.00  0.00    -0.001 A 
ATOM      5  C   UNL A   1     -24.081  -3.257  28.724  0.00  0.00    -0.003 A 
ATOM      6  C   UNL A   1     -24.974  -5.421  29.031  0.00  0.00    -0.000 A 
ATOM      7  C   UNL A   1     -23.997  -4.585  28.576  0.00  0.00    -0.000 A 
ENDBRANCH   1   4
BRANCH   1   8
ATOM      8  N   UNL A   1     -26.188  -0.626  28.541  0.00  0.00    -0.232 NA
BRANCH   8   9
ATOM      9  C   UNL A   1     -25.759   0.430  27.872  0.00  0.00    +0.080 C 
ATOM     10  C   UNL A   1     -24.576   0.271  27.023  0.00  0.00    +0.017 C 
BRANCH  10  11
ATOM     11  C   UNL A   1     -23.999   1.310  26.251  0.00  0.00    -0.003 C 
ATOM     12  C   UNL A   1     -22.747   1.827  26.602  0.00  0.00    -0.026 C 
ATOM     13  C   UNL A   1     -22.082   1.442  27.742  0.00  0.00    +0.031 C 
ENDBRANCH  10  11
ENDBRANCH   8   9
ENDBRANCH   1   8
TORSDOF 4
ENDMDL
ENDMDL
