REMARK  Name = No_3551-gen_results/8p0m/2024-11-27-11-27-31/
REMARK  4 active torsions:
REMARK  status: ('A' for Active; 'I' for Inactive)
REMARK    1  A    between atoms: C_3  and  C_7
REMARK    2  A    between atoms: C_7  and  N_8
REMARK    3  A    between atoms: N_8  and  C_9
REMARK    4  A    between atoms: C_10  and  C_11
REMARK                            x       y       z     vdW  Elec       q    Type
REMARK                         _______ _______ _______ _____ _____    ______ ____
ROOT
ATOM      1  C   UNL A   1     -27.459   0.493  26.770  0.00  0.00    +0.139 C 
ENDROOT
BRANCH   1   4
ATOM      2  C   UNL A   1     -28.016  -0.814  28.878  0.00  0.00    -0.003 A 
ATOM      3  C   UNL A   1     -28.469  -0.785  29.829  0.00  0.00    -0.000 A 
ATOM      4  C   UNL A   1     -28.182   0.428  28.113  0.00  0.00    -0.001 A 
ATOM      5  C   UNL A   1     -28.984   1.415  28.515  0.00  0.00    -0.003 A 
ATOM      6  C   UNL A   1     -29.380   0.138  30.461  0.00  0.00    -0.000 A 
ATOM      7  C   UNL A   1     -29.541   1.274  29.724  0.00  0.00    -0.000 A 
ENDBRANCH   1   4
BRANCH   1   8
ATOM      8  N   UNL A   1     -26.129   0.346  26.732  0.00  0.00    -0.232 NA
BRANCH   8   9
ATOM      9  C   UNL A   1     -25.404  -0.010  27.778  0.00  0.00    +0.080 C 
ATOM     10  C   UNL A   1     -24.027   0.482  27.858  0.00  0.00    +0.017 C 
BRANCH  10  11
ATOM     11  C   UNL A   1     -23.130   0.184  28.915  0.00  0.00    -0.003 C 
ATOM     12  C   UNL A   1     -21.873   0.797  28.957  0.00  0.00    -0.026 C 
ATOM     13  C   UNL A   1     -21.415   1.612  27.948  0.00  0.00    +0.031 C 
ENDBRANCH  10  11
ENDBRANCH   8   9
ENDBRANCH   1   8
TORSDOF 4
