REMARK  Name = No_3552-gen_results/8p0m/2024-11-27-11-27-31/
REMARK  3 active torsions:
REMARK  status: ('A' for Active; 'I' for Inactive)
REMARK    1  A    between atoms: C_3  and  C_15
REMARK    2  A    between atoms: C_5  and  C_10
REMARK    3  A    between atoms: C_20  and  C_21
REMARK                            x       y       z     vdW  Elec       q    Type
REMARK                         _______ _______ _______ _____ _____    ______ ____
ROOT
ATOM      1  C   UNL A   1     -28.016  -0.814  28.878  0.00  0.00    +0.110 A 
ATOM      2  C   UNL A   1     -27.064  -0.119  28.608  0.00  0.00    +0.146 A 
ATOM      3  C   UNL A   1     -26.972   0.714  27.506  0.00  0.00    +0.034 A 
ATOM      4  C   UNL A   1     -28.105   0.774  26.642  0.00  0.00    +0.007 A 
ATOM      5  C   UNL A   1     -29.201   0.104  27.053  0.00  0.00    +0.054 A 
ATOM      6  C   UNL A   1     -28.022  -1.590  30.088  0.00  0.00    +0.348 C 
ATOM      7  C   UNL A   1     -29.164  -0.639  28.148  0.00  0.00    +0.014 A 
ATOM      8  O   UNL A   1     -27.115  -2.378  30.350  0.00  0.00    -0.421 OA
ATOM      9  O   UNL A   1     -29.070  -1.630  30.860  0.00  0.00    -0.244 OA
ATOM     10  C   UNL A   1     -25.812  -1.946  30.267  0.00  0.00    +0.170 C 
ATOM     11  C   UNL A   1     -24.802  -2.840  30.906  0.00  0.00    +0.037 C 
ATOM     12  C   UNL A   1     -23.400  -2.198  30.516  0.00  0.00    +0.002 C 
ATOM     13  C   UNL A   1     -23.682  -1.124  29.761  0.00  0.00    +0.025 C 
ATOM     14  C   UNL A   1     -25.129  -0.961  29.633  0.00  0.00    +0.244 C 
ATOM     15  O   UNL A   1     -25.759  -0.077  28.873  0.00  0.00    -0.467 OA
ENDROOT
BRANCH   3  16
ATOM     16  C   UNL A   1     -25.705   1.396  27.076  0.00  0.00    +0.003 A 
ATOM     17  C   UNL A   1     -25.544   2.276  26.291  0.00  0.00    +0.000 A 
ATOM     18  C   UNL A   1     -24.194   2.800  26.001  0.00  0.00    -0.000 A 
ATOM     19  C   UNL A   1     -23.105   2.205  26.577  0.00  0.00    +0.004 A 
ATOM     20  C   UNL A   1     -24.453   0.795  27.637  0.00  0.00    +0.004 A 
ATOM     21  C   UNL A   1     -23.277   1.237  27.475  0.00  0.00    +0.071 A 
BRANCH  21  22
ATOM     22  C   UNL A   1     -22.080   0.673  28.165  0.00  0.00    +0.419 C 
ATOM     23  F   UNL A   1     -21.966   0.935  29.295  0.00  0.00    -0.166 F 
ATOM     24  F   UNL A   1     -20.939   1.187  27.524  0.00  0.00    -0.166 F 
ATOM     25  F   UNL A   1     -22.034  -0.621  28.028  0.00  0.00    -0.166 F 
ENDBRANCH  21  22
ENDBRANCH   3  16
BRANCH   5  26
ATOM     26  C   UNL A   1     -30.488   0.143  26.331  0.00  0.00    +0.249 C 
ATOM     27  N   UNL A   1     -30.880   1.182  25.848  0.00  0.00    -0.273 N 
ATOM     28  O   UNL A   1     -31.191  -0.878  26.187  0.00  0.00    -0.270 OA
ATOM     29  C   UNL A   1     -30.282   2.549  26.039  0.00  0.00    +0.115 C 
ATOM     30  C   UNL A   1     -32.157   1.251  25.038  0.00  0.00    +0.115 C 
ENDBRANCH   5  26
TORSDOF 3
