MODEL 3552
MODEL 1
REMARK VINA RESULT:    -8.063      0.000      0.000
REMARK INTER + INTRA:         -10.062
REMARK INTER:                  -9.477
REMARK INTRA:                  -0.585
REMARK UNBOUND:                -0.585
REMARK  Name = No_3552-gen_results/8p0m/2024-11-27-11-27-31/
REMARK  3 active torsions:
REMARK  status: ('A' for Active; 'I' for Inactive)
REMARK    1  A    between atoms: C_3  and  C_15
REMARK    2  A    between atoms: C_5  and  C_10
REMARK    3  A    between atoms: C_20  and  C_21
REMARK                            x       y       z     vdW  Elec       q    Type
REMARK                         _______ _______ _______ _____ _____    ______ ____
ROOT
ATOM      1  C   UNL A   1      -9.409   1.219  34.754  0.00  0.00    +0.110 A 
ATOM      2  C   UNL A   1      -9.676   1.291  35.932  0.00  0.00    +0.146 A 
ATOM      3  C   UNL A   1      -9.075   0.546  36.932  0.00  0.00    +0.034 A 
ATOM      4  C   UNL A   1      -8.040  -0.352  36.539  0.00  0.00    +0.007 A 
ATOM      5  C   UNL A   1      -7.667  -0.298  35.245  0.00  0.00    +0.054 A 
ATOM      6  C   UNL A   1     -10.057   2.092  33.814  0.00  0.00    +0.348 C 
ATOM      7  C   UNL A   1      -8.310   0.483  34.391  0.00  0.00    +0.014 A 
ATOM      8  O   UNL A   1     -11.282   2.161  33.740  0.00  0.00    -0.421 OA
ATOM      9  O   UNL A   1      -9.381   2.701  32.882  0.00  0.00    -0.244 OA
ATOM     10  C   UNL A   1     -12.010   2.353  34.891  0.00  0.00    +0.170 C 
ATOM     11  C   UNL A   1     -13.434   2.750  34.686  0.00  0.00    +0.037 C 
ATOM     12  C   UNL A   1     -14.065   2.735  36.146  0.00  0.00    +0.002 C 
ATOM     13  C   UNL A   1     -13.075   2.360  36.973  0.00  0.00    +0.025 C 
ATOM     14  C   UNL A   1     -11.838   2.155  36.221  0.00  0.00    +0.244 C 
ATOM     15  O   UNL A   1     -10.696   1.679  36.696  0.00  0.00    -0.467 OA
ENDROOT
BRANCH   3  16
ATOM     16  C   UNL A   1      -9.571   0.494  38.349  0.00  0.00    +0.003 A 
ATOM     17  C   UNL A   1      -9.324   1.209  39.268  0.00  0.00    +0.000 A 
ATOM     18  C   UNL A   1      -9.916   0.970  40.599  0.00  0.00    -0.000 A 
ATOM     19  C   UNL A   1     -10.691  -0.140  40.800  0.00  0.00    +0.004 A 
ATOM     20  C   UNL A   1     -10.409  -0.705  38.672  0.00  0.00    +0.004 A 
ATOM     21  C   UNL A   1     -10.993  -0.931  39.773  0.00  0.00    +0.071 A 
BRANCH  21  22
ATOM     22  C   UNL A   1     -11.922  -2.077  39.995  0.00  0.00    +0.419 C 
ATOM     23  F   UNL A   1     -12.214  -2.694  39.050  0.00  0.00    -0.166 F 
ATOM     24  F   UNL A   1     -13.121  -1.558  40.513  0.00  0.00    -0.166 F 
ATOM     25  F   UNL A   1     -11.447  -2.889  40.896  0.00  0.00    -0.166 F 
ENDBRANCH  21  22
ENDBRANCH   3  16
BRANCH   5  26
ATOM     26  C   UNL A   1      -6.546  -1.085  34.695  0.00  0.00    +0.249 C 
ATOM     27  N   UNL A   1      -5.404  -0.769  34.944  0.00  0.00    -0.273 N 
ATOM     28  O   UNL A   1      -6.738  -2.091  33.981  0.00  0.00    -0.270 OA
ATOM     29  C   UNL A   1      -4.945   0.485  35.637  0.00  0.00    +0.115 C 
ATOM     30  C   UNL A   1      -4.227  -1.590  34.461  0.00  0.00    +0.115 C 
ENDBRANCH   5  26
TORSDOF 3
ENDMDL
ENDMDL
