MODEL 3553
MODEL 1
REMARK VINA RESULT:    -3.516      0.000      0.000
REMARK INTER + INTRA:          -3.792
REMARK INTER:                  -3.722
REMARK INTRA:                  -0.070
REMARK UNBOUND:                -0.070
REMARK  Name = No_3553-gen_results/8p0m/2024-11-27-11-27-31/
REMARK  1 active torsions:
REMARK  status: ('A' for Active; 'I' for Inactive)
REMARK    1  A    between atoms: C_3  and  C_4
REMARK                            x       y       z     vdW  Elec       q    Type
REMARK                         _______ _______ _______ _____ _____    ______ ____
ROOT
ATOM      1 CL   UNL A   1      -9.168 -10.484  17.416  0.00  0.00    -0.081 Cl
ATOM      2  C   UNL A   1      -9.869  -9.756  18.445  0.00  0.00    +0.068 C 
ATOM      3  C   UNL A   1      -9.503  -9.371  19.489  0.00  0.00    +0.012 C 
ENDROOT
BRANCH   3   4
ATOM      4  C   UNL A   1      -8.044  -9.565  19.898  0.00  0.00    +0.001 C 
ATOM      5  C   UNL A   1      -7.298  -8.348  19.740  0.00  0.00    +0.000 C 
ENDBRANCH   3   4
TORSDOF 1
ENDMDL
ENDMDL
