REMARK  Name = No_3554-gen_results/8p0m/2024-11-27-11-27-31/
REMARK  7 active torsions:
REMARK  status: ('A' for Active; 'I' for Inactive)
REMARK    1  A    between atoms: C_3  and  C_7
REMARK    2  A    between atoms: C_6  and  C_10
REMARK    3  A    between atoms: N_11  and  C_12
REMARK    4  A    between atoms: C_12  and  C_13
REMARK    5  A    between atoms: C_13  and  C_14
REMARK    6  A    between atoms: C_17  and  C_21
REMARK    7  A    between atoms: C_17  and  C_24
REMARK                            x       y       z     vdW  Elec       q    Type
REMARK                         _______ _______ _______ _____ _____    ______ ____
ROOT
ATOM      1  C   UNL A   1     -31.501  -5.393  31.906  0.00  0.00    +0.005 C 
ATOM      2  C   UNL A   1     -31.597  -4.271  32.619  0.00  0.00    +0.015 C 
ATOM      3  C   UNL A   1     -32.146  -6.608  32.733  0.00  0.00    +0.033 C 
ATOM      4  C   UNL A   1     -32.961  -3.863  33.012  0.00  0.00    +0.115 C 
ATOM      5  C   UNL A   1     -33.615  -4.854  33.853  0.00  0.00    +0.048 C 
ATOM      6  C   UNL A   1     -33.617  -6.163  33.203  0.00  0.00    +0.153 C 
ATOM      7  O   UNL A   1     -34.483  -6.356  32.302  0.00  0.00    -0.223 OA
ENDROOT
BRANCH   4   8
ATOM      8  C   UNL A   1     -33.681  -3.707  31.668  0.00  0.00    -0.013 A 
ATOM      9  C   UNL A   1     -33.727  -2.701  31.021  0.00  0.00    -0.004 A 
ATOM     10  C   UNL A   1     -34.386  -2.568  29.653  0.00  0.00    -0.000 A 
ATOM     11  C   UNL A   1     -35.114  -3.650  29.355  0.00  0.00    -0.000 A 
ATOM     12  C   UNL A   1     -35.110  -4.810  30.135  0.00  0.00    -0.000 A 
ATOM     13  C   UNL A   1     -34.425  -4.822  31.230  0.00  0.00    -0.004 A 
ENDBRANCH   4   8
BRANCH   4  14
ATOM     14  C   UNL A   1     -32.896  -2.468  33.736  0.00  0.00    +0.368 C 
ATOM     15  O   UNL A   1     -32.921  -1.524  32.951  0.00  0.00    -0.245 OA
ATOM     16  O   UNL A   1     -32.873  -2.370  34.976  0.00  0.00    -0.245 OA
ENDBRANCH   4  14
BRANCH   1  17
ATOM     17  C   UNL A   1     -30.259  -5.704  31.500  0.00  0.00    +0.024 C 
BRANCH  17  18
ATOM     18  C   UNL A   1     -29.844  -5.019  30.346  0.00  0.00    +0.116 C 
BRANCH  18  20
ATOM     19  C   UNL A   1     -29.010  -2.811  30.189  0.00  0.00    +0.265 C 
ATOM     20  N   UNL A   1     -28.850  -4.094  30.510  0.00  0.00    -0.202 NA
ATOM     21  O   UNL A   1     -30.131  -2.293  30.254  0.00  0.00    -0.268 OA
BRANCH  19  27
ATOM     22  C   UNL A   1     -28.016  -0.814  28.878  0.00  0.00    +0.005 A 
ATOM     23  C   UNL A   1     -27.064  -0.119  28.608  0.00  0.00    +0.007 A 
ATOM     24  C   UNL A   1     -25.765  -0.390  29.036  0.00  0.00    +0.080 A 
ATOM     25  C   UNL A   1     -25.530  -1.530  29.901  0.00  0.00    +0.007 A 
ATOM     26  C   UNL A   1     -26.658  -2.292  30.203  0.00  0.00    +0.005 A 
ATOM     27  C   UNL A   1     -27.855  -1.956  29.763  0.00  0.00    +0.055 A 
BRANCH  24  28
ATOM     28  C   UNL A   1     -24.535   0.413  28.743  0.00  0.00    +0.388 C 
ATOM     29  O   UNL A   1     -24.491   1.161  27.850  0.00  0.00    -0.241 OA
ATOM     30  O   UNL A   1     -23.600   0.479  29.712  0.00  0.00    -0.241 OA
ENDBRANCH  24  28
ENDBRANCH  19  27
ENDBRANCH  18  20
ENDBRANCH  17  18
ENDBRANCH   1  17
TORSDOF 7
