MODEL 3555
MODEL 1
REMARK VINA RESULT:    -6.993      0.000      0.000
REMARK INTER + INTRA:          -8.172
REMARK INTER:                  -7.810
REMARK INTRA:                  -0.362
REMARK UNBOUND:                -0.362
REMARK  Name = No_3555-gen_results/8p0m/2024-11-27-11-27-31/
REMARK  2 active torsions:
REMARK  status: ('A' for Active; 'I' for Inactive)
REMARK    1  A    between atoms: C_2  and  C_12
REMARK    2  A    between atoms: C_4  and  C_7
REMARK                            x       y       z     vdW  Elec       q    Type
REMARK                         _______ _______ _______ _____ _____    ______ ____
ROOT
ATOM      1  C   UNL A   1     -24.176   0.286  27.565  0.00  0.00    +0.007 A 
ATOM      2  C   UNL A   1     -23.222   0.521  27.945  0.00  0.00    +0.080 A 
ATOM      3  C   UNL A   1     -24.708  -1.079  27.943  0.00  0.00    -0.000 A 
ATOM      4  C   UNL A   1     -23.990  -1.869  28.865  0.00  0.00    -0.004 A 
ATOM      5  C   UNL A   1     -22.301  -0.091  28.929  0.00  0.00    +0.007 A 
ATOM      6  C   UNL A   1     -22.760  -1.346  29.305  0.00  0.00    -0.000 A 
ENDROOT
BRANCH   4   7
ATOM      7  C   UNL A   1     -24.433  -3.168  29.243  0.00  0.00    -0.026 C 
ATOM      8  C   UNL A   1     -25.647  -3.471  29.445  0.00  0.00    -0.030 C 
ATOM      9  C   UNL A   1     -26.103  -4.848  29.701  0.00  0.00    +0.026 C 
ATOM     10  C   UNL A   1     -23.963  -4.388  28.559  0.00  0.00    +0.026 C 
ATOM     11  C   UNL A   1     -25.045  -5.473  29.049  0.00  0.00    +0.009 C 
ENDBRANCH   4   7
BRANCH   2  12
ATOM     12  C   UNL A   1     -22.623   1.963  27.499  0.00  0.00    +0.388 C 
ATOM     13  O   UNL A   1     -21.496   1.899  27.348  0.00  0.00    -0.241 OA
ATOM     14  O   UNL A   1     -23.336   3.011  27.390  0.00  0.00    -0.241 OA
ENDBRANCH   2  12
TORSDOF 2
ENDMDL
ENDMDL
