MODEL 3556
MODEL 1
REMARK VINA RESULT:    -5.249      0.000      0.000
REMARK INTER + INTRA:          -6.213
REMARK INTER:                  -5.863
REMARK INTRA:                  -0.350
REMARK UNBOUND:                -0.350
REMARK  Name = No_3556-gen_results/8p0m/2024-11-27-11-27-31/
REMARK  2 active torsions:
REMARK  status: ('A' for Active; 'I' for Inactive)
REMARK    1  A    between atoms: C_3  and  C_4
REMARK    2  A    between atoms: C_4  and  C_8
REMARK                            x       y       z     vdW  Elec       q    Type
REMARK                         _______ _______ _______ _____ _____    ______ ____
ROOT
ATOM      1  C   UNL A   1     -26.324  -4.270  29.722  0.00  0.00    -0.000 A 
ATOM      2  C   UNL A   1     -25.997  -3.106  29.724  0.00  0.00    -0.004 A 
ATOM      3  C   UNL A   1     -24.814  -2.690  29.124  0.00  0.00    -0.018 A 
ATOM      4  C   UNL A   1     -25.371  -5.298  29.299  0.00  0.00    -0.000 A 
ATOM      5  C   UNL A   1     -24.227  -4.980  28.610  0.00  0.00    -0.000 A 
ATOM      6  C   UNL A   1     -23.897  -3.626  28.513  0.00  0.00    -0.004 A 
ENDROOT
BRANCH   3   7
ATOM      7  C   UNL A   1     -24.421  -1.330  29.035  0.00  0.00    +0.052 C 
BRANCH   7   8
ATOM      8  C   UNL A   1     -23.123  -0.872  28.865  0.00  0.00    -0.026 C 
ATOM      9  C   UNL A   1     -22.310  -0.579  29.955  0.00  0.00    -0.030 C 
ATOM     10  C   UNL A   1     -22.924  -0.523  31.290  0.00  0.00    +0.030 C 
ENDBRANCH   7   8
ENDBRANCH   3   7
TORSDOF 2
ENDMDL
ENDMDL
