REMARK  Name = No_3557-gen_results/8p0m/2024-11-27-11-27-31/
REMARK  4 active torsions:
REMARK  status: ('A' for Active; 'I' for Inactive)
REMARK    1  A    between atoms: C_1  and  C_8
REMARK    2  A    between atoms: C_5  and  C_11
REMARK    3  A    between atoms: C_7  and  O_15
REMARK    4  A    between atoms: O_15  and  C_16
REMARK                            x       y       z     vdW  Elec       q    Type
REMARK                         _______ _______ _______ _____ _____    ______ ____
ROOT
ATOM      1  C   UNL A   1     -28.016  -0.814  28.878  0.00  0.00    +0.054 C 
ATOM      2  C   UNL A   1     -27.064  -0.119  28.608  0.00  0.00    -0.000 C 
ATOM      3  C   UNL A   1     -25.765  -0.390  29.036  0.00  0.00    +0.026 C 
ATOM      4  C   UNL A   1     -24.552   0.406  28.765  0.00  0.00    +0.014 C 
ATOM      5  C   UNL A   1     -24.696   1.448  27.799  0.00  0.00    +0.084 C 
ATOM      6  C   UNL A   1     -25.976   1.725  27.308  0.00  0.00    +0.057 C 
ATOM      7  C   UNL A   1     -27.072   1.013  27.654  0.00  0.00    +0.185 C 
ENDROOT
BRANCH   1   8
ATOM      8  C   UNL A   1     -28.604  -0.474  30.232  0.00  0.00    +0.265 C 
ATOM      9  O   UNL A   1     -28.300   0.220  30.951  0.00  0.00    -0.268 OA
ATOM     10  N   UNL A   1     -29.703  -1.456  30.555  0.00  0.00    -0.200 NA
ATOM     11  C   UNL A   1     -30.383  -1.325  31.859  0.00  0.00    +0.139 C 
ENDBRANCH   1   8
BRANCH   5  12
ATOM     12  C   UNL A   1     -23.503   2.238  27.508  0.00  0.00    +0.260 C 
ATOM     13  N   UNL A   1     -23.612   3.179  26.669  0.00  0.00    -0.088 NA
ATOM     14  O   UNL A   1     -22.338   1.919  27.906  0.00  0.00    -0.272 OA
ENDBRANCH   5  12
BRANCH   7  15
ATOM     15  O   UNL A   1     -28.275   1.260  27.141  0.00  0.00    -0.472 OA
BRANCH  15  16
ATOM     16  C   UNL A   1     -28.668   1.897  26.321  0.00  0.00    +0.173 C 
ATOM     17  C   UNL A   1     -28.779   3.146  26.435  0.00  0.00    +0.043 C 
ENDBRANCH  15  16
ENDBRANCH   7  15
TORSDOF 4
