MODEL 3558
MODEL 1
REMARK VINA RESULT:    -5.863      0.000      0.000
REMARK INTER + INTRA:          -9.965
REMARK INTER:                  -7.919
REMARK INTRA:                  -2.046
REMARK UNBOUND:                -2.046
REMARK  Name = No_3558-gen_results/8p0m/2024-11-27-11-27-31/
REMARK  6 active torsions:
REMARK  status: ('A' for Active; 'I' for Inactive)
REMARK    1  A    between atoms: C_9  and  C_12
REMARK    2  A    between atoms: C_12  and  N_13
REMARK    3  A    between atoms: N_13  and  C_14
REMARK    4  A    between atoms: C_14  and  C_15
REMARK    5  A    between atoms: C_16  and  C_17
REMARK    6  A    between atoms: C_18  and  C_19
REMARK                            x       y       z     vdW  Elec       q    Type
REMARK                         _______ _______ _______ _____ _____    ______ ____
ROOT
ATOM      1  C   UNL A   1     -24.889   0.334  32.706  0.00  0.00    +0.042 A 
ATOM      2  C   UNL A   1     -24.766   1.021  31.719  0.00  0.00    +0.003 A 
ATOM      3  C   UNL A   1     -23.790   0.742  30.767  0.00  0.00    -0.000 A 
ATOM      4  C   UNL A   1     -22.865  -0.346  30.951  0.00  0.00    +0.003 A 
ATOM      5  C   UNL A   1     -23.064  -1.074  32.132  0.00  0.00    +0.042 A 
ATOM      6  C   UNL A   1     -23.990  -0.759  33.008  0.00  0.00    +0.196 A 
ATOM      7  O   UNL A   1     -24.091  -1.495  34.149  0.00  0.00    -0.287 OA
ATOM      8  C   UNL A   1     -23.546   1.515  29.494  0.00  0.00    -0.003 A 
ATOM      9  C   UNL A   1     -22.698   1.198  28.579  0.00  0.00    -0.005 A 
ATOM     10  C   UNL A   1     -21.844   0.110  28.660  0.00  0.00    -0.003 A 
ATOM     11  C   UNL A   1     -21.927  -0.711  29.943  0.00  0.00    -0.000 A 
ENDROOT
BRANCH   9  12
ATOM     12  C   UNL A   1     -22.593   1.955  27.304  0.00  0.00    +0.115 C 
BRANCH  12  13
ATOM     13  N   UNL A   1     -23.303   2.657  26.838  0.00  0.00    -0.208 NA
BRANCH  13  14
ATOM     14  C   UNL A   1     -24.271   2.211  25.950  0.00  0.00    +0.115 C 
BRANCH  14  15
ATOM     15  C   UNL A   1     -24.404   0.797  25.820  0.00  0.00    -0.007 C 
ATOM     16  C   UNL A   1     -25.474   0.198  26.478  0.00  0.00    -0.003 C 
BRANCH  16  17
ATOM     17  C   UNL A   1     -25.756  -0.480  27.447  0.00  0.00    -0.000 C 
ATOM     18  C   UNL A   1     -25.000  -1.563  27.858  0.00  0.00    -0.000 C 
BRANCH  18  19
ATOM     19  C   UNL A   1     -25.254  -2.281  29.086  0.00  0.00    -0.000 C 
ATOM     20  C   UNL A   1     -24.633  -3.364  29.423  0.00  0.00    -0.000 C 
ENDBRANCH  18  19
ENDBRANCH  16  17
ENDBRANCH  14  15
ENDBRANCH  13  14
ENDBRANCH  12  13
ENDBRANCH   9  12
TORSDOF 6
ENDMDL
ENDMDL
