REMARK  Name = outputs/IAG933/test6/raw/output_3558_IAG933_linker_design_.xyz
REMARK  11 active torsions:
REMARK  status: ('A' for Active; 'I' for Inactive)
REMARK    1  A    between atoms: C_1  and  C_2
REMARK    2  A    between atoms: C_1  and  C_8
REMARK    3  A    between atoms: C_1  and  C_39
REMARK    4  A    between atoms: C_13  and  C_30
REMARK    5  A    between atoms: C_14  and  C_15
REMARK    6  A    between atoms: C_21  and  O_22
REMARK    7  A    between atoms: O_22  and  C_23
REMARK    8  A    between atoms: C_23  and  C_24
REMARK    9  A    between atoms: C_29  and  N_43
REMARK   10  A    between atoms: C_33  and  C_34
REMARK   11  A    between atoms: C_41  and  N_43
REMARK                            x       y       z     vdW  Elec       q    Type
REMARK                         _______ _______ _______ _____ _____    ______ ____
ROOT
ATOM      1  C   UNL A   1     -24.620   1.393  27.489  0.00  0.00    +0.047 A 
ATOM      2  F   UNL A   1     -22.711   1.943  26.160  0.00  0.00    -0.203 F 
ATOM      3  C   UNL A   1     -22.468   0.642  28.085  0.00  0.00    +0.150 A 
ATOM      4  N   UNL A   1     -22.995  -0.083  29.109  0.00  0.00    -0.245 NA
ATOM      5  C   UNL A   1     -24.288   0.003  29.354  0.00  0.00    +0.079 A 
ATOM      6  C   UNL A   1     -24.982   1.085  28.759  0.00  0.00    +0.084 A 
ATOM      7  C   UNL A   1     -23.272   1.334  27.220  0.00  0.00    +0.160 A 
ENDROOT
BRANCH   1   8
ATOM      8  C   UNL A   1     -25.688   1.614  26.461  0.00  0.00    +0.042 C 
ATOM      9  C   UNL A   1     -26.250   2.920  26.395  0.00  0.00    +0.077 C 
ATOM     10  C   UNL A   1     -27.438   3.091  25.645  0.00  0.00    +0.107 C 
ATOM     11  N   UNL A   1     -28.075   2.089  25.003  0.00  0.00    -0.208 NA
ATOM     12  C   UNL A   1     -27.543   0.849  25.079  0.00  0.00    +0.253 C 
ATOM     13  C   UNL A   1     -26.354   0.576  25.777  0.00  0.00    +0.193 C 
ATOM     14  F   UNL A   1     -25.860  -0.681  25.795  0.00  0.00    -0.199 F 
BRANCH   9  15
ATOM     15  C   UNL A   1     -25.642   4.093  27.123  0.00  0.00    +0.266 C 
ATOM     16  N   UNL A   1     -25.614   5.252  26.449  0.00  0.00    -0.200 NA
ATOM     17  C   UNL A   1     -25.026   6.479  26.963  0.00  0.00    +0.139 C 
ATOM     18  O   UNL A   1     -25.143   3.966  28.243  0.00  0.00    -0.268 OA
ENDBRANCH   9  15
BRANCH  12  19
ATOM     19  O   UNL A   1     -28.193  -0.208  24.477  0.00  0.00    -0.456 OA
BRANCH  19  20
ATOM     20  C   UNL A   1     -29.460   0.005  23.866  0.00  0.00    +0.243 C 
BRANCH  20  21
ATOM     21  C   UNL A   1     -30.065  -1.377  23.573  0.00  0.00    +0.229 C 
ATOM     22  O   UNL A   1     -30.729  -1.878  24.721  0.00  0.00    -0.216 OA
ENDBRANCH  20  21
ENDBRANCH  19  20
ENDBRANCH  12  19
ENDBRANCH   1   8
BRANCH   3  23
ATOM     23  C   UNL A   1     -21.160   0.734  28.102  0.00  0.00    +0.351 C 
ATOM     24  F   UNL A   1     -20.560   1.708  27.456  0.00  0.00    -0.194 F 
ATOM     25  O   UNL A   1     -20.368  -0.139  28.816  0.00  0.00    -0.177 OA
ENDBRANCH   3  23
BRANCH   5  26
ATOM     26  C   UNL A   1     -24.855  -1.012  30.143  0.00  0.00    +0.080 C 
BRANCH  26  27
ATOM     27  C   UNL A   1     -24.973  -2.505  29.788  0.00  0.00    -0.015 C 
ATOM     28  C   UNL A   1     -23.906  -3.173  29.146  0.00  0.00    -0.004 C 
ATOM     29  C   UNL A   1     -23.989  -4.549  28.853  0.00  0.00    -0.000 C 
ATOM     30  C   UNL A   1     -25.137  -5.280  29.205  0.00  0.00    -0.000 C 
ATOM     31  C   UNL A   1     -26.232  -4.611  29.784  0.00  0.00    -0.000 C 
ATOM     32  C   UNL A   1     -26.155  -3.232  30.065  0.00  0.00    -0.004 C 
ENDBRANCH  26  27
BRANCH  26  33
ATOM     33  C   UNL A   1     -25.387  -0.679  31.571  0.00  0.00    +0.082 C 
ATOM     34  C   UNL A   1     -25.189   0.773  32.028  0.00  0.00    +0.020 C 
ATOM     35  C   UNL A   1     -25.336   0.684  33.544  0.00  0.00    +0.020 C 
ATOM     36  C   UNL A   1     -24.829  -0.715  33.905  0.00  0.00    +0.089 C 
ATOM     37  N   UNL A   1     -24.758  -1.481  32.646  0.00  0.00    -0.219 NA
ENDBRANCH  26  33
ENDBRANCH   5  26
BRANCH   6  38
ATOM     38  N   UNL A   1     -26.090   1.947  29.541  0.00  0.00    -0.209 NA
BRANCH  38  40
ATOM     39  O   UNL A   1     -25.101   3.252  31.398  0.00  0.00    -0.336 OA
ATOM     40  C   UNL A   1     -25.933   3.264  30.388  0.00  0.00    +0.208 C 
ATOM     41  C   UNL A   1     -25.559   5.504  32.020  0.00  0.00    +0.032 C 
ATOM     42  C   UNL A   1     -25.511   4.066  32.527  0.00  0.00    +0.144 C 
ATOM     43  C   UNL A   1     -27.132   4.203  30.231  0.00  0.00    +0.052 C 
ATOM     44  C   UNL A   1     -26.443   5.504  30.717  0.00  0.00    +0.007 C 
ENDBRANCH  38  40
ENDBRANCH   6  38
TORSDOF 11
