MODEL 3559
MODEL 1
REMARK VINA RESULT:    -6.976      0.000      0.000
REMARK INTER + INTRA:         -11.371
REMARK INTER:                 -10.239
REMARK INTRA:                  -1.132
REMARK UNBOUND:                -1.132
REMARK  Name = No_3559-gen_results/8p0m/2024-11-27-11-27-31/
REMARK  8 active torsions:
REMARK  status: ('A' for Active; 'I' for Inactive)
REMARK    1  A    between atoms: C_2  and  C_3
REMARK    2  A    between atoms: N_4  and  C_10
REMARK    3  A    between atoms: C_10  and  C_12
REMARK    4  A    between atoms: C_12  and  O_13
REMARK    5  A    between atoms: O_13  and  C_14
REMARK    6  A    between atoms: C_14  and  C_15
REMARK    7  A    between atoms: C_14  and  C_21
REMARK    8  A    between atoms: C_21  and  C_22
REMARK                            x       y       z     vdW  Elec       q    Type
REMARK                         _______ _______ _______ _____ _____    ______ ____
ROOT
ATOM      1  O   UNL A   1     -24.081  -0.761  28.233  0.00  0.00    -0.349 OA
ENDROOT
BRANCH   1   2
ATOM      2  C   UNL A   1     -24.705   0.360  27.853  0.00  0.00    +0.166 C 
BRANCH   2   3
ATOM      3  C   UNL A   1     -24.445   0.743  26.481  0.00  0.00    +0.147 C 
BRANCH   3   6
ATOM      4  O   UNL A   1     -25.651  -0.962  24.776  0.00  0.00    -0.268 OA
ATOM      5  C   UNL A   1     -26.350   0.058  24.792  0.00  0.00    +0.265 C 
ATOM      6  N   UNL A   1     -25.707   1.080  25.751  0.00  0.00    -0.199 NA
BRANCH   5   7
ATOM      7  C   UNL A   1     -27.216   0.448  24.371  0.00  0.00    +0.055 A 
ATOM      8  C   UNL A   1     -28.507  -0.104  23.836  0.00  0.00    +0.004 A 
ATOM      9  C   UNL A   1     -29.691   0.489  23.377  0.00  0.00    -0.004 A 
ATOM     10  C   UNL A   1     -29.709   1.924  23.497  0.00  0.00    -0.022 A 
ATOM     11  C   UNL A   1     -28.629   2.576  24.004  0.00  0.00    -0.004 A 
ATOM     12  C   UNL A   1     -27.550   1.969  24.439  0.00  0.00    +0.004 A 
ATOM     13  C   UNL A   1     -30.962   2.574  23.017  0.00  0.00    +0.031 C 
ENDBRANCH   5   7
ENDBRANCH   3   6
ENDBRANCH   2   3
ENDBRANCH   1   2
BRANCH   1  14
ATOM     14  C   UNL A   1     -24.486  -1.192  29.518  0.00  0.00    +0.145 C 
BRANCH  14  15
ATOM     15  C   UNL A   1     -24.655  -2.619  29.486  0.00  0.00    +0.044 A 
ATOM     16  C   UNL A   1     -25.711  -3.007  29.910  0.00  0.00    +0.194 A 
ATOM     17  C   UNL A   1     -26.229  -4.233  29.807  0.00  0.00    +0.042 A 
ATOM     18  C   UNL A   1     -25.383  -5.223  29.114  0.00  0.00    +0.003 A 
ATOM     19  C   UNL A   1     -24.188  -4.803  28.538  0.00  0.00    -0.000 A 
ATOM     20  C   UNL A   1     -23.826  -3.457  28.695  0.00  0.00    +0.001 A 
ATOM     21  O   UNL A   1     -26.754  -2.178  29.312  0.00  0.00    -0.287 OA
ENDBRANCH  14  15
BRANCH  14  22
ATOM     22  C   UNL A   1     -23.309  -0.862  30.507  0.00  0.00    +0.060 C 
BRANCH  22  23
ATOM     23  C   UNL A   1     -23.699  -0.056  31.590  0.00  0.00    -0.028 C 
ATOM     24  C   UNL A   1     -24.641  -0.142  32.072  0.00  0.00    -0.030 C 
ATOM     25  C   UNL A   1     -25.489   0.631  32.981  0.00  0.00    +0.030 C 
ENDBRANCH  22  23
ENDBRANCH  14  22
ENDBRANCH   1  14
TORSDOF 8
ENDMDL
ENDMDL
