REMARK  Name = outputs/IAG933/test6/raw/output_3559_IAG933_linker_design_.xyz
REMARK  9 active torsions:
REMARK  status: ('A' for Active; 'I' for Inactive)
REMARK    1  A    between atoms: C_1  and  C_2
REMARK    2  A    between atoms: C_1  and  C_8
REMARK    3  A    between atoms: C_1  and  O_37
REMARK    4  A    between atoms: C_13  and  C_41
REMARK    5  A    between atoms: C_14  and  C_15
REMARK    6  A    between atoms: C_21  and  O_22
REMARK    7  A    between atoms: O_22  and  C_23
REMARK    8  A    between atoms: C_23  and  C_24
REMARK    9  A    between atoms: O_37  and  C_38
REMARK                            x       y       z     vdW  Elec       q    Type
REMARK                         _______ _______ _______ _____ _____    ______ ____
ROOT
ATOM      1  C   UNL A   1     -21.417   0.990  27.493  0.00  0.00    +0.264 C 
ATOM      2  F   UNL A   1     -21.298   1.893  25.354  0.00  0.00    -0.226 F 
ATOM      3  C   UNL A   1     -21.836   0.238  28.639  0.00  0.00    +0.242 C 
ATOM      4  C   UNL A   1     -22.052   1.575  26.453  0.00  0.00    +0.258 C 
ATOM      5  C   UNL A   1     -23.909   2.386  29.582  0.00  0.00    -0.106 C 
ATOM      6  O   UNL A   1     -23.601   3.276  25.648  0.00  0.00    -0.292 OA
ATOM      7  C   UNL A   1     -23.376   2.211  26.299  0.00  0.00    +0.195 C 
ATOM      8  C   UNL A   1     -23.779   3.118  31.030  0.00  0.00    +0.015 C 
ATOM      9  C   UNL A   1     -24.904   4.101  31.440  0.00  0.00    +0.040 C 
ATOM     10  C   UNL A   1     -23.246   0.356  29.000  0.00  0.00    +0.180 C 
ATOM     11  O   UNL A   1     -20.960  -0.472  29.255  0.00  0.00    -0.285 OA
ATOM     12  F   UNL A   1     -20.165   1.226  27.642  0.00  0.00    -0.225 F 
ATOM     13  C   UNL A   1     -24.371   1.567  27.078  0.00  0.00    +0.118 C 
ATOM     14  C   UNL A   1     -23.954   1.247  28.411  0.00  0.00    +0.060 C 
ENDROOT
BRANCH  13  15
ATOM     15  C   UNL A   1     -25.688   1.614  26.461  0.00  0.00    +0.027 C 
ATOM     16  C   UNL A   1     -26.250   2.920  26.395  0.00  0.00    +0.073 C 
ATOM     17  C   UNL A   1     -27.438   3.091  25.645  0.00  0.00    +0.106 C 
ATOM     18  N   UNL A   1     -28.075   2.089  25.003  0.00  0.00    -0.208 NA
ATOM     19  C   UNL A   1     -27.543   0.849  25.079  0.00  0.00    +0.253 C 
ATOM     20  C   UNL A   1     -26.354   0.576  25.777  0.00  0.00    +0.190 C 
ATOM     21  F   UNL A   1     -25.860  -0.681  25.795  0.00  0.00    -0.200 F 
BRANCH  16  22
ATOM     22  C   UNL A   1     -25.642   4.093  27.123  0.00  0.00    +0.266 C 
ATOM     23  N   UNL A   1     -25.614   5.252  26.449  0.00  0.00    -0.200 NA
ATOM     24  C   UNL A   1     -25.026   6.479  26.963  0.00  0.00    +0.139 C 
ATOM     25  O   UNL A   1     -25.143   3.966  28.243  0.00  0.00    -0.268 OA
ENDBRANCH  16  22
BRANCH  19  26
ATOM     26  O   UNL A   1     -28.193  -0.208  24.477  0.00  0.00    -0.456 OA
BRANCH  26  27
ATOM     27  C   UNL A   1     -29.460   0.005  23.866  0.00  0.00    +0.243 C 
BRANCH  27  28
ATOM     28  C   UNL A   1     -30.065  -1.377  23.573  0.00  0.00    +0.229 C 
ATOM     29  O   UNL A   1     -30.729  -1.878  24.721  0.00  0.00    -0.216 OA
ENDBRANCH  27  28
ENDBRANCH  26  27
ENDBRANCH  19  26
ENDBRANCH  13  15
BRANCH  10  30
ATOM     30  O   UNL A   1     -23.590  -0.445  30.069  0.00  0.00    -0.470 OA
BRANCH  30  31
ATOM     31  C   UNL A   1     -24.855  -1.012  30.143  0.00  0.00    +0.204 C 
BRANCH  31  32
ATOM     32  C   UNL A   1     -24.973  -2.505  29.788  0.00  0.00    +0.019 C 
ATOM     33  C   UNL A   1     -23.906  -3.173  29.146  0.00  0.00    -0.001 C 
ATOM     34  C   UNL A   1     -23.989  -4.549  28.853  0.00  0.00    -0.000 C 
ATOM     35  C   UNL A   1     -25.137  -5.280  29.205  0.00  0.00    -0.000 C 
ATOM     36  C   UNL A   1     -26.232  -4.611  29.784  0.00  0.00    -0.000 C 
ATOM     37  C   UNL A   1     -26.155  -3.232  30.065  0.00  0.00    -0.001 C 
ENDBRANCH  31  32
BRANCH  31  38
ATOM     38  C   UNL A   1     -25.387  -0.679  31.571  0.00  0.00    +0.117 C 
ATOM     39  C   UNL A   1     -25.189   0.773  32.028  0.00  0.00    +0.023 C 
ATOM     40  C   UNL A   1     -25.336   0.684  33.544  0.00  0.00    +0.020 C 
ATOM     41  C   UNL A   1     -24.829  -0.715  33.905  0.00  0.00    +0.089 C 
ATOM     42  N   UNL A   1     -24.758  -1.481  32.646  0.00  0.00    -0.215 NA
ENDBRANCH  31  38
ENDBRANCH  30  31
ENDBRANCH  10  30
TORSDOF 9
