MODEL 355
MODEL 1
REMARK VINA RESULT:    -6.803      0.000      0.000
REMARK INTER + INTRA:          -7.543
REMARK INTER:                  -7.201
REMARK INTRA:                  -0.342
REMARK UNBOUND:                -0.342
REMARK  Name = No_355-gen_results/8p0m/2024-11-27-11-27-31/
REMARK  1 active torsions:
REMARK  status: ('A' for Active; 'I' for Inactive)
REMARK    1  A    between atoms: C_1  and  C_3
REMARK                            x       y       z     vdW  Elec       q    Type
REMARK                         _______ _______ _______ _____ _____    ______ ____
ROOT
ATOM      1  C   UNL A   1     -23.863  -1.627  28.905  0.00  0.00    +0.000 A 
ATOM      2  C   UNL A   1     -22.530  -1.297  29.386  0.00  0.00    +0.001 A 
ATOM      3  C   UNL A   1     -21.933  -0.112  28.815  0.00  0.00    +0.011 A 
ATOM      4  C   UNL A   1     -22.637   0.717  27.927  0.00  0.00    +0.058 A 
ATOM      5  C   UNL A   1     -24.232  -0.528  27.972  0.00  0.00    +0.001 A 
ATOM      6  C   UNL A   1     -23.795   0.460  27.465  0.00  0.00    +0.011 A 
ATOM      7 CL   UNL A   1     -21.621   2.083  27.372  0.00  0.00    -0.082 Cl
ENDROOT
BRANCH   1   8
ATOM      8  C   UNL A   1     -24.663  -2.814  29.245  0.00  0.00    +0.000 A 
ATOM      9  C   UNL A   1     -25.676  -2.647  29.486  0.00  0.00    +0.000 A 
ATOM     10  C   UNL A   1     -26.602  -3.806  29.865  0.00  0.00    +0.000 A 
ATOM     11  C   UNL A   1     -26.035  -5.017  29.609  0.00  0.00    +0.000 A 
ATOM     12  C   UNL A   1     -24.807  -5.105  29.039  0.00  0.00    +0.000 A 
ATOM     13  C   UNL A   1     -24.119  -4.006  28.718  0.00  0.00    +0.000 A 
ENDBRANCH   1   8
TORSDOF 1
ENDMDL
ENDMDL
