MODEL 3560
MODEL 1
REMARK VINA RESULT:    -6.572      0.000      0.000
REMARK INTER + INTRA:          -8.645
REMARK INTER:                  -8.493
REMARK INTRA:                  -0.152
REMARK UNBOUND:                -0.152
REMARK  Name = No_3560-gen_results/8p0m/2024-11-27-11-27-31/
REMARK  5 active torsions:
REMARK  status: ('A' for Active; 'I' for Inactive)
REMARK    1  A    between atoms: C_2  and  C_8
REMARK    2  A    between atoms: N_9  and  C_11
REMARK    3  A    between atoms: N_9  and  C_17
REMARK    4  A    between atoms: C_18  and  C_19
REMARK    5  A    between atoms: C_19  and  C_20
REMARK                            x       y       z     vdW  Elec       q    Type
REMARK                         _______ _______ _______ _____ _____    ______ ____
ROOT
ATOM      1  C   UNL A   1     -25.363   0.303  29.847  0.00  0.00    +0.257 C 
ATOM      2  N   UNL A   1     -25.893  -0.440  29.257  0.00  0.00    -0.233 N 
ATOM      3  O   UNL A   1     -25.293   1.584  29.634  0.00  0.00    -0.269 OA
ENDROOT
BRANCH   1   5
ATOM      4  C   UNL A   1     -25.272  -0.260  32.101  0.00  0.00    +0.016 A 
ATOM      5  C   UNL A   1     -24.724  -0.269  31.201  0.00  0.00    +0.055 A 
ATOM      6  C   UNL A   1     -24.626  -0.719  33.270  0.00  0.00    +0.058 A 
ATOM      7  C   UNL A   1     -23.324  -1.180  33.252  0.00  0.00    +0.011 A 
ATOM      8  C   UNL A   1     -23.343  -0.701  30.912  0.00  0.00    +0.005 A 
ATOM      9  C   UNL A   1     -22.688  -1.149  32.005  0.00  0.00    +0.001 A 
ATOM     10 CL   UNL A   1     -25.399  -0.710  34.815  0.00  0.00    -0.082 Cl
ENDBRANCH   1   5
BRANCH   2  11
ATOM     11  C   UNL A   1     -25.926  -1.808  29.339  0.00  0.00    +0.058 A 
ATOM     12  C   UNL A   1     -26.854  -2.380  29.882  0.00  0.00    +0.015 A 
ATOM     13  C   UNL A   1     -26.921  -3.858  30.019  0.00  0.00    +0.001 A 
ATOM     14  C   UNL A   1     -25.828  -4.575  29.554  0.00  0.00    +0.000 A 
ATOM     15  C   UNL A   1     -24.773  -2.588  28.827  0.00  0.00    +0.015 A 
ATOM     16  C   UNL A   1     -24.784  -3.939  28.901  0.00  0.00    +0.001 A 
ENDBRANCH   2  11
BRANCH   2  17
ATOM     17  C   UNL A   1     -26.766  -0.010  28.076  0.00  0.00    +0.068 C 
ATOM     18  C   UNL A   1     -26.606   0.092  26.966  0.00  0.00    -0.005 C 
BRANCH  18  19
ATOM     19  C   UNL A   1     -25.299  -0.215  26.358  0.00  0.00    +0.053 C 
BRANCH  19  20
ATOM     20  C   UNL A   1     -24.532   0.897  25.715  0.00  0.00    -0.026 C 
ATOM     21  C   UNL A   1     -23.765   1.443  26.146  0.00  0.00    -0.030 C 
ATOM     22  C   UNL A   1     -23.002   2.548  25.438  0.00  0.00    +0.030 C 
ENDBRANCH  19  20
ENDBRANCH  18  19
ENDBRANCH   2  17
TORSDOF 5
ENDMDL
ENDMDL
