MODEL 3561
MODEL 1
REMARK VINA RESULT:    -6.056      0.000      0.000
REMARK INTER + INTRA:          -6.591
REMARK INTER:                  -6.410
REMARK INTRA:                  -0.181
REMARK UNBOUND:                -0.181
REMARK  Name = No_3561-gen_results/8p0m/2024-11-27-11-27-31/
REMARK  1 active torsions:
REMARK  status: ('A' for Active; 'I' for Inactive)
REMARK    1  A    between atoms: C_4  and  C_11
REMARK                            x       y       z     vdW  Elec       q    Type
REMARK                         _______ _______ _______ _____ _____    ______ ____
ROOT
ATOM      1  C   UNL A   1     -25.457  -1.287  28.319  0.00  0.00    -0.000 A 
ATOM      2  C   UNL A   1     -24.970  -0.361  27.712  0.00  0.00    -0.000 A 
ATOM      3  C   UNL A   1     -23.636  -0.012  27.885  0.00  0.00    +0.004 A 
ATOM      4  C   UNL A   1     -22.924   1.110  27.208  0.00  0.00    +0.071 A 
ATOM      5  C   UNL A   1     -21.547   1.468  27.414  0.00  0.00    +0.004 A 
ATOM      6  C   UNL A   1     -24.699  -1.946  29.394  0.00  0.00    -0.000 A 
ATOM      7  C   UNL A   1     -23.358  -1.710  29.578  0.00  0.00    -0.000 A 
ATOM      8  C   UNL A   1     -22.744  -0.675  28.853  0.00  0.00    -0.000 A 
ATOM      9  C   UNL A   1     -20.848   0.552  28.267  0.00  0.00    -0.000 A 
ATOM     10  C   UNL A   1     -21.390  -0.396  28.980  0.00  0.00    -0.000 A 
ENDROOT
BRANCH   4  11
ATOM     11  C   UNL A   1     -23.631   1.955  26.200  0.00  0.00    +0.419 C 
ATOM     12  F   UNL A   1     -24.219   1.291  25.450  0.00  0.00    -0.166 F 
ATOM     13  F   UNL A   1     -22.657   2.623  25.538  0.00  0.00    -0.166 F 
ATOM     14  F   UNL A   1     -24.383   2.828  26.904  0.00  0.00    -0.166 F 
ENDBRANCH   4  11
TORSDOF 1
ENDMDL
ENDMDL
