REMARK  Name = outputs/IAG933/test6/raw/output_3561_IAG933_linker_design_.xyz
REMARK  9 active torsions:
REMARK  status: ('A' for Active; 'I' for Inactive)
REMARK    1  A    between atoms: C_1  and  C_2
REMARK    2  A    between atoms: C_1  and  C_8
REMARK    3  A    between atoms: C_1  and  N_28
REMARK    4  A    between atoms: C_13  and  C_42
REMARK    5  A    between atoms: C_14  and  C_15
REMARK    6  A    between atoms: C_21  and  O_22
REMARK    7  A    between atoms: O_22  and  C_23
REMARK    8  A    between atoms: C_23  and  C_24
REMARK    9  A    between atoms: C_30  and  C_41
REMARK                            x       y       z     vdW  Elec       q    Type
REMARK                         _______ _______ _______ _____ _____    ______ ____
ROOT
ATOM      1  N   UNL A   1     -24.585  -0.192  29.056  0.00  0.00    -0.237 N 
ATOM      2  C   UNL A   1     -20.222   0.005  28.506  0.00  0.00    +0.038 C 
ATOM      3  O   UNL A   1     -26.732   0.045  28.541  0.00  0.00    -0.270 OA
ATOM      4  C   UNL A   1     -23.401   0.089  28.592  0.00  0.00    +0.267 C 
ATOM      5  C   UNL A   1     -25.481   0.387  28.416  0.00  0.00    +0.248 C 
ATOM      6  C   UNL A   1     -23.625   1.007  27.442  0.00  0.00    +0.024 C 
ATOM      7  F   UNL A   1     -20.492   2.141  27.392  0.00  0.00    -0.229 F 
ATOM      8  O   UNL A   1     -22.237  -0.316  28.992  0.00  0.00    -0.458 OA
ATOM      9  C   UNL A   1     -21.737   1.460  27.491  0.00  0.00    +0.226 C 
ATOM     10  C   UNL A   1     -21.299   0.271  28.471  0.00  0.00    +0.151 C 
ATOM     11  C   UNL A   1     -22.623   1.603  26.531  0.00  0.00    +0.130 C 
ATOM     12  C   UNL A   1     -24.959   1.145  27.367  0.00  0.00    +0.036 C 
ENDROOT
BRANCH  12  13
ATOM     13  C   UNL A   1     -25.688   1.614  26.461  0.00  0.00    +0.096 C 
ATOM     14  C   UNL A   1     -26.250   2.920  26.395  0.00  0.00    +0.059 C 
ATOM     15  C   UNL A   1     -27.438   3.091  25.645  0.00  0.00    +0.102 C 
ATOM     16  N   UNL A   1     -28.075   2.089  25.003  0.00  0.00    -0.212 NA
ATOM     17  C   UNL A   1     -27.543   0.849  25.079  0.00  0.00    +0.234 C 
ATOM     18  C   UNL A   1     -26.354   0.576  25.777  0.00  0.00    +0.244 C 
ATOM     19  F   UNL A   1     -25.860  -0.681  25.795  0.00  0.00    -0.227 F 
BRANCH  14  20
ATOM     20  C   UNL A   1     -25.642   4.093  27.123  0.00  0.00    +0.263 C 
ATOM     21  N   UNL A   1     -25.614   5.252  26.449  0.00  0.00    -0.200 NA
ATOM     22  C   UNL A   1     -25.026   6.479  26.963  0.00  0.00    +0.139 C 
ATOM     23  O   UNL A   1     -25.143   3.966  28.243  0.00  0.00    -0.269 OA
ENDBRANCH  14  20
BRANCH  17  24
ATOM     24  O   UNL A   1     -28.193  -0.208  24.477  0.00  0.00    -0.459 OA
BRANCH  24  25
ATOM     25  C   UNL A   1     -29.460   0.005  23.866  0.00  0.00    +0.242 C 
BRANCH  25  26
ATOM     26  C   UNL A   1     -30.065  -1.377  23.573  0.00  0.00    +0.229 C 
ATOM     27  O   UNL A   1     -30.729  -1.878  24.721  0.00  0.00    -0.216 OA
ENDBRANCH  25  26
ENDBRANCH  24  25
ENDBRANCH  17  24
ENDBRANCH  12  13
BRANCH  11  28
ATOM     28  C   UNL A   1     -23.095   1.912  25.259  0.00  0.00    +0.325 C 
ATOM     29  F   UNL A   1     -22.418   2.936  25.159  0.00  0.00    -0.198 F 
ATOM     30  F   UNL A   1     -23.354   1.105  24.368  0.00  0.00    -0.198 F 
ENDBRANCH  11  28
BRANCH   1  31
ATOM     31  C   UNL A   1     -24.855  -1.012  30.143  0.00  0.00    +0.117 C 
BRANCH  31  32
ATOM     32  C   UNL A   1     -24.973  -2.505  29.788  0.00  0.00    -0.003 C 
ATOM     33  C   UNL A   1     -23.906  -3.173  29.146  0.00  0.00    -0.003 C 
ATOM     34  C   UNL A   1     -23.989  -4.549  28.853  0.00  0.00    -0.000 C 
ATOM     35  C   UNL A   1     -25.137  -5.280  29.205  0.00  0.00    -0.000 C 
ATOM     36  C   UNL A   1     -26.232  -4.611  29.784  0.00  0.00    -0.000 C 
ATOM     37  C   UNL A   1     -26.155  -3.232  30.065  0.00  0.00    -0.003 C 
ENDBRANCH  31  32
BRANCH  31  38
ATOM     38  C   UNL A   1     -25.387  -0.679  31.571  0.00  0.00    +0.095 C 
ATOM     39  C   UNL A   1     -25.189   0.773  32.028  0.00  0.00    +0.021 C 
ATOM     40  C   UNL A   1     -25.336   0.684  33.544  0.00  0.00    +0.020 C 
ATOM     41  C   UNL A   1     -24.829  -0.715  33.905  0.00  0.00    +0.089 C 
ATOM     42  N   UNL A   1     -24.758  -1.481  32.646  0.00  0.00    -0.217 NA
ENDBRANCH  31  38
ENDBRANCH   1  31
TORSDOF 9
