REMARK  Name = outputs/IAG933/test6/raw/output_3562_IAG933_linker_design_.xyz
REMARK  13 active torsions:
REMARK  status: ('A' for Active; 'I' for Inactive)
REMARK    1  A    between atoms: C_1  and  C_2
REMARK    2  A    between atoms: C_1  and  C_8
REMARK    3  A    between atoms: C_1  and  C_28
REMARK    4  A    between atoms: C_13  and  C_36
REMARK    5  A    between atoms: C_14  and  C_15
REMARK    6  A    between atoms: C_21  and  O_22
REMARK    7  A    between atoms: O_22  and  C_23
REMARK    8  A    between atoms: C_23  and  C_24
REMARK    9  A    between atoms: C_28  and  N_33
REMARK   10  A    between atoms: C_28  and  N_38
REMARK   11  A    between atoms: C_31  and  C_39
REMARK   12  A    between atoms: N_38  and  S_42
REMARK   13  A    between atoms: C_41  and  S_42
REMARK                            x       y       z     vdW  Elec       q    Type
REMARK                         _______ _______ _______ _____ _____    ______ ____
ROOT
ATOM      1  C   UNL A   1     -25.256  -0.177  28.921  0.00  0.00    +0.162 C 
ENDROOT
BRANCH   1   3
ATOM      2  C   UNL A   1     -23.159   1.862  26.205  0.00  0.00    +0.022 C 
ATOM      3  N   UNL A   1     -23.914   0.574  28.145  0.00  0.00    -0.256 NA
ATOM      4  C   UNL A   1     -24.342   1.361  27.054  0.00  0.00    +0.084 C 
ATOM      5  C   UNL A   1     -22.706   0.745  28.123  0.00  0.00    +0.074 C 
ATOM      6  C   UNL A   1     -21.928   1.635  27.199  0.00  0.00    +0.019 C 
BRANCH   4   7
ATOM      7  C   UNL A   1     -25.688   1.614  26.461  0.00  0.00    +0.030 C 
ATOM      8  C   UNL A   1     -26.250   2.920  26.395  0.00  0.00    +0.074 C 
ATOM      9  C   UNL A   1     -27.438   3.091  25.645  0.00  0.00    +0.106 C 
ATOM     10  N   UNL A   1     -28.075   2.089  25.003  0.00  0.00    -0.208 NA
ATOM     11  C   UNL A   1     -27.543   0.849  25.079  0.00  0.00    +0.253 C 
ATOM     12  C   UNL A   1     -26.354   0.576  25.777  0.00  0.00    +0.190 C 
ATOM     13  F   UNL A   1     -25.860  -0.681  25.795  0.00  0.00    -0.200 F 
BRANCH   8  14
ATOM     14  C   UNL A   1     -25.642   4.093  27.123  0.00  0.00    +0.266 C 
ATOM     15  N   UNL A   1     -25.614   5.252  26.449  0.00  0.00    -0.200 NA
ATOM     16  C   UNL A   1     -25.026   6.479  26.963  0.00  0.00    +0.139 C 
ATOM     17  O   UNL A   1     -25.143   3.966  28.243  0.00  0.00    -0.268 OA
ENDBRANCH   8  14
BRANCH  11  18
ATOM     18  O   UNL A   1     -28.193  -0.208  24.477  0.00  0.00    -0.456 OA
BRANCH  18  19
ATOM     19  C   UNL A   1     -29.460   0.005  23.866  0.00  0.00    +0.243 C 
BRANCH  19  20
ATOM     20  C   UNL A   1     -30.065  -1.377  23.573  0.00  0.00    +0.229 C 
ATOM     21  O   UNL A   1     -30.729  -1.878  24.721  0.00  0.00    -0.216 OA
ENDBRANCH  19  20
ENDBRANCH  18  19
ENDBRANCH  11  18
ENDBRANCH   4   7
ENDBRANCH   1   3
BRANCH   1  22
ATOM     22  C   UNL A   1     -24.855  -1.012  30.143  0.00  0.00    +0.071 C 
BRANCH  22  23
ATOM     23  C   UNL A   1     -24.973  -2.505  29.788  0.00  0.00    -0.018 C 
ATOM     24  C   UNL A   1     -23.906  -3.173  29.146  0.00  0.00    -0.004 C 
ATOM     25  C   UNL A   1     -23.989  -4.549  28.853  0.00  0.00    -0.000 C 
ATOM     26  C   UNL A   1     -25.137  -5.280  29.205  0.00  0.00    -0.000 C 
ATOM     27  C   UNL A   1     -26.232  -4.611  29.784  0.00  0.00    -0.000 C 
ATOM     28  C   UNL A   1     -26.155  -3.232  30.065  0.00  0.00    -0.004 C 
ENDBRANCH  22  23
BRANCH  22  29
ATOM     29  C   UNL A   1     -25.387  -0.679  31.571  0.00  0.00    +0.080 C 
ATOM     30  C   UNL A   1     -25.189   0.773  32.028  0.00  0.00    +0.019 C 
ATOM     31  C   UNL A   1     -25.336   0.684  33.544  0.00  0.00    +0.020 C 
ATOM     32  C   UNL A   1     -24.829  -0.715  33.905  0.00  0.00    +0.089 C 
ATOM     33  N   UNL A   1     -24.758  -1.481  32.646  0.00  0.00    -0.219 NA
ENDBRANCH  22  29
ENDBRANCH   1  22
BRANCH   1  34
ATOM     34  N   UNL A   1     -26.520   0.579  28.866  0.00  0.00    -0.062 NA
BRANCH  34  37
ATOM     35  O   UNL A   1     -28.301  -0.565  30.331  0.00  0.00    -0.151 OA
ATOM     36  O   UNL A   1     -28.814  -0.176  27.894  0.00  0.00    -0.151 OA
ATOM     37  S   UNL A   1     -28.171   0.294  29.123  0.00  0.00    +0.087 S 
BRANCH  37  39
ATOM     38  C   UNL A   1     -26.964   3.398  31.254  0.00  0.00    +0.046 C 
ATOM     39  C   UNL A   1     -28.796   1.986  29.430  0.00  0.00    +0.183 C 
ATOM     40  C   UNL A   1     -28.148   2.829  30.338  0.00  0.00    -0.082 C 
BRANCH  38  42
ATOM     41  C   UNL A   1     -25.622   5.416  30.877  0.00  0.00    +0.037 C 
ATOM     42  C   UNL A   1     -25.542   3.890  30.617  0.00  0.00    +0.145 C 
ATOM     43  C   UNL A   1     -24.531   4.306  32.697  0.00  0.00    +0.143 C 
ATOM     44  O   UNL A   1     -24.684   3.295  31.588  0.00  0.00    -0.351 OA
ATOM     45  C   UNL A   1     -25.501   5.544  32.423  0.00  0.00    +0.035 C 
ENDBRANCH  38  42
ENDBRANCH  37  39
ENDBRANCH  34  37
ENDBRANCH   1  34
TORSDOF 13
