MODEL 3563
MODEL 1
REMARK VINA RESULT:    -5.596      0.000      0.000
REMARK INTER + INTRA:          -8.739
REMARK INTER:                  -6.905
REMARK INTRA:                  -1.834
REMARK UNBOUND:                -1.834
REMARK  Name = No_3563-gen_results/8p0m/2024-11-27-11-27-31/
REMARK  4 active torsions:
REMARK  status: ('A' for Active; 'I' for Inactive)
REMARK    1  A    between atoms: C_3  and  C_4
REMARK    2  A    between atoms: C_4  and  C_5
REMARK    3  A    between atoms: C_5  and  C_12
REMARK    4  A    between atoms: C_6  and  C_10
REMARK                            x       y       z     vdW  Elec       q    Type
REMARK                         _______ _______ _______ _____ _____    ______ ____
ROOT
ATOM      1  C   UNL A   1     -23.483   1.513  27.942  0.00  0.00    -0.013 C 
ATOM      2  C   UNL A   1     -22.848   1.793  26.965  0.00  0.00    +0.052 C 
ENDROOT
BRANCH   1   3
ATOM      3  C   UNL A   1     -24.996   1.701  27.977  0.00  0.00    +0.024 A 
ATOM      4  C   UNL A   1     -25.975   0.809  28.097  0.00  0.00    +0.002 A 
ATOM      5  C   UNL A   1     -26.646   0.619  29.044  0.00  0.00    +0.000 A 
ATOM      6  C   UNL A   1     -26.758   1.759  29.964  0.00  0.00    +0.002 A 
ATOM      7  C   UNL A   1     -25.795   2.705  30.212  0.00  0.00    +0.030 A 
ATOM      8  C   UNL A   1     -25.327   3.063  28.646  0.00  0.00    +0.140 A 
ATOM      9  F   UNL A   1     -26.092   3.769  28.048  0.00  0.00    -0.204 F 
ENDBRANCH   1   3
BRANCH   2  10
ATOM     10  C   UNL A   1     -23.436   2.039  25.649  0.00  0.00    +0.350 C 
ATOM     11 CL   UNL A   1     -24.313   0.834  24.906  0.00  0.00    -0.042 Cl
ATOM     12  F   UNL A   1     -24.105   3.147  25.563  0.00  0.00    -0.182 F 
ATOM     13  F   UNL A   1     -22.339   2.273  24.796  0.00  0.00    -0.182 F 
ENDBRANCH   2  10
BRANCH   1  14
ATOM     14  C   UNL A   1     -22.962   1.381  29.246  0.00  0.00    +0.053 C 
BRANCH  14  17
ATOM     15  C   UNL A   1     -23.091  -1.163  28.974  0.00  0.00    +0.038 A 
ATOM     16  C   UNL A   1     -23.801  -1.888  29.257  0.00  0.00    +0.195 A 
ATOM     17  C   UNL A   1     -23.083   0.099  29.808  0.00  0.00    -0.015 A 
ATOM     18  C   UNL A   1     -24.199  -2.293  30.668  0.00  0.00    +0.042 A 
ATOM     19  C   UNL A   1     -24.138  -1.195  31.544  0.00  0.00    +0.003 A 
ATOM     20  C   UNL A   1     -23.588   0.019  31.154  0.00  0.00    -0.004 A 
ATOM     21  O   UNL A   1     -24.360  -2.738  28.395  0.00  0.00    -0.287 OA
ENDBRANCH  14  17
ENDBRANCH   1  14
TORSDOF 4
ENDMDL
ENDMDL
