MODEL 3564
MODEL 1
REMARK VINA RESULT:    -8.305      0.000      0.000
REMARK INTER + INTRA:         -14.504
REMARK INTER:                 -12.189
REMARK INTRA:                  -2.315
REMARK UNBOUND:                -2.315
REMARK  Name = No_3564-gen_results/8p0m/2024-11-27-11-27-31/
REMARK  8 active torsions:
REMARK  status: ('A' for Active; 'I' for Inactive)
REMARK    1  A    between atoms: C_3  and  C_7
REMARK    2  A    between atoms: C_5  and  C_23
REMARK    3  A    between atoms: C_7  and  C_15
REMARK    4  A    between atoms: C_8  and  C_9
REMARK    5  A    between atoms: C_13  and  C_26
REMARK    6  A    between atoms: C_15  and  C_16
REMARK    7  A    between atoms: C_23  and  C_25
REMARK    8  A    between atoms: C_28  and  C_29
REMARK                            x       y       z     vdW  Elec       q    Type
REMARK                         _______ _______ _______ _____ _____    ______ ____
ROOT
ATOM      1  C   UNL A   1     -10.638   1.156  35.282  0.00  0.00    -0.001 C 
ATOM      2  C   UNL A   1      -9.767   1.243  34.396  0.00  0.00    +0.085 C 
ATOM      3  N   UNL A   1     -10.039   1.847  33.208  0.00  0.00    -0.128 NA
ENDROOT
BRANCH   1   6
ATOM      4  C   UNL A   1      -9.372   1.341  37.506  0.00  0.00    -0.000 A 
ATOM      5  C   UNL A   1      -9.235   0.966  38.481  0.00  0.00    -0.000 A 
ATOM      6  C   UNL A   1     -10.332   0.710  36.685  0.00  0.00    -0.003 A 
ATOM      7  C   UNL A   1     -11.069  -0.373  37.123  0.00  0.00    -0.003 A 
ATOM      8  C   UNL A   1     -10.831  -0.797  38.420  0.00  0.00    -0.003 A 
ATOM      9  C   UNL A   1      -9.906  -0.115  39.189  0.00  0.00    -0.003 A 
BRANCH   8  10
ATOM     10  C   UNL A   1     -11.654  -1.925  39.015  0.00  0.00    +0.124 C 
ATOM     11 CL   UNL A   1     -12.242  -2.894  38.598  0.00  0.00    -0.105 Cl
BRANCH  10  12
ATOM     12  C   UNL A   1     -11.496  -1.864  40.590  0.00  0.00    -0.006 C 
ATOM     13  C   UNL A   1     -10.989  -2.515  41.320  0.00  0.00    -0.003 C 
BRANCH  13  14
ATOM     14  C   UNL A   1     -10.721  -2.254  42.705  0.00  0.00    -0.005 C 
ATOM     15  C   UNL A   1      -9.608  -3.002  43.147  0.00  0.00    -0.026 C 
ATOM     16  C   UNL A   1      -8.924  -3.862  42.413  0.00  0.00    +0.031 C 
ENDBRANCH  13  14
ENDBRANCH  10  12
ENDBRANCH   8  10
ENDBRANCH   1   6
BRANCH   2  17
ATOM     17  C   UNL A   1      -8.424   0.862  34.661  0.00  0.00    +0.017 A 
ATOM     18  C   UNL A   1      -7.447   1.942  34.754  0.00  0.00    +0.001 A 
ATOM     19  C   UNL A   1      -6.108   1.638  34.969  0.00  0.00    +0.000 A 
ATOM     20  C   UNL A   1      -5.667   0.311  34.924  0.00  0.00    +0.000 A 
ATOM     21  C   UNL A   1      -6.607  -0.681  34.736  0.00  0.00    +0.000 A 
ATOM     22  C   UNL A   1      -7.882  -0.431  34.552  0.00  0.00    +0.001 A 
BRANCH  21  23
ATOM     23  C   UNL A   1      -6.071  -2.112  34.693  0.00  0.00    +0.000 C 
ATOM     24  C   UNL A   1      -4.918  -2.478  34.228  0.00  0.00    +0.000 C 
ENDBRANCH  21  23
ENDBRANCH   2  17
BRANCH   1  25
ATOM     25  C   UNL A   1     -12.036   1.534  35.170  0.00  0.00    +0.054 C 
BRANCH  25  26
ATOM     26  C   UNL A   1     -12.547   2.682  35.930  0.00  0.00    -0.018 A 
ATOM     27  C   UNL A   1     -11.782   3.792  36.017  0.00  0.00    -0.004 A 
ATOM     28  C   UNL A   1     -12.243   4.826  36.895  0.00  0.00    -0.000 A 
ATOM     29  C   UNL A   1     -13.799   2.580  36.565  0.00  0.00    -0.004 A 
ATOM     30  C   UNL A   1     -14.243   3.654  37.365  0.00  0.00    -0.000 A 
ATOM     31  C   UNL A   1     -13.433   4.819  37.492  0.00  0.00    -0.000 A 
ENDBRANCH  25  26
ENDBRANCH   1  25
TORSDOF 8
ENDMDL
ENDMDL
