REMARK  Name = outputs/IAG933/test6/raw/output_3565_IAG933_linker_design_.xyz
REMARK  13 active torsions:
REMARK  status: ('A' for Active; 'I' for Inactive)
REMARK    1  A    between atoms: C_1  and  C_2
REMARK    2  A    between atoms: C_1  and  C_8
REMARK    3  A    between atoms: C_1  and  N_37
REMARK    4  A    between atoms: C_9  and  C_40
REMARK    5  A    between atoms: C_13  and  N_39
REMARK    6  A    between atoms: C_14  and  C_15
REMARK    7  A    between atoms: C_21  and  O_22
REMARK    8  A    between atoms: O_22  and  C_23
REMARK    9  A    between atoms: C_23  and  C_24
REMARK   10  A    between atoms: C_28  and  C_36
REMARK   11  A    between atoms: C_30  and  C_38
REMARK   12  A    between atoms: C_30  and  C_40
REMARK   13  A    between atoms: C_34  and  C_42
REMARK                            x       y       z     vdW  Elec       q    Type
REMARK                         _______ _______ _______ _____ _____    ______ ____
ROOT
ATOM      1  F   UNL A   1     -22.356   0.009  30.012  0.00  0.00    -0.188 F 
ATOM      2  C   UNL A   1     -23.265   0.310  29.000  0.00  0.00    +0.190 C 
ATOM      3  C   UNL A   1     -23.747   0.978  27.258  0.00  0.00    +0.104 C 
ATOM      4  C   UNL A   1     -22.658   0.883  27.859  0.00  0.00    +0.035 C 
ATOM      5  N   UNL A   1     -24.529   0.006  29.230  0.00  0.00    -0.268 N 
ATOM      6  N   UNL A   1     -24.833   1.092  27.335  0.00  0.00    -0.246 NA
ATOM      7  C   UNL A   1     -25.522   0.563  28.509  0.00  0.00    +0.171 C 
ENDROOT
BRANCH   6   8
ATOM      8  C   UNL A   1     -25.688   1.614  26.461  0.00  0.00    +0.130 C 
ATOM      9  C   UNL A   1     -26.250   2.920  26.395  0.00  0.00    +0.070 C 
ATOM     10  C   UNL A   1     -27.438   3.091  25.645  0.00  0.00    +0.103 C 
ATOM     11  N   UNL A   1     -28.075   2.089  25.003  0.00  0.00    -0.212 NA
ATOM     12  C   UNL A   1     -27.543   0.849  25.079  0.00  0.00    +0.235 C 
ATOM     13  C   UNL A   1     -26.354   0.576  25.777  0.00  0.00    +0.255 C 
ATOM     14  F   UNL A   1     -25.860  -0.681  25.795  0.00  0.00    -0.225 F 
BRANCH   9  15
ATOM     15  C   UNL A   1     -25.642   4.093  27.123  0.00  0.00    +0.264 C 
ATOM     16  N   UNL A   1     -25.614   5.252  26.449  0.00  0.00    -0.200 NA
ATOM     17  C   UNL A   1     -25.026   6.479  26.963  0.00  0.00    +0.139 C 
ATOM     18  O   UNL A   1     -25.143   3.966  28.243  0.00  0.00    -0.269 OA
ENDBRANCH   9  15
BRANCH  12  19
ATOM     19  O   UNL A   1     -28.193  -0.208  24.477  0.00  0.00    -0.459 OA
BRANCH  19  20
ATOM     20  C   UNL A   1     -29.460   0.005  23.866  0.00  0.00    +0.242 C 
BRANCH  20  21
ATOM     21  C   UNL A   1     -30.065  -1.377  23.573  0.00  0.00    +0.229 C 
ATOM     22  O   UNL A   1     -30.729  -1.878  24.721  0.00  0.00    -0.216 OA
ENDBRANCH  20  21
ENDBRANCH  19  20
ENDBRANCH  12  19
ENDBRANCH   6   8
BRANCH   4  23
ATOM     23  C   UNL A   1     -21.296   1.211  27.483  0.00  0.00    -0.001 C 
ATOM     24  C   UNL A   1     -21.110   1.698  26.251  0.00  0.00    +0.009 C 
BRANCH  24  26
ATOM     25  O   UNL A   1     -23.189   1.748  24.802  0.00  0.00    -0.215 OA
ATOM     26  C   UNL A   1     -21.934   2.023  25.258  0.00  0.00    +0.208 C 
ENDBRANCH  24  26
ENDBRANCH   4  23
BRANCH   5  27
ATOM     27  C   UNL A   1     -24.855  -1.012  30.143  0.00  0.00    +0.114 C 
BRANCH  27  28
ATOM     28  C   UNL A   1     -24.973  -2.505  29.788  0.00  0.00    -0.003 C 
ATOM     29  C   UNL A   1     -23.906  -3.173  29.146  0.00  0.00    -0.003 C 
ATOM     30  C   UNL A   1     -23.989  -4.549  28.853  0.00  0.00    -0.000 C 
ATOM     31  C   UNL A   1     -25.137  -5.280  29.205  0.00  0.00    -0.000 C 
ATOM     32  C   UNL A   1     -26.232  -4.611  29.784  0.00  0.00    -0.000 C 
ATOM     33  C   UNL A   1     -26.155  -3.232  30.065  0.00  0.00    -0.003 C 
ENDBRANCH  27  28
BRANCH  27  34
ATOM     34  C   UNL A   1     -25.387  -0.679  31.571  0.00  0.00    +0.095 C 
ATOM     35  C   UNL A   1     -25.189   0.773  32.028  0.00  0.00    +0.019 C 
ATOM     36  C   UNL A   1     -25.336   0.684  33.544  0.00  0.00    +0.020 C 
ATOM     37  C   UNL A   1     -24.829  -0.715  33.905  0.00  0.00    +0.089 C 
ATOM     38  N   UNL A   1     -24.758  -1.481  32.646  0.00  0.00    -0.217 NA
BRANCH  35  39
ATOM     39  C   UNL A   1     -25.353   2.006  31.501  0.00  0.00    +0.002 C 
BRANCH  39  40
ATOM     40  C   UNL A   1     -24.900   3.337  31.931  0.00  0.00    +0.000 C 
BRANCH  40  42
ATOM     41  C   UNL A   1     -26.186   5.294  32.507  0.00  0.00    +0.000 C 
ATOM     42  C   UNL A   1     -25.988   4.278  31.381  0.00  0.00    +0.000 C 
ENDBRANCH  40  42
ENDBRANCH  39  40
ENDBRANCH  35  39
ENDBRANCH  27  34
ENDBRANCH   5  27
TORSDOF 13
