MODEL 3565
MODEL 1
REMARK VINA RESULT:    -8.533      0.000      0.000
REMARK INTER + INTRA:         -15.970
REMARK INTER:                 -12.523
REMARK INTRA:                  -3.447
REMARK UNBOUND:                -3.447
REMARK  Name = No_3565-gen_results/8p0m/2024-11-27-11-27-31/
REMARK  8 active torsions:
REMARK  status: ('A' for Active; 'I' for Inactive)
REMARK    1  A    between atoms: C_5  and  C_8
REMARK    2  A    between atoms: C_7  and  C_11
REMARK    3  A    between atoms: C_11  and  C_12
REMARK    4  A    between atoms: C_12  and  C_13
REMARK    5  A    between atoms: C_12  and  C_21
REMARK    6  A    between atoms: C_21  and  C_22
REMARK    7  A    between atoms: C_21  and  C_28
REMARK    8  A    between atoms: C_29  and  C_30
REMARK                            x       y       z     vdW  Elec       q    Type
REMARK                         _______ _______ _______ _____ _____    ______ ____
ROOT
ATOM      1  C   UNL A   1      -8.787   1.596  35.022  0.00  0.00    +0.035 C 
ENDROOT
BRANCH   1   2
ATOM      2  C   UNL A   1      -8.068   2.628  34.707  0.00  0.00    -0.018 A 
ATOM      3  C   UNL A   1      -8.037   3.690  35.566  0.00  0.00    +0.025 A 
ATOM      4  C   UNL A   1      -7.376   4.989  35.256  0.00  0.00    +0.141 A 
ATOM      5  C   UNL A   1      -6.662   4.988  34.086  0.00  0.00    +0.041 A 
ATOM      6  C   UNL A   1      -6.689   3.928  33.215  0.00  0.00    +0.060 A 
ATOM      7  C   UNL A   1      -7.365   2.803  33.488  0.00  0.00    +0.007 A 
ATOM      8  F   UNL A   1      -7.395   5.976  36.094  0.00  0.00    -0.204 F 
ATOM      9 CL   UNL A   1      -5.850   4.101  31.717  0.00  0.00    -0.082 Cl
ENDBRANCH   1   2
BRANCH   1  10
ATOM     10  C   UNL A   1      -9.710   1.111  34.169  0.00  0.00    +0.032 C 
BRANCH  10  17
ATOM     11 CL   UNL A   1     -11.546   0.584  31.883  0.00  0.00    -0.083 Cl
ATOM     12  C   UNL A   1     -12.016   1.135  33.131  0.00  0.00    +0.054 A 
ATOM     13  C   UNL A   1     -13.295   1.658  33.247  0.00  0.00    +0.011 A 
ATOM     14  C   UNL A   1     -13.726   2.442  34.341  0.00  0.00    +0.005 A 
ATOM     15  C   UNL A   1     -12.879   2.704  35.396  0.00  0.00    +0.056 A 
ATOM     16  C   UNL A   1     -11.596   2.232  35.301  0.00  0.00    +0.001 A 
ATOM     17  C   UNL A   1     -11.178   1.554  34.229  0.00  0.00    -0.011 A 
BRANCH  15  18
ATOM     18  C   UNL A   1     -13.405   3.475  36.513  0.00  0.00    +0.284 C 
ATOM     19  N   UNL A   1     -14.385   3.076  37.306  0.00  0.00    -0.084 NA
ATOM     20  O   UNL A   1     -12.828   4.400  36.803  0.00  0.00    -0.267 OA
ENDBRANCH  15  18
ENDBRANCH  10  17
ENDBRANCH   1  10
BRANCH   1  21
ATOM     21  C   UNL A   1      -8.039   0.513  35.665  0.00  0.00    +0.049 C 
BRANCH  21  22
ATOM     22  C   UNL A   1      -7.178  -0.033  35.342  0.00  0.00    -0.018 A 
ATOM     23  C   UNL A   1      -7.294  -1.304  34.577  0.00  0.00    -0.004 A 
ATOM     24  C   UNL A   1      -6.206  -2.133  34.281  0.00  0.00    -0.000 A 
ATOM     25  C   UNL A   1      -4.991  -1.682  34.595  0.00  0.00    -0.000 A 
ATOM     26  C   UNL A   1      -4.713  -0.540  35.267  0.00  0.00    -0.000 A 
ATOM     27  C   UNL A   1      -5.717   0.279  35.688  0.00  0.00    -0.004 A 
ENDBRANCH  21  22
BRANCH  21  28
ATOM     28  C   UNL A   1      -8.940  -0.141  36.631  0.00  0.00    -0.022 C 
ATOM     29  C   UNL A   1      -9.577  -0.046  37.511  0.00  0.00    -0.004 C 
BRANCH  29  30
ATOM     30  C   UNL A   1     -10.417  -0.940  38.262  0.00  0.00    -0.000 A 
ATOM     31  C   UNL A   1     -11.165  -1.837  37.500  0.00  0.00    -0.000 A 
ATOM     32  C   UNL A   1     -12.042  -2.708  38.184  0.00  0.00    -0.000 A 
ATOM     33  C   UNL A   1     -12.305  -2.540  39.467  0.00  0.00    -0.000 A 
ATOM     34  C   UNL A   1     -11.626  -1.658  40.251  0.00  0.00    -0.000 A 
ATOM     35  C   UNL A   1     -10.700  -0.819  39.613  0.00  0.00    -0.000 A 
ENDBRANCH  29  30
ENDBRANCH  21  28
ENDBRANCH   1  21
TORSDOF 8
ENDMDL
ENDMDL
