MODEL 3566
MODEL 1
REMARK VINA RESULT:    -6.370      0.000      0.000
REMARK INTER + INTRA:          -8.483
REMARK INTER:                  -7.860
REMARK INTRA:                  -0.623
REMARK UNBOUND:                -0.623
REMARK  Name = No_3566-gen_results/8p0m/2024-11-27-11-27-31/
REMARK  4 active torsions:
REMARK  status: ('A' for Active; 'I' for Inactive)
REMARK    1  A    between atoms: C_3  and  C_8
REMARK    2  A    between atoms: C_6  and  O_7
REMARK    3  A    between atoms: O_7  and  C_14
REMARK    4  A    between atoms: C_14  and  C_15
REMARK                            x       y       z     vdW  Elec       q    Type
REMARK                         _______ _______ _______ _____ _____    ______ ____
ROOT
ATOM      1  C   UNL A   1     -10.289   0.050  36.680  0.00  0.00    +0.037 A 
ATOM      2  C   UNL A   1      -9.200  -0.412  36.427  0.00  0.00    +0.003 A 
ATOM      3  C   UNL A   1      -8.407   0.020  35.364  0.00  0.00    +0.000 A 
ATOM      4  C   UNL A   1      -8.922   1.037  34.467  0.00  0.00    +0.003 A 
ATOM      5  C   UNL A   1     -10.202   1.521  34.820  0.00  0.00    +0.037 A 
ATOM      6  C   UNL A   1     -10.876   1.048  35.837  0.00  0.00    +0.142 A 
ENDROOT
BRANCH   3   7
ATOM      7  C   UNL A   1      -7.053  -0.500  34.990  0.00  0.00    +0.000 A 
ATOM      8  C   UNL A   1      -6.904  -1.754  34.585  0.00  0.00    +0.000 A 
ATOM      9  C   UNL A   1      -5.631  -2.302  34.401  0.00  0.00    +0.000 A 
ATOM     10  C   UNL A   1      -4.459  -1.571  34.594  0.00  0.00    +0.000 A 
ATOM     11  C   UNL A   1      -5.874   0.242  35.308  0.00  0.00    +0.000 A 
ATOM     12  C   UNL A   1      -4.570  -0.288  35.063  0.00  0.00    +0.000 A 
ENDBRANCH   3   7
BRANCH   6  13
ATOM     13  O   UNL A   1     -12.126   1.555  36.052  0.00  0.00    -0.443 OA
BRANCH  13  14
ATOM     14  C   UNL A   1     -12.766   2.373  35.143  0.00  0.00    +0.423 C 
ATOM     15  F   UNL A   1     -13.361   1.529  34.131  0.00  0.00    -0.179 F 
BRANCH  14  16
ATOM     16  C   UNL A   1     -13.825   3.091  35.749  0.00  0.00    +0.469 C 
ATOM     17  F   UNL A   1     -14.426   2.313  36.709  0.00  0.00    -0.164 F 
ATOM     18  F   UNL A   1     -14.813   3.367  34.899  0.00  0.00    -0.164 F 
ATOM     19  F   UNL A   1     -13.513   4.263  36.341  0.00  0.00    -0.164 F 
ENDBRANCH  14  16
ENDBRANCH  13  14
ENDBRANCH   6  13
TORSDOF 4
ENDMDL
ENDMDL
