REMARK  Name = outputs/IAG933/test6/raw/output_3566_IAG933_linker_design_.xyz
REMARK  18 active torsions:
REMARK  status: ('A' for Active; 'I' for Inactive)
REMARK    1  A    between atoms: C_1  and  C_2
REMARK    2  A    between atoms: C_1  and  C_8
REMARK    3  A    between atoms: C_1  and  N_34
REMARK    4  A    between atoms: C_14  and  C_15
REMARK    5  A    between atoms: C_15  and  O_18
REMARK    6  A    between atoms: O_18  and  C_29
REMARK    7  A    between atoms: C_21  and  O_22
REMARK    8  A    between atoms: O_22  and  C_23
REMARK    9  A    between atoms: C_23  and  C_24
REMARK   10  A    between atoms: C_29  and  C_38
REMARK   11  A    between atoms: C_29  and  C_42
REMARK   12  A    between atoms: O_30  and  C_37
REMARK   13  A    between atoms: O_30  and  C_41
REMARK   14  A    between atoms: C_32  and  C_42
REMARK   15  A    between atoms: N_34  and  C_39
REMARK   16  A    between atoms: C_36  and  C_41
REMARK   17  A    between atoms: C_37  and  C_39
REMARK   18  A    between atoms: C_40  and  C_42
REMARK                            x       y       z     vdW  Elec       q    Type
REMARK                         _______ _______ _______ _____ _____    ______ ____
ROOT
ATOM      1  C   UNL A   1     -25.022   2.788  29.152  0.00  0.00    +0.210 C 
ENDROOT
BRANCH   1   2
ATOM      2  C   UNL A   1     -23.443   2.197  29.011  0.00  0.00    +0.032 C 
ATOM      3  C   UNL A   1     -23.146   0.614  29.302  0.00  0.00    +0.072 C 
BRANCH   3   4
ATOM      4  N   UNL A   1     -24.374   0.217  29.515  0.00  0.00    -0.235 NA
BRANCH   4   5
ATOM      5  C   UNL A   1     -24.855  -1.012  30.143  0.00  0.00    +0.130 C 
BRANCH   5   6
ATOM      6  C   UNL A   1     -24.973  -2.505  29.788  0.00  0.00    -0.001 C 
ATOM      7  C   UNL A   1     -23.906  -3.173  29.146  0.00  0.00    -0.003 C 
ATOM      8  C   UNL A   1     -23.989  -4.549  28.853  0.00  0.00    -0.000 C 
ATOM      9  C   UNL A   1     -25.137  -5.280  29.205  0.00  0.00    -0.000 C 
ATOM     10  C   UNL A   1     -26.232  -4.611  29.784  0.00  0.00    -0.000 C 
ATOM     11  C   UNL A   1     -26.155  -3.232  30.065  0.00  0.00    -0.003 C 
ENDBRANCH   5   6
BRANCH   5  12
ATOM     12  C   UNL A   1     -25.387  -0.679  31.571  0.00  0.00    +0.097 C 
ATOM     13  C   UNL A   1     -25.189   0.773  32.028  0.00  0.00    +0.021 C 
ATOM     14  C   UNL A   1     -25.336   0.684  33.544  0.00  0.00    +0.020 C 
ATOM     15  C   UNL A   1     -24.829  -0.715  33.905  0.00  0.00    +0.089 C 
ATOM     16  N   UNL A   1     -24.758  -1.481  32.646  0.00  0.00    -0.217 NA
ENDBRANCH   5  12
ENDBRANCH   4   5
ENDBRANCH   3   4
BRANCH   3  17
ATOM     17  C   UNL A   1     -22.076  -0.173  29.143  0.00  0.00    +0.186 C 
BRANCH  17  18
ATOM     18  O   UNL A   1     -21.139   0.245  28.206  0.00  0.00    -0.332 OA
BRANCH  18  19
ATOM     19  C   UNL A   1     -21.383   1.099  27.346  0.00  0.00    +0.248 C 
BRANCH  19  21
ATOM     20  N   UNL A   1     -22.712   2.371  25.464  0.00  0.00    -0.193 NA
ATOM     21  C   UNL A   1     -22.110   1.855  26.329  0.00  0.00    +0.106 C 
ENDBRANCH  19  21
ENDBRANCH  18  19
ENDBRANCH  17  18
ENDBRANCH   3  17
ENDBRANCH   1   2
BRANCH   1  22
ATOM     22  O   UNL A   1     -25.143   3.966  28.243  0.00  0.00    -0.459 OA
BRANCH  22  23
ATOM     23  C   UNL A   1     -25.642   4.093  27.123  0.00  0.00    +0.222 C 
ATOM     24  N   UNL A   1     -25.614   5.252  26.449  0.00  0.00    -0.236 NA
ATOM     25  C   UNL A   1     -25.026   6.479  26.963  0.00  0.00    +0.155 C 
BRANCH  23  27
ATOM     26  C   UNL A   1     -25.688   1.614  26.461  0.00  0.00    +0.041 C 
ATOM     27  C   UNL A   1     -26.250   2.920  26.395  0.00  0.00    +0.074 C 
ATOM     28  C   UNL A   1     -27.438   3.091  25.645  0.00  0.00    +0.107 C 
ATOM     29  N   UNL A   1     -28.075   2.089  25.003  0.00  0.00    -0.208 NA
ATOM     30  C   UNL A   1     -27.543   0.849  25.079  0.00  0.00    +0.253 C 
ATOM     31  C   UNL A   1     -26.354   0.576  25.777  0.00  0.00    +0.193 C 
ATOM     32  F   UNL A   1     -25.860  -0.681  25.795  0.00  0.00    -0.199 F 
BRANCH  30  33
ATOM     33  O   UNL A   1     -28.193  -0.208  24.477  0.00  0.00    -0.456 OA
BRANCH  33  34
ATOM     34  C   UNL A   1     -29.460   0.005  23.866  0.00  0.00    +0.243 C 
BRANCH  34  35
ATOM     35  C   UNL A   1     -30.065  -1.377  23.573  0.00  0.00    +0.229 C 
ATOM     36  O   UNL A   1     -30.729  -1.878  24.721  0.00  0.00    -0.216 OA
ENDBRANCH  34  35
ENDBRANCH  33  34
ENDBRANCH  30  33
ENDBRANCH  23  27
ENDBRANCH  22  23
ENDBRANCH   1  22
BRANCH   1  37
ATOM     37  C   UNL A   1     -26.465   3.213  29.993  0.00  0.00    +0.227 C 
BRANCH  37  40
ATOM     38  O   UNL A   1     -28.846   3.307  29.499  0.00  0.00    -0.245 OA
ATOM     39  O   UNL A   1     -28.059   1.373  29.356  0.00  0.00    -0.245 OA
ATOM     40  C   UNL A   1     -27.850   2.596  29.607  0.00  0.00    +0.377 C 
ENDBRANCH  37  40
BRANCH  37  42
ATOM     41  N   UNL A   1     -27.459   5.180  31.192  0.00  0.00    -0.087 NA
ATOM     42  C   UNL A   1     -26.291   4.466  30.523  0.00  0.00    +0.275 C 
ATOM     43  O   UNL A   1     -25.284   5.165  30.558  0.00  0.00    -0.271 OA
ENDBRANCH  37  42
ENDBRANCH   1  37
TORSDOF 18
