MODEL 3567
MODEL 1
REMARK VINA RESULT:    -6.211      0.000      0.000
REMARK INTER + INTRA:          -9.156
REMARK INTER:                  -8.026
REMARK INTRA:                  -1.130
REMARK UNBOUND:                -1.130
REMARK  Name = No_3567-gen_results/8p0m/2024-11-27-11-27-31/
REMARK  5 active torsions:
REMARK  status: ('A' for Active; 'I' for Inactive)
REMARK    1  A    between atoms: C_3  and  C_10
REMARK    2  A    between atoms: C_5  and  C_7
REMARK    3  A    between atoms: C_10  and  C_11
REMARK    4  A    between atoms: C_11  and  C_13
REMARK    5  A    between atoms: C_13  and  C_16
REMARK                            x       y       z     vdW  Elec       q    Type
REMARK                         _______ _______ _______ _____ _____    ______ ____
ROOT
ATOM      1  C   UNL A   1     -22.490  -0.790  29.074  0.00  0.00    -0.000 A 
ATOM      2  C   UNL A   1     -23.185   0.009  28.490  0.00  0.00    -0.004 A 
ATOM      3  C   UNL A   1     -24.444  -0.255  27.977  0.00  0.00    -0.018 A 
ATOM      4  C   UNL A   1     -24.967  -1.565  28.184  0.00  0.00    +0.003 A 
ATOM      5  C   UNL A   1     -24.246  -2.382  28.970  0.00  0.00    +0.080 A 
ATOM      6  C   UNL A   1     -23.087  -2.031  29.448  0.00  0.00    +0.007 A 
ENDROOT
BRANCH   5   7
ATOM      7  C   UNL A   1     -24.841  -3.724  29.187  0.00  0.00    +0.388 C 
ATOM      8  O   UNL A   1     -25.861  -3.806  29.589  0.00  0.00    -0.241 OA
ATOM      9  O   UNL A   1     -24.113  -4.816  28.999  0.00  0.00    -0.241 OA
ENDBRANCH   5   7
BRANCH   3  10
ATOM     10  C   UNL A   1     -25.168   0.750  27.081  0.00  0.00    +0.048 C 
BRANCH  10  11
ATOM     11  C   UNL A   1     -24.607   0.901  25.740  0.00  0.00    -0.040 C 
ATOM     12  C   UNL A   1     -24.826   0.369  24.740  0.00  0.00    -0.034 C 
ATOM     13  C   UNL A   1     -25.945  -0.575  24.598  0.00  0.00    +0.030 C 
BRANCH  11  14
ATOM     14  C   UNL A   1     -23.840   2.232  25.635  0.00  0.00    +0.040 C 
ATOM     15  C   UNL A   1     -22.694   2.378  25.395  0.00  0.00    +0.009 C 
BRANCH  14  16
ATOM     16  C   UNL A   1     -24.748   3.391  25.844  0.00  0.00    -0.022 C 
ATOM     17  C   UNL A   1     -24.641   4.318  26.387  0.00  0.00    -0.005 C 
ENDBRANCH  14  16
ENDBRANCH  11  14
ENDBRANCH  10  11
ENDBRANCH   3  10
TORSDOF 5
ENDMDL
ENDMDL
