MODEL 3568
MODEL 1
REMARK VINA RESULT:    -6.814      0.000      0.000
REMARK INTER + INTRA:          -8.858
REMARK INTER:                  -8.009
REMARK INTRA:                  -0.849
REMARK UNBOUND:                -0.849
REMARK  Name = No_3568-gen_results/8p0m/2024-11-27-11-27-31/
REMARK  3 active torsions:
REMARK  status: ('A' for Active; 'I' for Inactive)
REMARK    1  A    between atoms: C_2  and  C_7
REMARK    2  A    between atoms: C_4  and  C_10
REMARK    3  A    between atoms: C_10  and  C_11
REMARK                            x       y       z     vdW  Elec       q    Type
REMARK                         _______ _______ _______ _____ _____    ______ ____
ROOT
ATOM      1  C   UNL A   1     -23.502  -1.481  29.342  0.00  0.00    +0.053 C 
ENDROOT
BRANCH   1   2
ATOM      2  C   UNL A   1     -22.860  -0.600  28.546  0.00  0.00    -0.018 A 
ATOM      3  C   UNL A   1     -21.406  -0.433  28.668  0.00  0.00    -0.004 A 
ATOM      4  C   UNL A   1     -23.546   0.271  27.695  0.00  0.00    -0.004 A 
ATOM      5  C   UNL A   1     -22.916   1.532  27.326  0.00  0.00    -0.000 A 
ATOM      6  C   UNL A   1     -20.793   0.736  28.167  0.00  0.00    -0.000 A 
ATOM      7  C   UNL A   1     -21.534   1.680  27.509  0.00  0.00    -0.000 A 
ATOM      8  C   UNL A   1     -23.696   2.528  26.589  0.00  0.00    -0.000 A 
ATOM      9  C   UNL A   1     -24.881   2.156  26.064  0.00  0.00    -0.000 A 
ATOM     10  C   UNL A   1     -25.276   0.822  26.140  0.00  0.00    -0.000 A 
ATOM     11  C   UNL A   1     -24.675  -0.017  27.059  0.00  0.00    -0.000 A 
ENDBRANCH   1   2
BRANCH   1  15
ATOM     12  C   UNL A   1     -23.681  -1.093  33.167  0.00  0.00    +0.006 A 
ATOM     13  C   UNL A   1     -24.692  -0.802  33.227  0.00  0.00    +0.080 A 
ATOM     14  C   UNL A   1     -23.163  -1.405  31.826  0.00  0.00    -0.004 A 
ATOM     15  C   UNL A   1     -23.964  -1.180  30.669  0.00  0.00    -0.018 A 
ATOM     16  C   UNL A   1     -25.704  -0.442  32.196  0.00  0.00    +0.006 A 
ATOM     17  C   UNL A   1     -25.263  -0.727  30.938  0.00  0.00    -0.004 A 
BRANCH  13  18
ATOM     18  C   UNL A   1     -25.286  -0.437  34.661  0.00  0.00    +0.388 C 
ATOM     19  O   UNL A   1     -24.675  -0.799  35.521  0.00  0.00    -0.241 OA
ATOM     20  O   UNL A   1     -26.226   0.563  34.761  0.00  0.00    -0.241 OA
ENDBRANCH  13  18
ENDBRANCH   1  15
TORSDOF 3
ENDMDL
ENDMDL
