REMARK  Name = No_3568-gen_results/8p0m/2024-11-27-11-27-31/
REMARK  3 active torsions:
REMARK  status: ('A' for Active; 'I' for Inactive)
REMARK    1  A    between atoms: C_2  and  C_7
REMARK    2  A    between atoms: C_4  and  C_10
REMARK    3  A    between atoms: C_10  and  C_11
REMARK                            x       y       z     vdW  Elec       q    Type
REMARK                         _______ _______ _______ _____ _____    ______ ____
ROOT
ATOM      1  C   UNL A   1     -24.368  -1.085  30.076  0.00  0.00    +0.053 C 
ENDROOT
BRANCH   1   2
ATOM      2  C   UNL A   1     -23.580  -0.589  29.099  0.00  0.00    -0.018 A 
ATOM      3  C   UNL A   1     -22.121  -0.597  29.265  0.00  0.00    -0.004 A 
ATOM      4  C   UNL A   1     -24.104   0.065  27.980  0.00  0.00    -0.004 A 
ATOM      5  C   UNL A   1     -23.280   1.051  27.294  0.00  0.00    -0.000 A 
ATOM      6  C   UNL A   1     -21.324   0.265  28.480  0.00  0.00    -0.000 A 
ATOM      7  C   UNL A   1     -21.896   1.055  27.519  0.00  0.00    -0.000 A 
ATOM      8  C   UNL A   1     -23.880   1.871  26.240  0.00  0.00    -0.000 A 
ATOM      9  C   UNL A   1     -25.096   1.524  25.770  0.00  0.00    -0.000 A 
ATOM     10  C   UNL A   1     -25.693   0.346  26.216  0.00  0.00    -0.000 A 
ATOM     11  C   UNL A   1     -25.249  -0.245  27.383  0.00  0.00    -0.000 A 
ENDBRANCH   1   2
BRANCH   1  15
ATOM     12  C   UNL A   1     -28.016  -0.814  28.878  0.00  0.00    +0.006 A 
ATOM     13  C   UNL A   1     -28.469  -0.785  29.829  0.00  0.00    +0.080 A 
ATOM     14  C   UNL A   1     -26.546  -0.876  28.850  0.00  0.00    -0.004 A 
ATOM     15  C   UNL A   1     -25.804  -1.032  30.057  0.00  0.00    -0.018 A 
ATOM     16  C   UNL A   1     -27.944  -0.987  31.207  0.00  0.00    +0.006 A 
ATOM     17  C   UNL A   1     -26.582  -1.039  31.223  0.00  0.00    -0.004 A 
BRANCH  13  18
ATOM     18  C   UNL A   1     -30.061  -0.737  29.902  0.00  0.00    +0.388 C 
ATOM     19  O   UNL A   1     -30.552  -0.277  29.011  0.00  0.00    -0.241 OA
ATOM     20  O   UNL A   1     -30.715  -1.554  30.795  0.00  0.00    -0.241 OA
ENDBRANCH  13  18
ENDBRANCH   1  15
TORSDOF 3
