MODEL 3569
MODEL 1
REMARK VINA RESULT:    -5.271      0.000      0.000
REMARK INTER + INTRA:          -5.631
REMARK INTER:                  -5.579
REMARK INTRA:                  -0.052
REMARK UNBOUND:                -0.052
REMARK  Name = No_3569-gen_results/8p0m/2024-11-27-11-27-31/
REMARK  1 active torsions:
REMARK  status: ('A' for Active; 'I' for Inactive)
REMARK    1  A    between atoms: C_2  and  C_8
REMARK                            x       y       z     vdW  Elec       q    Type
REMARK                         _______ _______ _______ _____ _____    ______ ____
ROOT
ATOM      1  C   UNL A   1     -28.957 -10.423  32.746  0.00  0.00    +0.019 A 
ATOM      2  C   UNL A   1     -28.223 -11.171  32.625  0.00  0.00    +0.081 A 
ATOM      3  C   UNL A   1     -29.735 -10.065  31.549  0.00  0.00    +0.068 A 
ATOM      4  C   UNL A   1     -29.585 -10.804  30.339  0.00  0.00    +0.068 A 
ATOM      5  C   UNL A   1     -28.632 -11.791  30.351  0.00  0.00    +0.013 A 
ATOM      6  C   UNL A   1     -27.927 -12.060  31.471  0.00  0.00    +0.007 A 
ATOM      7 CL   UNL A   1     -30.466 -10.423  28.976  0.00  0.00    -0.081 Cl
ATOM      8 CL   UNL A   1     -30.799  -8.674  31.597  0.00  0.00    -0.081 Cl
ENDROOT
BRANCH   2   9
ATOM      9  C   UNL A   1     -27.338 -11.611  33.891  0.00  0.00    +0.388 C 
ATOM     10  O   UNL A   1     -26.940 -10.693  34.771  0.00  0.00    -0.241 OA
ATOM     11  O   UNL A   1     -26.821 -12.731  33.858  0.00  0.00    -0.241 OA
ENDBRANCH   2   9
TORSDOF 1
ENDMDL
ENDMDL
