MODEL 356
MODEL 1
REMARK VINA RESULT:    -5.581      0.000      0.000
REMARK INTER + INTRA:          -6.073
REMARK INTER:                  -5.908
REMARK INTRA:                  -0.165
REMARK UNBOUND:                -0.165
REMARK  Name = No_356-gen_results/8p0m/2024-11-27-11-27-31/
REMARK  1 active torsions:
REMARK  status: ('A' for Active; 'I' for Inactive)
REMARK    1  A    between atoms: C_5  and  C_8
REMARK                            x       y       z     vdW  Elec       q    Type
REMARK                         _______ _______ _______ _____ _____    ______ ____
ROOT
ATOM      1  C   UNL A   1     -26.689  -3.412  30.043  0.00  0.00    +0.002 A 
ATOM      2  C   UNL A   1     -26.335  -4.507  29.671  0.00  0.00    +0.030 A 
ATOM      3  C   UNL A   1     -25.111  -4.796  29.094  0.00  0.00    +0.140 A 
ATOM      4  C   UNL A   1     -24.187  -3.718  28.957  0.00  0.00    +0.027 A 
ATOM      5  C   UNL A   1     -24.541  -2.551  29.520  0.00  0.00    -0.004 A 
ATOM      6  C   UNL A   1     -25.702  -2.382  30.085  0.00  0.00    -0.003 A 
ATOM      7  F   UNL A   1     -24.772  -5.997  28.604  0.00  0.00    -0.204 F 
ENDROOT
BRANCH   5   8
ATOM      8  C   UNL A   1     -23.542  -1.466  29.381  0.00  0.00    +0.096 C 
ATOM      9  N   UNL A   1     -22.368  -1.712  28.916  0.00  0.00    -0.130 NA
ATOM     10  C   UNL A   1     -23.431  -0.657  30.622  0.00  0.00    +0.024 C 
ATOM     11  C   UNL A   1     -24.049  -0.388  28.280  0.00  0.00    +0.024 C 
ENDBRANCH   5   8
TORSDOF 1
ENDMDL
ENDMDL
