REMARK  Name = outputs/IAG933/test6/raw/output_357_IAG933_linker_design_.xyz
REMARK  8 active torsions:
REMARK  status: ('A' for Active; 'I' for Inactive)
REMARK    1  A    between atoms: C_1  and  C_2
REMARK    2  A    between atoms: C_1  and  C_8
REMARK    3  A    between atoms: C_1  and  C_40
REMARK    4  A    between atoms: C_13  and  C_32
REMARK    5  A    between atoms: C_14  and  C_15
REMARK    6  A    between atoms: C_21  and  O_22
REMARK    7  A    between atoms: O_22  and  C_23
REMARK    8  A    between atoms: C_23  and  C_24
REMARK                            x       y       z     vdW  Elec       q    Type
REMARK                         _______ _______ _______ _____ _____    ______ ____
ROOT
ATOM      1  C   UNL A   1     -21.827   1.559  28.013  0.00  0.00    +0.493 C 
ATOM      2  F   UNL A   1     -20.601   1.132  28.276  0.00  0.00    -0.157 F 
ATOM      3  O   UNL A   1     -22.826   1.646  28.954  0.00  0.00    -0.396 OA
ATOM      4  O   UNL A   1     -26.774  -0.680  28.354  0.00  0.00    -0.223 OA
ATOM      5  C   UNL A   1     -24.569   1.267  26.980  0.00  0.00    +0.161 C 
ATOM      6  C   UNL A   1     -25.733  -0.342  28.170  0.00  0.00    +0.165 C 
ATOM      7  S   UNL A   1     -23.305   2.243  26.186  0.00  0.00    +0.001 S 
ATOM      8  O   UNL A   1     -23.338   3.679  26.179  0.00  0.00    -0.071 OA
ATOM      9  C   UNL A   1     -23.114   0.557  29.542  0.00  0.00    +0.322 C 
ATOM     10  C   UNL A   1     -24.813   0.255  28.046  0.00  0.00    +0.070 C 
ATOM     11  O   UNL A   1     -22.351  -0.101  30.123  0.00  0.00    -0.250 OA
ATOM     12  O   UNL A   1     -21.930   1.931  26.658  0.00  0.00    -0.170 OA
ATOM     13  C   UNL A   1     -24.641  -0.090  29.166  0.00  0.00    +0.127 C 
ATOM     14  O   UNL A   1     -23.372   1.744  24.898  0.00  0.00    -0.071 OA
ENDROOT
BRANCH   5  15
ATOM     15  C   UNL A   1     -25.688   1.614  26.461  0.00  0.00    +0.038 C 
ATOM     16  C   UNL A   1     -26.250   2.920  26.395  0.00  0.00    +0.074 C 
ATOM     17  C   UNL A   1     -27.438   3.091  25.645  0.00  0.00    +0.106 C 
ATOM     18  N   UNL A   1     -28.075   2.089  25.003  0.00  0.00    -0.208 NA
ATOM     19  C   UNL A   1     -27.543   0.849  25.079  0.00  0.00    +0.253 C 
ATOM     20  C   UNL A   1     -26.354   0.576  25.777  0.00  0.00    +0.191 C 
ATOM     21  F   UNL A   1     -25.860  -0.681  25.795  0.00  0.00    -0.200 F 
BRANCH  16  22
ATOM     22  C   UNL A   1     -25.642   4.093  27.123  0.00  0.00    +0.266 C 
ATOM     23  N   UNL A   1     -25.614   5.252  26.449  0.00  0.00    -0.200 NA
ATOM     24  C   UNL A   1     -25.026   6.479  26.963  0.00  0.00    +0.139 C 
ATOM     25  O   UNL A   1     -25.143   3.966  28.243  0.00  0.00    -0.268 OA
ENDBRANCH  16  22
BRANCH  19  26
ATOM     26  O   UNL A   1     -28.193  -0.208  24.477  0.00  0.00    -0.456 OA
BRANCH  26  27
ATOM     27  C   UNL A   1     -29.460   0.005  23.866  0.00  0.00    +0.243 C 
BRANCH  27  28
ATOM     28  C   UNL A   1     -30.065  -1.377  23.573  0.00  0.00    +0.229 C 
ATOM     29  O   UNL A   1     -30.729  -1.878  24.721  0.00  0.00    -0.216 OA
ENDBRANCH  27  28
ENDBRANCH  26  27
ENDBRANCH  19  26
ENDBRANCH   5  15
BRANCH  13  30
ATOM     30  C   UNL A   1     -24.855  -1.012  30.143  0.00  0.00    +0.051 C 
BRANCH  30  31
ATOM     31  C   UNL A   1     -24.973  -2.505  29.788  0.00  0.00    -0.021 C 
ATOM     32  C   UNL A   1     -23.906  -3.173  29.146  0.00  0.00    -0.004 C 
ATOM     33  C   UNL A   1     -23.989  -4.549  28.853  0.00  0.00    -0.000 C 
ATOM     34  C   UNL A   1     -25.137  -5.280  29.205  0.00  0.00    -0.000 C 
ATOM     35  C   UNL A   1     -26.232  -4.611  29.784  0.00  0.00    -0.000 C 
ATOM     36  C   UNL A   1     -26.155  -3.232  30.065  0.00  0.00    -0.004 C 
ENDBRANCH  30  31
BRANCH  30  37
ATOM     37  C   UNL A   1     -25.387  -0.679  31.571  0.00  0.00    +0.077 C 
ATOM     38  C   UNL A   1     -25.189   0.773  32.028  0.00  0.00    +0.019 C 
ATOM     39  C   UNL A   1     -25.336   0.684  33.544  0.00  0.00    +0.020 C 
ATOM     40  C   UNL A   1     -24.829  -0.715  33.905  0.00  0.00    +0.089 C 
ATOM     41  N   UNL A   1     -24.758  -1.481  32.646  0.00  0.00    -0.219 NA
ENDBRANCH  30  37
ENDBRANCH  13  30
TORSDOF 8
