REMARK  Name = outputs/IAG933/test6/raw/output_3570_IAG933_linker_design_.xyz
REMARK  8 active torsions:
REMARK  status: ('A' for Active; 'I' for Inactive)
REMARK    1  A    between atoms: C_1  and  C_2
REMARK    2  A    between atoms: C_1  and  C_8
REMARK    3  A    between atoms: C_1  and  N_28
REMARK    4  A    between atoms: C_13  and  N_29
REMARK    5  A    between atoms: C_14  and  C_15
REMARK    6  A    between atoms: C_21  and  O_22
REMARK    7  A    between atoms: O_22  and  C_23
REMARK    8  A    between atoms: C_23  and  C_24
REMARK                            x       y       z     vdW  Elec       q    Type
REMARK                         _______ _______ _______ _____ _____    ______ ____
ROOT
ATOM      1  N   UNL A   1     -25.195  -0.069  29.107  0.00  0.00    -0.087 NA
ATOM      2  N   UNL A   1     -24.464   1.279  27.103  0.00  0.00    -0.061 NA
ATOM      3  N   UNL A   1     -22.866   0.456  28.634  0.00  0.00    +0.132 NA
ATOM      4  C   UNL A   1     -24.171   0.578  28.323  0.00  0.00    +0.500 C 
ENDROOT
BRANCH   2   5
ATOM      5  C   UNL A   1     -25.688   1.614  26.461  0.00  0.00    +0.197 C 
ATOM      6  C   UNL A   1     -26.250   2.920  26.395  0.00  0.00    +0.111 C 
ATOM      7  C   UNL A   1     -27.438   3.091  25.645  0.00  0.00    +0.110 C 
ATOM      8  N   UNL A   1     -28.075   2.089  25.003  0.00  0.00    -0.208 NA
ATOM      9  C   UNL A   1     -27.543   0.849  25.079  0.00  0.00    +0.256 C 
ATOM     10  C   UNL A   1     -26.354   0.576  25.777  0.00  0.00    +0.227 C 
ATOM     11  F   UNL A   1     -25.860  -0.681  25.795  0.00  0.00    -0.196 F 
BRANCH   6  12
ATOM     12  C   UNL A   1     -25.642   4.093  27.123  0.00  0.00    +0.269 C 
ATOM     13  N   UNL A   1     -25.614   5.252  26.449  0.00  0.00    -0.200 NA
ATOM     14  C   UNL A   1     -25.026   6.479  26.963  0.00  0.00    +0.139 C 
ATOM     15  O   UNL A   1     -25.143   3.966  28.243  0.00  0.00    -0.268 OA
ENDBRANCH   6  12
BRANCH   9  16
ATOM     16  O   UNL A   1     -28.193  -0.208  24.477  0.00  0.00    -0.456 OA
BRANCH  16  17
ATOM     17  C   UNL A   1     -29.460   0.005  23.866  0.00  0.00    +0.243 C 
BRANCH  17  18
ATOM     18  C   UNL A   1     -30.065  -1.377  23.573  0.00  0.00    +0.229 C 
ATOM     19  O   UNL A   1     -30.729  -1.878  24.721  0.00  0.00    -0.216 OA
ENDBRANCH  17  18
ENDBRANCH  16  17
ENDBRANCH   9  16
ENDBRANCH   2   5
BRANCH   1  20
ATOM     20  C   UNL A   1     -24.855  -1.012  30.143  0.00  0.00    +0.219 C 
BRANCH  20  21
ATOM     21  C   UNL A   1     -24.973  -2.505  29.788  0.00  0.00    +0.018 C 
ATOM     22  C   UNL A   1     -23.906  -3.173  29.146  0.00  0.00    -0.001 C 
ATOM     23  C   UNL A   1     -23.989  -4.549  28.853  0.00  0.00    -0.000 C 
ATOM     24  C   UNL A   1     -25.137  -5.280  29.205  0.00  0.00    -0.000 C 
ATOM     25  C   UNL A   1     -26.232  -4.611  29.784  0.00  0.00    -0.000 C 
ATOM     26  C   UNL A   1     -26.155  -3.232  30.065  0.00  0.00    -0.001 C 
ENDBRANCH  20  21
BRANCH  20  27
ATOM     27  C   UNL A   1     -25.387  -0.679  31.571  0.00  0.00    +0.117 C 
ATOM     28  C   UNL A   1     -25.189   0.773  32.028  0.00  0.00    +0.023 C 
ATOM     29  C   UNL A   1     -25.336   0.684  33.544  0.00  0.00    +0.020 C 
ATOM     30  C   UNL A   1     -24.829  -0.715  33.905  0.00  0.00    +0.089 C 
ATOM     31  N   UNL A   1     -24.758  -1.481  32.646  0.00  0.00    -0.216 NA
ENDBRANCH  20  27
ENDBRANCH   1  20
TORSDOF 8
