MODEL 3571
MODEL 1
REMARK VINA RESULT:    -7.121      0.000      0.000
REMARK INTER + INTRA:         -14.201
REMARK INTER:                 -11.699
REMARK INTRA:                  -2.501
REMARK UNBOUND:                -2.501
REMARK  Name = No_3571-gen_results/8p0m/2024-11-27-11-27-31/
REMARK  11 active torsions:
REMARK  status: ('A' for Active; 'I' for Inactive)
REMARK    1  A    between atoms: C_2  and  C_17
REMARK    2  A    between atoms: C_4  and  C_11
REMARK    3  A    between atoms: C_7  and  C_14
REMARK    4  A    between atoms: C_14  and  O_16
REMARK    5  A    between atoms: O_16  and  C_20
REMARK    6  A    between atoms: C_20  and  C_21
REMARK    7  A    between atoms: C_20  and  C_31
REMARK    8  A    between atoms: C_21  and  C_22
REMARK    9  A    between atoms: C_27  and  C_28
REMARK   10  A    between atoms: C_31  and  C_32
REMARK   11  A    between atoms: C_33  and  C_34
REMARK                            x       y       z     vdW  Elec       q    Type
REMARK                         _______ _______ _______ _____ _____    ______ ____
ROOT
ATOM      1  C   UNL A   1      -6.972  -1.066  10.848  0.00  0.00    +0.341 C 
ATOM      2  O   UNL A   1      -7.200  -1.945  10.116  0.00  0.00    -0.245 OA
ENDROOT
BRANCH   1   9
ATOM      3  C   UNL A   1      -7.605   1.081   9.577  0.00  0.00    +0.013 A 
ATOM      4  C   UNL A   1      -8.307   2.062   9.486  0.00  0.00    +0.080 A 
ATOM      5  C   UNL A   1      -9.142   2.510  10.508  0.00  0.00    +0.013 A 
ATOM      6  C   UNL A   1     -10.037   3.683  10.479  0.00  0.00    +0.080 A 
ATOM      7  C   UNL A   1     -10.919   4.095  11.541  0.00  0.00    +0.007 A 
ATOM      8  C   UNL A   1     -10.735   3.416  12.750  0.00  0.00    +0.000 A 
ATOM      9  C   UNL A   1      -7.772   0.223  10.800  0.00  0.00    +0.076 A 
ATOM     10  C   UNL A   1      -8.503   0.632  11.892  0.00  0.00    +0.006 A 
ATOM     11  C   UNL A   1      -9.269   1.780  11.797  0.00  0.00    +0.001 A 
ATOM     12  C   UNL A   1     -10.021   2.243  12.876  0.00  0.00    +0.000 A 
BRANCH   6  13
ATOM     13  C   UNL A   1     -10.111   4.539   9.251  0.00  0.00    +0.388 C 
ATOM     14  O   UNL A   1     -10.940   4.430   8.555  0.00  0.00    -0.241 OA
ATOM     15  O   UNL A   1      -9.330   5.649   9.332  0.00  0.00    -0.241 OA
ENDBRANCH   6  13
BRANCH   4  16
ATOM     16  C   UNL A   1      -8.225   2.899   8.225  0.00  0.00    +0.388 C 
ATOM     17  O   UNL A   1      -8.703   2.975   7.300  0.00  0.00    -0.241 OA
ATOM     18  O   UNL A   1      -7.033   3.659   8.457  0.00  0.00    -0.241 OA
ENDBRANCH   4  16
ENDBRANCH   1   9
BRANCH   1  19
ATOM     19  O   UNL A   1      -6.007  -1.160  11.644  0.00  0.00    -0.449 OA
BRANCH  19  20
ATOM     20  C   UNL A   1      -4.908  -0.631  11.500  0.00  0.00    +0.178 C 
BRANCH  20  21
ATOM     21  C   UNL A   1      -4.589  -0.218  10.248  0.00  0.00    +0.070 C 
BRANCH  21  22
ATOM     22  C   UNL A   1      -3.585  -0.965   9.676  0.00  0.00    -0.012 A 
ATOM     23  C   UNL A   1      -2.586  -1.516  10.421  0.00  0.00    -0.004 A 
ATOM     24  C   UNL A   1      -1.967  -2.328  10.234  0.00  0.00    -0.000 A 
ATOM     25  C   UNL A   1      -1.904  -2.985   8.864  0.00  0.00    +0.000 A 
ATOM     26  C   UNL A   1      -2.930  -2.601   8.002  0.00  0.00    +0.006 A 
ATOM     27  C   UNL A   1      -3.808  -1.613   8.378  0.00  0.00    +0.076 A 
BRANCH  27  28
ATOM     28  C   UNL A   1      -4.791  -1.175   7.434  0.00  0.00    +0.387 C 
ATOM     29  O   UNL A   1      -5.791  -1.813   7.212  0.00  0.00    -0.241 OA
ATOM     30  O   UNL A   1      -4.486  -0.141   6.702  0.00  0.00    -0.241 OA
ENDBRANCH  27  28
ENDBRANCH  21  22
ENDBRANCH  20  21
BRANCH  20  31
ATOM     31  C   UNL A   1      -4.879   0.678  12.408  0.00  0.00    +0.070 C 
BRANCH  31  32
ATOM     32  C   UNL A   1      -4.515   1.866  11.768  0.00  0.00    -0.022 C 
ATOM     33  C   UNL A   1      -5.143   2.925  11.947  0.00  0.00    -0.004 C 
BRANCH  33  34
ATOM     34  C   UNL A   1      -6.051   3.011  12.964  0.00  0.00    -0.000 C 
ATOM     35  C   UNL A   1      -6.895   4.218  13.114  0.00  0.00    -0.000 C 
ENDBRANCH  33  34
ENDBRANCH  31  32
ENDBRANCH  20  31
ENDBRANCH  19  20
ENDBRANCH   1  19
TORSDOF 11
ENDMDL
ENDMDL
