MODEL 3572
MODEL 1
REMARK VINA RESULT:    -5.260      0.000      0.000
REMARK INTER + INTRA:          -7.925
REMARK INTER:                  -7.105
REMARK INTRA:                  -0.819
REMARK UNBOUND:                -0.819
REMARK  Name = No_3572-gen_results/8p0m/2024-11-27-11-27-31/
REMARK  6 active torsions:
REMARK  status: ('A' for Active; 'I' for Inactive)
REMARK    1  A    between atoms: C_1  and  C_2
REMARK    2  A    between atoms: C_1  and  C_6
REMARK    3  A    between atoms: C_2  and  C_4
REMARK    4  A    between atoms: C_4  and  N_5
REMARK    5  A    between atoms: C_4  and  C_8
REMARK    6  A    between atoms: C_8  and  C_10
REMARK                            x       y       z     vdW  Elec       q    Type
REMARK                         _______ _______ _______ _____ _____    ______ ____
ROOT
ATOM      1  C   UNL A   1     -24.189  -1.630  29.557  0.00  0.00    +0.112 C 
ENDROOT
BRANCH   1   2
ATOM      2  N   UNL A   1     -24.406  -1.287  30.780  0.00  0.00    -0.277 N 
ATOM      3  C   UNL A   1     -25.737  -0.984  31.173  0.00  0.00    +0.231 C 
ATOM      4  N   UNL A   1     -25.796  -0.744  32.517  0.00  0.00    -0.205 NA
ATOM      5  C   UNL A   1     -23.514  -1.350  31.820  0.00  0.00    +0.125 C 
ATOM      6  C   UNL A   1     -24.684  -0.651  33.076  0.00  0.00    +0.011 C 
ENDBRANCH   1   2
BRANCH   1   7
ATOM      7  C   UNL A   1     -23.224  -0.874  28.818  0.00  0.00    +0.191 C 
ATOM      8  F   UNL A   1     -22.052  -1.281  28.808  0.00  0.00    -0.235 F 
BRANCH   7   9
ATOM      9  C   UNL A   1     -23.400   0.109  28.136  0.00  0.00    +0.151 C 
BRANCH   9  10
ATOM     10  C   UNL A   1     -22.993   1.444  28.726  0.00  0.00    +0.368 C 
ATOM     11  O   UNL A   1     -22.352   2.166  28.089  0.00  0.00    -0.246 OA
ATOM     12  O   UNL A   1     -23.679   1.961  29.650  0.00  0.00    -0.246 OA
ENDBRANCH   9  10
ENDBRANCH   7   9
ENDBRANCH   1   7
BRANCH   1  13
ATOM     13  C   UNL A   1     -25.130  -2.504  28.936  0.00  0.00    +0.045 C 
BRANCH  13  14
ATOM     14  C   UNL A   1     -25.003  -3.984  29.038  0.00  0.00    -0.042 C 
ATOM     15  C   UNL A   1     -23.931  -4.573  28.438  0.00  0.00    -0.009 C 
ATOM     16  C   UNL A   1     -26.031  -4.774  29.564  0.00  0.00    +0.026 C 
ENDBRANCH  13  14
ENDBRANCH   1  13
TORSDOF 6
ENDMDL
ENDMDL
