REMARK  Name = No_3572-gen_results/8p0m/2024-11-27-11-27-31/
REMARK  6 active torsions:
REMARK  status: ('A' for Active; 'I' for Inactive)
REMARK    1  A    between atoms: C_1  and  C_2
REMARK    2  A    between atoms: C_1  and  C_6
REMARK    3  A    between atoms: C_2  and  C_4
REMARK    4  A    between atoms: C_4  and  N_5
REMARK    5  A    between atoms: C_4  and  C_8
REMARK    6  A    between atoms: C_8  and  C_10
REMARK                            x       y       z     vdW  Elec       q    Type
REMARK                         _______ _______ _______ _____ _____    ______ ____
ROOT
ATOM      1  C   UNL A   1     -25.996  -0.389  27.694  0.00  0.00    +0.112 C 
ENDROOT
BRANCH   1   2
ATOM      2  N   UNL A   1     -25.883   0.379  26.665  0.00  0.00    -0.277 N 
ATOM      3  C   UNL A   1     -24.823   0.136  25.752  0.00  0.00    +0.231 C 
ATOM      4  N   UNL A   1     -24.918   0.973  24.676  0.00  0.00    -0.205 NA
ATOM      5  C   UNL A   1     -26.788   1.318  26.239  0.00  0.00    +0.125 C 
ATOM      6  C   UNL A   1     -25.768   1.879  24.797  0.00  0.00    +0.011 C 
ENDBRANCH   1   2
BRANCH   1   7
ATOM      7  C   UNL A   1     -27.064  -0.119  28.608  0.00  0.00    +0.191 C 
ATOM      8  F   UNL A   1     -27.079   0.985  29.174  0.00  0.00    -0.235 F 
BRANCH   7   9
ATOM      9  C   UNL A   1     -28.016  -0.814  28.878  0.00  0.00    +0.151 C 
BRANCH   9  10
ATOM     10  C   UNL A   1     -28.510  -0.786  30.311  0.00  0.00    +0.368 C 
ATOM     11  O   UNL A   1     -28.900  -1.765  30.788  0.00  0.00    -0.246 OA
ATOM     12  O   UNL A   1     -28.099   0.105  31.103  0.00  0.00    -0.246 OA
ENDBRANCH   9  10
ENDBRANCH   7   9
ENDBRANCH   1   7
BRANCH   1  13
ATOM     13  C   UNL A   1     -24.891  -1.230  28.019  0.00  0.00    +0.045 C 
BRANCH  13  14
ATOM     14  C   UNL A   1     -24.872  -2.045  29.265  0.00  0.00    -0.042 C 
ATOM     15  C   UNL A   1     -23.833  -2.907  29.445  0.00  0.00    -0.009 C 
ATOM     16  C   UNL A   1     -25.965  -2.075  30.139  0.00  0.00    +0.026 C 
ENDBRANCH  13  14
ENDBRANCH   1  13
TORSDOF 6
