REMARK  Name = outputs/IAG933/test6/raw/output_3573_IAG933_linker_design_.xyz
REMARK  16 active torsions:
REMARK  status: ('A' for Active; 'I' for Inactive)
REMARK    1  A    between atoms: C_1  and  C_2
REMARK    2  A    between atoms: C_1  and  C_8
REMARK    3  A    between atoms: C_1  and  N_33
REMARK    4  A    between atoms: C_13  and  C_31
REMARK    5  A    between atoms: C_14  and  C_15
REMARK    6  A    between atoms: C_21  and  O_22
REMARK    7  A    between atoms: O_22  and  C_23
REMARK    8  A    between atoms: C_23  and  C_24
REMARK    9  A    between atoms: C_28  and  N_33
REMARK   10  A    between atoms: C_28  and  C_38
REMARK   11  A    between atoms: C_29  and  O_37
REMARK   12  A    between atoms: O_32  and  C_35
REMARK   13  A    between atoms: O_32  and  C_42
REMARK   14  A    between atoms: N_33  and  C_36
REMARK   15  A    between atoms: C_38  and  C_39
REMARK   16  A    between atoms: C_39  and  C_42
REMARK                            x       y       z     vdW  Elec       q    Type
REMARK                         _______ _______ _______ _____ _____    ______ ____
ROOT
ATOM      1  C   UNL A   1     -23.131   1.688  26.784  0.00  0.00    +0.364 C 
ATOM      2  N   UNL A   1     -22.180   1.259  27.655  0.00  0.00    +0.006 NA
ATOM      3  C   UNL A   1     -24.456   1.267  27.173  0.00  0.00    +0.175 C 
ATOM      4  N   UNL A   1     -22.172  -0.132  29.564  0.00  0.00    +0.217 NA
ATOM      5  C   UNL A   1     -24.336   0.534  28.321  0.00  0.00    +0.132 C 
ATOM      6  C   UNL A   1     -22.893   0.547  28.569  0.00  0.00    +0.428 C 
ENDROOT
BRANCH   3   7
ATOM      7  C   UNL A   1     -25.688   1.614  26.461  0.00  0.00    +0.032 C 
ATOM      8  C   UNL A   1     -26.250   2.920  26.395  0.00  0.00    +0.073 C 
ATOM      9  C   UNL A   1     -27.438   3.091  25.645  0.00  0.00    +0.106 C 
ATOM     10  N   UNL A   1     -28.075   2.089  25.003  0.00  0.00    -0.208 NA
ATOM     11  C   UNL A   1     -27.543   0.849  25.079  0.00  0.00    +0.253 C 
ATOM     12  C   UNL A   1     -26.354   0.576  25.777  0.00  0.00    +0.190 C 
ATOM     13  F   UNL A   1     -25.860  -0.681  25.795  0.00  0.00    -0.200 F 
BRANCH   8  14
ATOM     14  C   UNL A   1     -25.642   4.093  27.123  0.00  0.00    +0.266 C 
ATOM     15  N   UNL A   1     -25.614   5.252  26.449  0.00  0.00    -0.200 NA
ATOM     16  C   UNL A   1     -25.026   6.479  26.963  0.00  0.00    +0.139 C 
ATOM     17  O   UNL A   1     -25.143   3.966  28.243  0.00  0.00    -0.268 OA
ENDBRANCH   8  14
BRANCH  11  18
ATOM     18  O   UNL A   1     -28.193  -0.208  24.477  0.00  0.00    -0.456 OA
BRANCH  18  19
ATOM     19  C   UNL A   1     -29.460   0.005  23.866  0.00  0.00    +0.243 C 
BRANCH  19  20
ATOM     20  C   UNL A   1     -30.065  -1.377  23.573  0.00  0.00    +0.229 C 
ATOM     21  O   UNL A   1     -30.729  -1.878  24.721  0.00  0.00    -0.216 OA
ENDBRANCH  19  20
ENDBRANCH  18  19
ENDBRANCH  11  18
ENDBRANCH   3   7
BRANCH   1  22
ATOM     22  O   UNL A   1     -22.756   2.410  25.683  0.00  0.00    -0.248 OA
ATOM     23  F   UNL A   1     -21.595   2.129  25.036  0.00  0.00    +0.017 F 
ENDBRANCH   1  22
BRANCH   5  24
ATOM     24  N   UNL A   1     -25.404  -0.193  29.060  0.00  0.00    -0.301 N 
BRANCH  24  25
ATOM     25  C   UNL A   1     -24.855  -1.012  30.143  0.00  0.00    +0.111 C 
BRANCH  25  26
ATOM     26  C   UNL A   1     -24.973  -2.505  29.788  0.00  0.00    -0.003 C 
ATOM     27  C   UNL A   1     -23.906  -3.173  29.146  0.00  0.00    -0.003 C 
ATOM     28  C   UNL A   1     -23.989  -4.549  28.853  0.00  0.00    -0.000 C 
ATOM     29  C   UNL A   1     -25.137  -5.280  29.205  0.00  0.00    -0.000 C 
ATOM     30  C   UNL A   1     -26.232  -4.611  29.784  0.00  0.00    -0.000 C 
ATOM     31  C   UNL A   1     -26.155  -3.232  30.065  0.00  0.00    -0.003 C 
ENDBRANCH  25  26
BRANCH  25  32
ATOM     32  C   UNL A   1     -25.387  -0.679  31.571  0.00  0.00    +0.095 C 
ATOM     33  C   UNL A   1     -25.189   0.773  32.028  0.00  0.00    +0.021 C 
ATOM     34  C   UNL A   1     -25.336   0.684  33.544  0.00  0.00    +0.020 C 
ATOM     35  C   UNL A   1     -24.829  -0.715  33.905  0.00  0.00    +0.089 C 
ATOM     36  N   UNL A   1     -24.758  -1.481  32.646  0.00  0.00    -0.217 NA
ENDBRANCH  25  32
ENDBRANCH  24  25
BRANCH  24  37
ATOM     37  C   UNL A   1     -26.676  -0.557  28.510  0.00  0.00    +0.091 C 
BRANCH  37  38
ATOM     38  C   UNL A   1     -27.899  -0.173  29.154  0.00  0.00    +0.024 C 
BRANCH  38  39
ATOM     39  C   UNL A   1     -27.936   1.190  29.780  0.00  0.00    +0.034 C 
BRANCH  39  40
ATOM     40  C   UNL A   1     -29.320   1.824  29.920  0.00  0.00    +0.144 C 
BRANCH  40  41
ATOM     41  O   UNL A   1     -29.625   2.257  31.249  0.00  0.00    -0.335 OA
BRANCH  41  42
ATOM     42  C   UNL A   1     -28.564   3.008  31.844  0.00  0.00    +0.252 C 
ATOM     43  N   UNL A   1     -29.193   4.208  32.376  0.00  0.00    -0.096 NA
ENDBRANCH  41  42
ENDBRANCH  40  41
ENDBRANCH  39  40
ENDBRANCH  38  39
ENDBRANCH  37  38
ENDBRANCH  24  37
ENDBRANCH   5  24
TORSDOF 16
