MODEL 3573
MODEL 1
REMARK VINA RESULT:    -7.074      0.000      0.000
REMARK INTER + INTRA:          -8.356
REMARK INTER:                  -7.901
REMARK INTRA:                  -0.454
REMARK UNBOUND:                -0.454
REMARK  Name = No_3573-gen_results/8p0m/2024-11-27-11-27-31/
REMARK  2 active torsions:
REMARK  status: ('A' for Active; 'I' for Inactive)
REMARK    1  A    between atoms: C_5  and  C_12
REMARK    2  A    between atoms: C_15  and  C_17
REMARK                            x       y       z     vdW  Elec       q    Type
REMARK                         _______ _______ _______ _____ _____    ______ ____
ROOT
ATOM      1  C   UNL A   1     -26.037   1.468  29.061  0.00  0.00    +0.121 C 
ATOM      2  C   UNL A   1     -25.770   0.938  30.114  0.00  0.00    -0.006 A 
ATOM      3  C   UNL A   1     -25.508  -0.386  30.252  0.00  0.00    -0.019 A 
ATOM      4  C   UNL A   1     -25.178  -1.050  31.533  0.00  0.00    +0.002 A 
ATOM      5  C   UNL A   1     -25.112  -0.216  32.697  0.00  0.00    +0.080 A 
ATOM      6  C   UNL A   1     -25.320   1.168  32.501  0.00  0.00    +0.006 A 
ATOM      7  C   UNL A   1     -25.623   1.713  31.280  0.00  0.00    -0.003 A 
ATOM      8  N   UNL A   1     -25.497   0.993  27.870  0.00  0.00    -0.262 N 
ATOM      9  C   UNL A   1     -25.516   1.226  26.775  0.00  0.00    +0.310 C 
ATOM     10 CL   UNL A   1     -26.394   2.564  26.277  0.00  0.00    -0.022 Cl
ATOM     11  O   UNL A   1     -24.723   0.872  25.804  0.00  0.00    -0.257 OA
ATOM     12  C   UNL A   1     -25.490  -1.280  29.118  0.00  0.00    +0.064 C 
ATOM     13  C   UNL A   1     -25.424  -0.531  27.836  0.00  0.00    +0.103 C 
ENDROOT
BRANCH  12  14
ATOM     14  C   UNL A   1     -25.341  -2.662  29.190  0.00  0.00    -0.017 A 
ATOM     15  C   UNL A   1     -26.287  -3.498  29.631  0.00  0.00    -0.004 A 
ATOM     16  C   UNL A   1     -26.141  -4.890  29.664  0.00  0.00    -0.000 A 
ATOM     17  C   UNL A   1     -24.982  -5.452  29.133  0.00  0.00    -0.000 A 
ATOM     18  C   UNL A   1     -24.010  -4.582  28.628  0.00  0.00    -0.000 A 
ATOM     19  C   UNL A   1     -24.166  -3.217  28.627  0.00  0.00    -0.004 A 
ENDBRANCH  12  14
BRANCH   5  20
ATOM     20  C   UNL A   1     -24.781  -0.746  33.993  0.00  0.00    +0.388 C 
ATOM     21  O   UNL A   1     -23.871  -1.444  34.237  0.00  0.00    -0.241 OA
ATOM     22  O   UNL A   1     -25.517  -0.209  34.987  0.00  0.00    -0.241 OA
ENDBRANCH   5  20
TORSDOF 2
ENDMDL
ENDMDL
