MODEL 3574
MODEL 1
REMARK VINA RESULT:    -7.357      0.000      0.000
REMARK INTER + INTRA:          -8.174
REMARK INTER:                  -7.787
REMARK INTRA:                  -0.387
REMARK UNBOUND:                -0.387
REMARK  Name = No_3574-gen_results/8p0m/2024-11-27-11-27-31/
REMARK  1 active torsions:
REMARK  status: ('A' for Active; 'I' for Inactive)
REMARK    1  A    between atoms: C_3  and  C_7
REMARK                            x       y       z     vdW  Elec       q    Type
REMARK                         _______ _______ _______ _____ _____    ______ ____
ROOT
ATOM      1  C   UNL A   1     -31.325 -10.911  10.796  0.00  0.00    -0.016 A 
ATOM      2  C   UNL A   1     -31.548  -9.733  10.948  0.00  0.00    -0.004 A 
ATOM      3  C   UNL A   1     -30.892  -8.726  10.239  0.00  0.00    -0.000 A 
ATOM      4  C   UNL A   1     -29.842  -9.089   9.308  0.00  0.00    +0.000 A 
ATOM      5  C   UNL A   1     -29.604 -10.457   9.179  0.00  0.00    +0.004 A 
ATOM      6  C   UNL A   1     -30.266 -11.342   9.899  0.00  0.00    +0.050 A 
ATOM      7  C   UNL A   1     -29.898 -12.781   9.758  0.00  0.00    +0.249 C 
ATOM      8  N   UNL A   1     -30.144 -13.594  10.638  0.00  0.00    -0.277 N 
ATOM      9  O   UNL A   1     -29.264 -13.150   8.706  0.00  0.00    -0.270 OA
ATOM     10  C   UNL A   1     -29.844 -14.941  10.693  0.00  0.00    +0.094 C 
ATOM     11  C   UNL A   1     -29.836 -15.634  11.554  0.00  0.00    +0.022 C 
ATOM     12  C   UNL A   1     -29.861 -15.056  12.852  0.00  0.00    +0.004 C 
ATOM     13  C   UNL A   1     -30.233 -13.722  13.030  0.00  0.00    +0.020 C 
ATOM     14  C   UNL A   1     -30.519 -13.119  12.009  0.00  0.00    +0.080 C 
ATOM     15  C   UNL A   1     -30.888 -11.648  12.013  0.00  0.00    +0.046 C 
ENDROOT
BRANCH   3  16
ATOM     16  C   UNL A   1     -31.035  -7.243  10.152  0.00  0.00    -0.000 A 
ATOM     17  C   UNL A   1     -30.464  -6.379   9.405  0.00  0.00    -0.000 A 
ATOM     18  C   UNL A   1     -30.714  -4.974   9.458  0.00  0.00    -0.000 A 
ATOM     19  C   UNL A   1     -31.737  -4.427  10.162  0.00  0.00    +0.000 A 
ATOM     20  C   UNL A   1     -32.104  -6.584  11.006  0.00  0.00    -0.000 A 
ATOM     21  C   UNL A   1     -32.371  -5.260  11.012  0.00  0.00    -0.000 A 
ENDBRANCH   3  16
TORSDOF 1
ENDMDL
ENDMDL
