MODEL 3576
MODEL 1
REMARK VINA RESULT:    -6.862      0.000      0.000
REMARK INTER + INTRA:         -13.627
REMARK INTER:                 -10.473
REMARK INTRA:                  -3.154
REMARK UNBOUND:                -3.154
REMARK  Name = No_3576-gen_results/8p0m/2024-11-27-11-27-31/
REMARK  9 active torsions:
REMARK  status: ('A' for Active; 'I' for Inactive)
REMARK    1  A    between atoms: C_1  and  C_2
REMARK    2  A    between atoms: C_1  and  C_8
REMARK    3  A    between atoms: C_5  and  C_10
REMARK    4  A    between atoms: C_8  and  C_9
REMARK    5  A    between atoms: C_13  and  C_14
REMARK    6  A    between atoms: C_14  and  C_15
REMARK    7  A    between atoms: C_15  and  C_16
REMARK    8  A    between atoms: C_15  and  C_22
REMARK    9  A    between atoms: C_23  and  C_24
REMARK                            x       y       z     vdW  Elec       q    Type
REMARK                         _______ _______ _______ _____ _____    ______ ____
ROOT
ATOM      1  C   UNL A   1     -22.619   0.556  28.071  0.00  0.00    -0.030 C 
ATOM      2  C   UNL A   1     -23.216   0.582  29.128  0.00  0.00    -0.030 C 
ENDROOT
BRANCH   1   3
ATOM      3  C   UNL A   1     -22.191   1.832  27.546  0.00  0.00    +0.030 C 
BRANCH   3   4
ATOM      4  C   UNL A   1     -22.567   2.186  26.096  0.00  0.00    +0.031 C 
BRANCH   4   5
ATOM      5  C   UNL A   1     -23.717   1.918  25.835  0.00  0.00    -0.022 A 
ATOM      6  C   UNL A   1     -24.822   2.598  26.316  0.00  0.00    -0.004 A 
ATOM      7  C   UNL A   1     -26.205   2.252  26.087  0.00  0.00    +0.004 A 
ATOM      8  C   UNL A   1     -26.472   1.303  25.630  0.00  0.00    +0.057 A 
ATOM      9  C   UNL A   1     -25.528   0.353  25.001  0.00  0.00    +0.004 A 
ATOM     10  C   UNL A   1     -24.218   0.710  25.201  0.00  0.00    -0.004 A 
BRANCH   8  11
ATOM     11  C   UNL A   1     -27.939   0.790  25.286  0.00  0.00    +0.284 C 
ATOM     12  N   UNL A   1     -28.500   0.978  24.147  0.00  0.00    -0.084 NA
ATOM     13  O   UNL A   1     -28.580   0.209  26.244  0.00  0.00    -0.267 OA
ENDBRANCH   8  11
ENDBRANCH   4   5
ENDBRANCH   3   4
ENDBRANCH   1   3
BRANCH   2  14
ATOM     14  C   UNL A   1     -23.573  -0.780  29.630  0.00  0.00    +0.034 C 
BRANCH  14  15
ATOM     15  C   UNL A   1     -24.889  -1.234  29.342  0.00  0.00    +0.049 C 
BRANCH  15  16
ATOM     16  C   UNL A   1     -25.000  -2.611  29.388  0.00  0.00    -0.018 A 
ATOM     17  C   UNL A   1     -23.936  -3.205  28.665  0.00  0.00    -0.004 A 
ATOM     18  C   UNL A   1     -23.952  -4.612  28.553  0.00  0.00    -0.000 A 
ATOM     19  C   UNL A   1     -25.095  -5.389  29.023  0.00  0.00    -0.000 A 
ATOM     20  C   UNL A   1     -26.109  -4.703  29.616  0.00  0.00    -0.000 A 
ATOM     21  C   UNL A   1     -26.073  -3.335  29.743  0.00  0.00    -0.004 A 
ENDBRANCH  15  16
BRANCH  15  22
ATOM     22  C   UNL A   1     -25.897  -0.327  28.939  0.00  0.00    -0.022 C 
ATOM     23  C   UNL A   1     -26.486   0.367  29.824  0.00  0.00    -0.005 C 
BRANCH  23  24
ATOM     24  C   UNL A   1     -27.514   1.303  29.431  0.00  0.00    -0.005 C 
ATOM     25  C   UNL A   1     -27.201   2.668  29.502  0.00  0.00    -0.026 C 
ATOM     26  C   UNL A   1     -25.967   3.132  29.879  0.00  0.00    +0.031 C 
ENDBRANCH  23  24
ENDBRANCH  15  22
ENDBRANCH  14  15
ENDBRANCH   2  14
TORSDOF 9
ENDMDL
ENDMDL
