MODEL 3577
MODEL 1
REMARK VINA RESULT:    -5.470      0.000      0.000
REMARK INTER + INTRA:          -7.207
REMARK INTER:                  -6.750
REMARK INTRA:                  -0.457
REMARK UNBOUND:                -0.457
REMARK  Name = No_3577-gen_results/8p0m/2024-11-27-11-27-31/
REMARK  4 active torsions:
REMARK  status: ('A' for Active; 'I' for Inactive)
REMARK    1  A    between atoms: C_1  and  N_8
REMARK    2  A    between atoms: C_5  and  C_11
REMARK    3  A    between atoms: N_8  and  C_10
REMARK    4  A    between atoms: C_10  and  C_14
REMARK                            x       y       z     vdW  Elec       q    Type
REMARK                         _______ _______ _______ _____ _____    ______ ____
ROOT
ATOM      1  C   UNL A   1     -30.112 -10.747  29.033  0.00  0.00    +0.053 C 
ATOM      2  C   UNL A   1     -29.569 -10.944  30.096  0.00  0.00    -0.030 C 
ATOM      3  C   UNL A   1     -28.506 -11.829  30.266  0.00  0.00    +0.024 C 
ATOM      4  C   UNL A   1     -27.795 -12.138  31.522  0.00  0.00    +0.016 C 
ATOM      5  C   UNL A   1     -28.099 -11.293  32.632  0.00  0.00    +0.104 C 
ATOM      6  C   UNL A   1     -29.130 -10.358  32.491  0.00  0.00    +0.016 C 
ATOM      7  C   UNL A   1     -29.807 -10.172  31.336  0.00  0.00    +0.024 C 
ENDROOT
BRANCH   5   8
ATOM      8  C   UNL A   1     -27.396 -11.580  33.878  0.00  0.00    +0.364 C 
ATOM      9  O   UNL A   1     -26.892 -12.707  33.985  0.00  0.00    -0.246 OA
ATOM     10  O   UNL A   1     -27.188 -10.718  34.811  0.00  0.00    -0.246 OA
ENDBRANCH   5   8
BRANCH   1  11
ATOM     11  N   UNL A   1     -31.462 -10.558  29.088  0.00  0.00    -0.301 N 
ATOM     12  C   UNL A   1     -32.315 -11.562  29.165  0.00  0.00    +0.113 C 
BRANCH  11  13
ATOM     13  C   UNL A   1     -31.881  -9.484  28.142  0.00  0.00    +0.117 C 
BRANCH  13  14
ATOM     14  C   UNL A   1     -31.552  -8.120  28.587  0.00  0.00    -0.009 C 
ATOM     15  C   UNL A   1     -31.479  -7.253  27.819  0.00  0.00    -0.029 C 
ATOM     16  C   UNL A   1     -31.109  -5.897  28.253  0.00  0.00    +0.030 C 
ENDBRANCH  13  14
ENDBRANCH  11  13
ENDBRANCH   1  11
TORSDOF 4
ENDMDL
ENDMDL
