REMARK  Name = No_3578-gen_results/8p0m/2024-11-27-11-27-31/
REMARK  4 active torsions:
REMARK  status: ('A' for Active; 'I' for Inactive)
REMARK    1  A    between atoms: C_4  and  C_7
REMARK    2  A    between atoms: C_7  and  C_8
REMARK    3  A    between atoms: C_8  and  C_9
REMARK    4  A    between atoms: C_9  and  C_10
REMARK                            x       y       z     vdW  Elec       q    Type
REMARK                         _______ _______ _______ _____ _____    ______ ____
ROOT
ATOM      1  C   UNL A   1     -23.817   0.476  29.912  0.00  0.00    +0.009 C 
ENDROOT
BRANCH   1   2
ATOM      2  C   UNL A   1     -24.389  -0.805  30.164  0.00  0.00    +0.027 C 
BRANCH   2   6
ATOM      3  C   UNL A   1     -28.016  -0.814  28.878  0.00  0.00    -0.000 A 
ATOM      4  C   UNL A   1     -28.469  -0.785  29.829  0.00  0.00    -0.000 A 
ATOM      5  C   UNL A   1     -26.504  -0.778  28.877  0.00  0.00    -0.004 A 
ATOM      6  C   UNL A   1     -25.810  -0.853  30.103  0.00  0.00    -0.022 A 
ATOM      7  C   UNL A   1     -27.991  -0.892  31.226  0.00  0.00    -0.000 A 
ATOM      8  C   UNL A   1     -26.604  -0.868  31.265  0.00  0.00    -0.004 A 
ENDBRANCH   2   6
ENDBRANCH   1   2
BRANCH   1   9
ATOM      9  C   UNL A   1     -23.248   0.822  28.723  0.00  0.00    +0.027 C 
BRANCH   9  10
ATOM     10  C   UNL A   1     -23.783   1.186  27.666  0.00  0.00    -0.022 A 
ATOM     11  C   UNL A   1     -23.502   1.926  26.807  0.00  0.00    -0.004 A 
ATOM     12  C   UNL A   1     -24.291   2.493  25.726  0.00  0.00    -0.000 A 
ATOM     13  C   UNL A   1     -25.620   2.136  25.767  0.00  0.00    -0.000 A 
ATOM     14  C   UNL A   1     -26.058   1.255  26.656  0.00  0.00    -0.000 A 
ATOM     15  C   UNL A   1     -25.166   0.772  27.672  0.00  0.00    -0.004 A 
ENDBRANCH   9  10
ENDBRANCH   1   9
TORSDOF 4
