MODEL 3578
MODEL 1
REMARK VINA RESULT:    -6.692      0.000      0.000
REMARK INTER + INTRA:          -8.820
REMARK INTER:                  -8.256
REMARK INTRA:                  -0.563
REMARK UNBOUND:                -0.563
REMARK  Name = No_3578-gen_results/8p0m/2024-11-27-11-27-31/
REMARK  4 active torsions:
REMARK  status: ('A' for Active; 'I' for Inactive)
REMARK    1  A    between atoms: C_4  and  C_7
REMARK    2  A    between atoms: C_7  and  C_8
REMARK    3  A    between atoms: C_8  and  C_9
REMARK    4  A    between atoms: C_9  and  C_10
REMARK                            x       y       z     vdW  Elec       q    Type
REMARK                         _______ _______ _______ _____ _____    ______ ____
ROOT
ATOM      1  C   UNL A   1     -23.022  -0.852  29.530  0.00  0.00    +0.009 C 
ENDROOT
BRANCH   1   2
ATOM      2  C   UNL A   1     -24.308  -1.251  29.999  0.00  0.00    +0.027 C 
BRANCH   2   6
ATOM      3  C   UNL A   1     -26.273  -4.542  29.664  0.00  0.00    -0.000 A 
ATOM      4  C   UNL A   1     -25.510  -5.075  29.170  0.00  0.00    -0.000 A 
ATOM      5  C   UNL A   1     -25.923  -3.126  30.063  0.00  0.00    -0.004 A 
ATOM      6  C   UNL A   1     -24.698  -2.571  29.638  0.00  0.00    -0.022 A 
ATOM      7  C   UNL A   1     -24.192  -4.731  28.591  0.00  0.00    -0.000 A 
ATOM      8  C   UNL A   1     -23.838  -3.433  28.932  0.00  0.00    -0.004 A 
ENDBRANCH   2   6
ENDBRANCH   1   2
BRANCH   1   9
ATOM      9  C   UNL A   1     -22.798   0.310  28.855  0.00  0.00    +0.027 C 
BRANCH   9  10
ATOM     10  C   UNL A   1     -23.323   0.735  27.815  0.00  0.00    -0.022 A 
ATOM     11  C   UNL A   1     -24.185   0.374  27.114  0.00  0.00    -0.004 A 
ATOM     12  C   UNL A   1     -24.577   0.786  25.777  0.00  0.00    -0.000 A 
ATOM     13  C   UNL A   1     -23.740   1.728  25.222  0.00  0.00    -0.000 A 
ATOM     14  C   UNL A   1     -22.758   2.265  25.933  0.00  0.00    -0.000 A 
ATOM     15  C   UNL A   1     -22.481   1.762  27.249  0.00  0.00    -0.004 A 
ENDBRANCH   9  10
ENDBRANCH   1   9
TORSDOF 4
ENDMDL
ENDMDL
