REMARK  Name = No_3579-gen_results/8p0m/2024-11-27-11-27-31/
REMARK  4 active torsions:
REMARK  status: ('A' for Active; 'I' for Inactive)
REMARK    1  A    between atoms: C_2  and  N_22
REMARK    2  A    between atoms: C_3  and  C_7
REMARK    3  A    between atoms: C_8  and  C_13
REMARK    4  A    between atoms: N_14  and  C_15
REMARK                            x       y       z     vdW  Elec       q    Type
REMARK                         _______ _______ _______ _____ _____    ______ ____
ROOT
ATOM      1  C   UNL A   1     -24.544   0.413  28.738  0.00  0.00    +0.006 A 
ATOM      2  C   UNL A   1     -24.095   1.379  29.575  0.00  0.00    +0.055 A 
ATOM      3  C   UNL A   1     -22.978   2.145  29.257  0.00  0.00    +0.005 A 
ATOM      4  C   UNL A   1     -22.250   1.909  28.053  0.00  0.00    +0.000 A 
ATOM      5  C   UNL A   1     -23.784   0.275  27.546  0.00  0.00    +0.000 A 
ATOM      6  C   UNL A   1     -22.725   0.995  27.263  0.00  0.00    +0.000 A 
ENDROOT
BRANCH   1   9
ATOM      7  C   UNL A   1     -28.016  -0.814  28.878  0.00  0.00    +0.015 A 
ATOM      8  C   UNL A   1     -27.064  -0.119  28.608  0.00  0.00    +0.053 A 
ATOM      9  C   UNL A   1     -25.765  -0.390  29.036  0.00  0.00    +0.014 A 
ATOM     10  C   UNL A   1     -25.530  -1.530  29.901  0.00  0.00    +0.001 A 
ATOM     11  C   UNL A   1     -26.658  -2.292  30.203  0.00  0.00    +0.000 A 
ATOM     12  C   UNL A   1     -27.855  -1.956  29.763  0.00  0.00    +0.001 A 
BRANCH   8  13
ATOM     13  N   UNL A   1     -27.196   1.001  27.755  0.00  0.00    -0.267 N 
ATOM     14  C   UNL A   1     -27.368   1.852  27.117  0.00  0.00    +0.191 C 
ATOM     15  N   UNL A   1     -26.730   2.018  26.071  0.00  0.00    -0.128 NA
ATOM     16  C   UNL A   1     -26.975   0.418  26.760  0.00  0.00    +0.119 C 
ENDBRANCH   8  13
ENDBRANCH   1   9
BRANCH   2  17
ATOM     17  C   UNL A   1     -24.771   1.622  30.907  0.00  0.00    +0.269 C 
ATOM     18  N   UNL A   1     -25.016   2.839  31.348  0.00  0.00    -0.175 NA
ATOM     19  O   UNL A   1     -25.278   0.663  31.509  0.00  0.00    -0.268 OA
BRANCH  18  20
ATOM     20  C   UNL A   1     -25.711   3.120  32.449  0.00  0.00    +0.074 A 
ATOM     21  C   UNL A   1     -25.726   4.489  32.823  0.00  0.00    +0.017 A 
ATOM     22  C   UNL A   1     -26.341   5.023  33.812  0.00  0.00    +0.001 A 
ATOM     23  C   UNL A   1     -27.193   4.117  34.612  0.00  0.00    +0.000 A 
ATOM     24  C   UNL A   1     -27.198   2.784  34.273  0.00  0.00    +0.001 A 
ATOM     25  C   UNL A   1     -26.469   2.303  33.217  0.00  0.00    +0.017 A 
ENDBRANCH  18  20
ENDBRANCH   2  17
TORSDOF 4
