MODEL 3579
MODEL 1
REMARK VINA RESULT:    -6.973      0.000      0.000
REMARK INTER + INTRA:          -9.929
REMARK INTER:                  -8.603
REMARK INTRA:                  -1.326
REMARK UNBOUND:                -1.326
REMARK  Name = No_3579-gen_results/8p0m/2024-11-27-11-27-31/
REMARK  4 active torsions:
REMARK  status: ('A' for Active; 'I' for Inactive)
REMARK    1  A    between atoms: C_2  and  N_22
REMARK    2  A    between atoms: C_3  and  C_7
REMARK    3  A    between atoms: C_8  and  C_13
REMARK    4  A    between atoms: N_14  and  C_15
REMARK                            x       y       z     vdW  Elec       q    Type
REMARK                         _______ _______ _______ _____ _____    ______ ____
ROOT
ATOM      1  C   UNL A   1     -24.435  -2.190  29.017  0.00  0.00    +0.006 A 
ATOM      2  C   UNL A   1     -25.451  -2.069  29.904  0.00  0.00    +0.055 A 
ATOM      3  C   UNL A   1     -26.245  -3.160  30.243  0.00  0.00    +0.005 A 
ATOM      4  C   UNL A   1     -26.033  -4.434  29.636  0.00  0.00    +0.000 A 
ATOM      5  C   UNL A   1     -24.270  -3.501  28.494  0.00  0.00    +0.000 A 
ATOM      6  C   UNL A   1     -25.033  -4.519  28.812  0.00  0.00    +0.000 A 
ENDROOT
BRANCH   1   9
ATOM      7  C   UNL A   1     -23.026   0.853  27.491  0.00  0.00    +0.015 A 
ATOM      8  C   UNL A   1     -23.788  -0.056  27.722  0.00  0.00    +0.053 A 
ATOM      9  C   UNL A   1     -23.542  -1.046  28.672  0.00  0.00    +0.014 A 
ATOM     10  C   UNL A   1     -22.283  -1.036  29.392  0.00  0.00    +0.001 A 
ATOM     11  C   UNL A   1     -21.426   0.018  29.081  0.00  0.00    +0.000 A 
ATOM     12  C   UNL A   1     -21.735   0.908  28.157  0.00  0.00    +0.001 A 
BRANCH   8  13
ATOM     13  N   UNL A   1     -25.046  -0.135  27.081  0.00  0.00    -0.267 N 
ATOM     14  C   UNL A   1     -25.971  -0.225  26.536  0.00  0.00    +0.191 C 
ATOM     15  N   UNL A   1     -26.844   0.650  26.591  0.00  0.00    -0.128 NA
ATOM     16  C   UNL A   1     -25.148   1.017  26.879  0.00  0.00    +0.119 C 
ENDBRANCH   8  13
ENDBRANCH   1   9
BRANCH   2  17
ATOM     17  C   UNL A   1     -25.783  -0.727  30.519  0.00  0.00    +0.269 C 
ATOM     18  N   UNL A   1     -25.029  -0.187  31.454  0.00  0.00    -0.175 NA
ATOM     19  O   UNL A   1     -26.671  -0.031  30.002  0.00  0.00    -0.268 OA
BRANCH  18  20
ATOM     20  C   UNL A   1     -25.196   1.038  31.949  0.00  0.00    +0.074 A 
ATOM     21  C   UNL A   1     -26.014   1.117  33.106  0.00  0.00    +0.017 A 
ATOM     22  C   UNL A   1     -26.304   2.162  33.789  0.00  0.00    +0.001 A 
ATOM     23  C   UNL A   1     -25.649   3.418  33.364  0.00  0.00    +0.000 A 
ATOM     24  C   UNL A   1     -24.851   3.371  32.245  0.00  0.00    +0.001 A 
ATOM     25  C   UNL A   1     -24.637   2.206  31.556  0.00  0.00    +0.017 A 
ENDBRANCH  18  20
ENDBRANCH   2  17
TORSDOF 4
ENDMDL
ENDMDL
