MODEL 357
MODEL 1
REMARK VINA RESULT:    -7.224      0.000      0.000
REMARK INTER + INTRA:          -8.789
REMARK INTER:                  -8.069
REMARK INTRA:                  -0.720
REMARK UNBOUND:                -0.720
REMARK  Name = No_357-gen_results/8p0m/2024-11-27-11-27-31/
REMARK  2 active torsions:
REMARK  status: ('A' for Active; 'I' for Inactive)
REMARK    1  A    between atoms: C_1  and  C_2
REMARK    2  A    between atoms: C_1  and  C_3
REMARK                            x       y       z     vdW  Elec       q    Type
REMARK                         _______ _______ _______ _____ _____    ______ ____
ROOT
ATOM      1  C   UNL A   1     -23.143  -0.135  30.607  0.00  0.00    -0.023 C 
ATOM      2  C   UNL A   1     -23.154   0.839  29.399  0.00  0.00    +0.030 C 
ATOM      3  C   UNL A   1     -23.825   1.677  29.103  0.00  0.00    +0.058 C 
ATOM      4  C   UNL A   1     -23.747   2.376  27.845  0.00  0.00    +0.016 A 
ATOM      5  C   UNL A   1     -24.584   3.133  27.275  0.00  0.00    -0.001 A 
ATOM      6  C   UNL A   1     -24.519   3.550  25.984  0.00  0.00    -0.000 A 
ATOM      7  C   UNL A   1     -23.434   3.146  25.200  0.00  0.00    +0.003 A 
ATOM      8  C   UNL A   1     -22.509   2.273  25.724  0.00  0.00    +0.037 A 
ATOM      9  C   UNL A   1     -22.694   1.817  27.042  0.00  0.00    +0.138 A 
ATOM     10  O   UNL A   1     -21.887   0.975  27.538  0.00  0.00    -0.447 OA
ATOM     11  C   UNL A   1     -22.097   0.396  28.593  0.00  0.00    +0.347 C 
ATOM     12  F   UNL A   1     -21.373  -0.645  28.953  0.00  0.00    -0.184 F 
ENDROOT
BRANCH   1  13
ATOM     13  C   UNL A   1     -22.962  -1.148  30.381  0.00  0.00    +0.052 C 
BRANCH  13  14
ATOM     14  C   UNL A   1     -24.175  -1.903  30.063  0.00  0.00    -0.018 A 
ATOM     15  C   UNL A   1     -24.106  -3.022  29.556  0.00  0.00    -0.004 A 
ATOM     16  C   UNL A   1     -25.201  -3.930  29.401  0.00  0.00    -0.005 A 
ATOM     17  C   UNL A   1     -26.438  -3.595  30.008  0.00  0.00    -0.022 A 
ATOM     18  C   UNL A   1     -27.549  -4.484  29.892  0.00  0.00    +0.031 C 
ATOM     19  C   UNL A   1     -26.514  -2.384  30.723  0.00  0.00    -0.005 A 
ATOM     20  C   UNL A   1     -25.394  -1.623  30.868  0.00  0.00    -0.004 A 
ENDBRANCH  13  14
ENDBRANCH   1  13
TORSDOF 2
ENDMDL
ENDMDL
