MODEL 3580
MODEL 1
REMARK VINA RESULT:    -6.545      0.000      0.000
REMARK INTER + INTRA:          -6.545
REMARK INTER:                  -6.545
REMARK INTRA:                   0.000
REMARK UNBOUND:                 0.000
REMARK  Name = No_3580-gen_results/8p0m/2024-11-27-11-27-31/
REMARK  0 active torsions:
REMARK  status: ('A' for Active; 'I' for Inactive)
REMARK                            x       y       z     vdW  Elec       q    Type
REMARK                         _______ _______ _______ _____ _____    ______ ____
ROOT
ATOM      1  C   UNL A   1     -23.855  -4.138  28.576  0.00  0.00    -0.000 A 
ATOM      2  C   UNL A   1     -24.444  -4.990  28.769  0.00  0.00    -0.000 A 
ATOM      3  C   UNL A   1     -24.482  -2.886  29.001  0.00  0.00    -0.000 A 
ATOM      4  C   UNL A   1     -25.712  -2.855  29.610  0.00  0.00    +0.000 A 
ATOM      5  C   UNL A   1     -25.744  -5.255  29.385  0.00  0.00    +0.000 A 
ATOM      6  C   UNL A   1     -26.358  -4.049  29.800  0.00  0.00    +0.000 A 
ATOM      7  C   UNL A   1     -23.778  -1.575  28.856  0.00  0.00    -0.004 A 
ATOM      8  C   UNL A   1     -24.448  -0.454  29.404  0.00  0.00    -0.015 A 
ATOM      9  C   UNL A   1     -25.729  -0.525  29.972  0.00  0.00    +0.035 A 
ATOM     10  C   UNL A   1     -26.335  -1.647  30.088  0.00  0.00    +0.003 A 
ATOM     11  C   UNL A   1     -23.779   0.909  29.282  0.00  0.00    +0.052 C 
ATOM     12  C   UNL A   1     -23.488   1.542  30.289  0.00  0.00    -0.021 C 
ATOM     13  C   UNL A   1     -24.225   1.705  31.429  0.00  0.00    -0.001 C 
ATOM     14  C   UNL A   1     -25.233   0.834  31.946  0.00  0.00    +0.042 C 
ATOM     15  C   UNL A   1     -25.839  -0.130  31.196  0.00  0.00    +0.195 C 
ATOM     16  O   UNL A   1     -26.994  -0.595  31.920  0.00  0.00    -0.287 OA
ENDROOT
TORSDOF 0
ENDMDL
ENDMDL
