MODEL 3581
MODEL 1
REMARK VINA RESULT:    -4.653      0.000      0.000
REMARK INTER + INTRA:          -4.943
REMARK INTER:                  -4.924
REMARK INTRA:                  -0.019
REMARK UNBOUND:                -0.019
REMARK  Name = No_3581-gen_results/8p0m/2024-11-27-11-27-31/
REMARK  1 active torsions:
REMARK  status: ('A' for Active; 'I' for Inactive)
REMARK    1  A    between atoms: C_5  and  C_6
REMARK                            x       y       z     vdW  Elec       q    Type
REMARK                         _______ _______ _______ _____ _____    ______ ____
ROOT
ATOM      1  C   UNL A   1     -24.654  -5.121  28.933  0.00  0.00    +0.000 A 
ATOM      2  C   UNL A   1     -25.783  -5.015  29.354  0.00  0.00    +0.000 A 
ATOM      3  C   UNL A   1     -26.296  -3.844  29.877  0.00  0.00    +0.000 A 
ATOM      4  C   UNL A   1     -25.460  -2.692  29.881  0.00  0.00    +0.002 A 
ATOM      5  C   UNL A   1     -24.272  -2.817  29.245  0.00  0.00    +0.021 A 
ATOM      6  C   UNL A   1     -23.906  -3.992  28.751  0.00  0.00    +0.002 A 
ENDROOT
BRANCH   5   7
ATOM      7  C   UNL A   1     -23.495  -1.649  29.171  0.00  0.00    +0.122 C 
ATOM      8  N   UNL A   1     -22.359  -1.586  29.014  0.00  0.00    -0.146 NA
ENDBRANCH   5   7
TORSDOF 1
ENDMDL
ENDMDL
