REMARK  Name = No_3581-gen_results/8p0m/2024-11-27-11-27-31/
REMARK  1 active torsions:
REMARK  status: ('A' for Active; 'I' for Inactive)
REMARK    1  A    between atoms: C_5  and  C_6
REMARK                            x       y       z     vdW  Elec       q    Type
REMARK                         _______ _______ _______ _____ _____    ______ ____
ROOT
ATOM      1  C   UNL A   1     -28.016  -0.814  28.878  0.00  0.00    +0.000 A 
ATOM      2  C   UNL A   1     -27.064  -0.119  28.608  0.00  0.00    +0.000 A 
ATOM      3  C   UNL A   1     -27.001   0.691  27.491  0.00  0.00    +0.000 A 
ATOM      4  C   UNL A   1     -28.137   0.736  26.635  0.00  0.00    +0.002 A 
ATOM      5  C   UNL A   1     -29.236   0.076  27.069  0.00  0.00    +0.021 A 
ATOM      6  C   UNL A   1     -29.180  -0.642  28.183  0.00  0.00    +0.002 A 
ENDROOT
BRANCH   5   7
ATOM      7  C   UNL A   1     -30.381   0.205  26.266  0.00  0.00    +0.122 C 
ATOM      8  N   UNL A   1     -30.964   1.170  26.047  0.00  0.00    -0.146 NA
ENDBRANCH   5   7
TORSDOF 1
