MODEL 3582
MODEL 1
REMARK VINA RESULT:    -8.135      0.000      0.000
REMARK INTER + INTRA:         -13.222
REMARK INTER:                 -10.513
REMARK INTRA:                  -2.709
REMARK UNBOUND:                -2.709
REMARK  Name = No_3582-gen_results/8p0m/2024-11-27-11-27-31/
REMARK  5 active torsions:
REMARK  status: ('A' for Active; 'I' for Inactive)
REMARK    1  A    between atoms: C_3  and  C_7
REMARK    2  A    between atoms: C_8  and  C_13
REMARK    3  A    between atoms: C_13  and  C_15
REMARK    4  A    between atoms: N_14  and  C_22
REMARK    5  A    between atoms: C_15  and  C_16
REMARK                            x       y       z     vdW  Elec       q    Type
REMARK                         _______ _______ _______ _____ _____    ______ ____
ROOT
ATOM      1  C   UNL A   1     -23.134  -1.002  29.397  0.00  0.00    +0.096 C 
ATOM      2  N   UNL A   1     -23.581  -2.088  29.039  0.00  0.00    -0.247 NA
ENDROOT
BRANCH   1   4
ATOM      3  C   UNL A   1     -23.280   0.833  27.711  0.00  0.00    +0.001 A 
ATOM      4  C   UNL A   1     -22.516   0.070  28.541  0.00  0.00    +0.017 A 
ATOM      5  C   UNL A   1     -21.135   0.230  28.583  0.00  0.00    +0.001 A 
ATOM      6  C   UNL A   1     -20.486   1.170  27.736  0.00  0.00    +0.000 A 
ATOM      7  C   UNL A   1     -21.248   1.947  26.943  0.00  0.00    +0.000 A 
ATOM      8  C   UNL A   1     -22.611   1.810  26.910  0.00  0.00    +0.000 A 
BRANCH   3  11
ATOM      9  C   UNL A   1     -26.856   1.125  28.524  0.00  0.00    +0.030 A 
ATOM     10  C   UNL A   1     -25.656   1.241  28.610  0.00  0.00    +0.002 A 
ATOM     11  C   UNL A   1     -24.761   0.720  27.676  0.00  0.00    +0.000 A 
ATOM     12  C   UNL A   1     -25.275  -0.056  26.564  0.00  0.00    +0.002 A 
ATOM     13  C   UNL A   1     -26.684  -0.157  26.534  0.00  0.00    +0.030 A 
ATOM     14  C   UNL A   1     -27.445   0.363  27.463  0.00  0.00    +0.140 A 
ATOM     15  F   UNL A   1     -28.766   0.192  27.418  0.00  0.00    -0.204 F 
ENDBRANCH   3  11
ENDBRANCH   1   4
BRANCH   2  16
ATOM     16  C   UNL A   1     -24.419  -3.015  29.393  0.00  0.00    +0.081 A 
ATOM     17  C   UNL A   1     -25.667  -2.583  29.921  0.00  0.00    +0.019 A 
ATOM     18  C   UNL A   1     -24.259  -4.401  29.163  0.00  0.00    +0.019 A 
ATOM     19  C   UNL A   1     -26.601  -3.035  29.908  0.00  0.00    +0.002 A 
ATOM     20  C   UNL A   1     -25.399  -5.213  29.378  0.00  0.00    +0.002 A 
ATOM     21  C   UNL A   1     -26.594  -4.617  29.758  0.00  0.00    +0.000 A 
ENDBRANCH   2  16
BRANCH   1  22
ATOM     22  C   UNL A   1     -23.228  -0.648  30.818  0.00  0.00    +0.223 C 
ATOM     23  F   UNL A   1     -22.615  -1.509  31.683  0.00  0.00    -0.226 F 
BRANCH  22  24
ATOM     24  C   UNL A   1     -23.996   0.299  31.419  0.00  0.00    +0.016 A 
ATOM     25  C   UNL A   1     -23.807   1.633  31.232  0.00  0.00    -0.001 A 
ATOM     26  C   UNL A   1     -24.618   2.623  31.889  0.00  0.00    -0.000 A 
ATOM     27  C   UNL A   1     -25.618   2.105  32.763  0.00  0.00    -0.000 A 
ATOM     28  C   UNL A   1     -25.817   0.768  32.942  0.00  0.00    -0.000 A 
ATOM     29  C   UNL A   1     -25.009  -0.091  32.302  0.00  0.00    -0.001 A 
ENDBRANCH  22  24
ENDBRANCH   1  22
TORSDOF 5
ENDMDL
ENDMDL
