MODEL 3583
MODEL 1
REMARK VINA RESULT:    -5.997      0.000      0.000
REMARK INTER + INTRA:         -16.963
REMARK INTER:                  -9.152
REMARK INTRA:                  -7.810
REMARK UNBOUND:                -7.810
REMARK  Name = No_3583-gen_results/8p0m/2024-11-27-11-27-31/
REMARK  9 active torsions:
REMARK  status: ('A' for Active; 'I' for Inactive)
REMARK    1  A    between atoms: C_3  and  C_7
REMARK    2  A    between atoms: C_6  and  C_28
REMARK    3  A    between atoms: C_7  and  C_8
REMARK    4  A    between atoms: C_9  and  C_10
REMARK    5  A    between atoms: C_14  and  C_18
REMARK    6  A    between atoms: C_18  and  C_19
REMARK    7  A    between atoms: C_20  and  C_21
REMARK    8  A    between atoms: C_21  and  C_22
REMARK    9  A    between atoms: C_24  and  C_34
REMARK                            x       y       z     vdW  Elec       q    Type
REMARK                         _______ _______ _______ _____ _____    ______ ____
ROOT
ATOM      1  C   UNL A   1     -24.580  -2.380  28.848  0.00  0.00    -0.005 A 
ATOM      2  C   UNL A   1     -23.936  -3.662  28.658  0.00  0.00    -0.000 A 
ATOM      3  C   UNL A   1     -24.592  -4.856  28.931  0.00  0.00    -0.000 A 
ATOM      4  C   UNL A   1     -25.877  -4.808  29.500  0.00  0.00    -0.004 A 
ATOM      5  C   UNL A   1     -26.406  -3.552  29.834  0.00  0.00    -0.018 A 
ATOM      6  C   UNL A   1     -25.712  -2.390  29.606  0.00  0.00    -0.004 A 
ENDROOT
BRANCH   1   8
ATOM      7  C   UNL A   1     -23.922  -0.282  27.969  0.00  0.00    -0.043 C 
ATOM      8  C   UNL A   1     -23.804  -1.130  28.726  0.00  0.00    -0.029 C 
ATOM      9  C   UNL A   1     -22.621  -1.114  29.738  0.00  0.00    +0.030 C 
ATOM     10  C   UNL A   1     -23.028   0.893  27.792  0.00  0.00    +0.026 C 
BRANCH   7  11
ATOM     11  C   UNL A   1     -24.867  -0.315  26.856  0.00  0.00    +0.048 C 
BRANCH  11  14
ATOM     12  C   UNL A   1     -26.034   1.691  26.128  0.00  0.00    -0.004 A 
ATOM     13  C   UNL A   1     -26.885   2.314  26.129  0.00  0.00    -0.000 A 
ATOM     14  C   UNL A   1     -26.036   0.572  26.989  0.00  0.00    -0.018 A 
ATOM     15  C   UNL A   1     -27.102   0.292  27.822  0.00  0.00    -0.004 A 
ATOM     16  C   UNL A   1     -28.139   2.240  26.904  0.00  0.00    -0.000 A 
ATOM     17  C   UNL A   1     -28.181   1.182  27.744  0.00  0.00    -0.000 A 
BRANCH  17  18
ATOM     18  C   UNL A   1     -29.390   0.926  28.609  0.00  0.00    -0.000 A 
ATOM     19  C   UNL A   1     -29.932  -0.004  28.751  0.00  0.00    -0.000 A 
ATOM     20  C   UNL A   1     -31.157  -0.226  29.582  0.00  0.00    -0.000 A 
ATOM     21  C   UNL A   1     -31.589   0.893  30.315  0.00  0.00    +0.000 A 
ATOM     22  C   UNL A   1     -30.868   2.087  30.224  0.00  0.00    -0.000 A 
ATOM     23  C   UNL A   1     -29.732   2.173  29.398  0.00  0.00    -0.000 A 
ENDBRANCH  17  18
ENDBRANCH  11  14
ENDBRANCH   7  11
ENDBRANCH   1   8
BRANCH   5  24
ATOM     24  C   UNL A   1     -27.744  -3.475  30.452  0.00  0.00    +0.052 C 
BRANCH  24  25
ATOM     25  C   UNL A   1     -28.166  -2.224  30.693  0.00  0.00    -0.026 C 
ATOM     26  C   UNL A   1     -28.234  -1.728  32.044  0.00  0.00    -0.026 C 
BRANCH  26  27
ATOM     27  C   UNL A   1     -28.332  -0.269  32.211  0.00  0.00    +0.052 C 
BRANCH  27  28
ATOM     28  C   UNL A   1     -27.054   0.474  32.238  0.00  0.00    -0.018 A 
ATOM     29  C   UNL A   1     -26.862   1.507  31.247  0.00  0.00    -0.004 A 
ATOM     30  C   UNL A   1     -25.656   1.727  30.716  0.00  0.00    -0.000 A 
ATOM     31  C   UNL A   1     -24.523   1.432  31.534  0.00  0.00    -0.000 A 
ATOM     32  C   UNL A   1     -24.675   0.360  32.393  0.00  0.00    -0.000 A 
ATOM     33  C   UNL A   1     -25.848  -0.203  32.608  0.00  0.00    -0.004 A 
BRANCH  30  34
ATOM     34  C   UNL A   1     -25.540   2.939  29.817  0.00  0.00    -0.000 C 
ATOM     35  C   UNL A   1     -26.290   3.750  29.664  0.00  0.00    -0.000 C 
ENDBRANCH  30  34
ENDBRANCH  27  28
ENDBRANCH  26  27
ENDBRANCH  24  25
ENDBRANCH   5  24
TORSDOF 9
ENDMDL
ENDMDL
