REMARK  Name = outputs/IAG933/test6/raw/output_3583_IAG933_linker_design_.xyz
REMARK  12 active torsions:
REMARK  status: ('A' for Active; 'I' for Inactive)
REMARK    1  A    between atoms: C_1  and  C_2
REMARK    2  A    between atoms: C_1  and  C_8
REMARK    3  A    between atoms: C_1  and  O_41
REMARK    4  A    between atoms: C_9  and  C_37
REMARK    5  A    between atoms: C_13  and  C_39
REMARK    6  A    between atoms: C_14  and  C_15
REMARK    7  A    between atoms: C_21  and  O_22
REMARK    8  A    between atoms: O_22  and  C_23
REMARK    9  A    between atoms: C_23  and  C_24
REMARK   10  A    between atoms: C_30  and  O_41
REMARK   11  A    between atoms: C_33  and  C_38
REMARK   12  A    between atoms: C_37  and  C_38
REMARK                            x       y       z     vdW  Elec       q    Type
REMARK                         _______ _______ _______ _____ _____    ______ ____
ROOT
ATOM      1  C   UNL A   1     -22.942   0.562  28.327  0.00  0.00    +0.123 C 
ATOM      2  C   UNL A   1     -20.870  -0.367  29.024  0.00  0.00    +0.241 C 
ATOM      3  C   UNL A   1     -22.354  -0.323  29.425  0.00  0.00    +0.202 C 
ATOM      4  O   UNL A   1     -20.657   0.399  27.825  0.00  0.00    -0.471 OA
ATOM      5  C   UNL A   1     -22.119   1.967  26.565  0.00  0.00    +0.040 C 
ATOM      6  N   UNL A   1     -24.200   0.710  27.979  0.00  0.00    -0.244 NA
ATOM      7  C   UNL A   1     -24.428   1.441  26.920  0.00  0.00    +0.084 C 
ATOM      8  C   UNL A   1     -23.450   2.104  26.196  0.00  0.00    +0.022 C 
ATOM      9  C   UNL A   1     -21.855   1.033  27.577  0.00  0.00    +0.155 C 
ENDROOT
BRANCH   7  10
ATOM     10  C   UNL A   1     -25.688   1.614  26.461  0.00  0.00    +0.056 C 
ATOM     11  C   UNL A   1     -26.250   2.920  26.395  0.00  0.00    +0.078 C 
ATOM     12  C   UNL A   1     -27.438   3.091  25.645  0.00  0.00    +0.107 C 
ATOM     13  N   UNL A   1     -28.075   2.089  25.003  0.00  0.00    -0.208 NA
ATOM     14  C   UNL A   1     -27.543   0.849  25.079  0.00  0.00    +0.253 C 
ATOM     15  C   UNL A   1     -26.354   0.576  25.777  0.00  0.00    +0.195 C 
ATOM     16  F   UNL A   1     -25.860  -0.681  25.795  0.00  0.00    -0.199 F 
BRANCH  11  17
ATOM     17  C   UNL A   1     -25.642   4.093  27.123  0.00  0.00    +0.267 C 
ATOM     18  N   UNL A   1     -25.614   5.252  26.449  0.00  0.00    -0.200 NA
ATOM     19  C   UNL A   1     -25.026   6.479  26.963  0.00  0.00    +0.139 C 
ATOM     20  O   UNL A   1     -25.143   3.966  28.243  0.00  0.00    -0.268 OA
ENDBRANCH  11  17
BRANCH  14  21
ATOM     21  O   UNL A   1     -28.193  -0.208  24.477  0.00  0.00    -0.456 OA
BRANCH  21  22
ATOM     22  C   UNL A   1     -29.460   0.005  23.866  0.00  0.00    +0.243 C 
BRANCH  22  23
ATOM     23  C   UNL A   1     -30.065  -1.377  23.573  0.00  0.00    +0.229 C 
ATOM     24  O   UNL A   1     -30.729  -1.878  24.721  0.00  0.00    -0.216 OA
ENDBRANCH  22  23
ENDBRANCH  21  22
ENDBRANCH  14  21
ENDBRANCH   7  10
BRANCH   3  25
ATOM     25  O   UNL A   1     -23.521  -0.596  30.526  0.00  0.00    -0.343 OA
BRANCH  25  26
ATOM     26  C   UNL A   1     -24.855  -1.012  30.143  0.00  0.00    +0.154 C 
BRANCH  26  27
ATOM     27  C   UNL A   1     -24.973  -2.505  29.788  0.00  0.00    +0.006 C 
ATOM     28  C   UNL A   1     -23.906  -3.173  29.146  0.00  0.00    -0.002 C 
ATOM     29  C   UNL A   1     -23.989  -4.549  28.853  0.00  0.00    -0.000 C 
ATOM     30  C   UNL A   1     -25.137  -5.280  29.205  0.00  0.00    -0.000 C 
ATOM     31  C   UNL A   1     -26.232  -4.611  29.784  0.00  0.00    -0.000 C 
ATOM     32  C   UNL A   1     -26.155  -3.232  30.065  0.00  0.00    -0.002 C 
ENDBRANCH  26  27
BRANCH  26  33
ATOM     33  C   UNL A   1     -25.387  -0.679  31.571  0.00  0.00    +0.104 C 
ATOM     34  C   UNL A   1     -25.189   0.773  32.028  0.00  0.00    +0.020 C 
ATOM     35  C   UNL A   1     -25.336   0.684  33.544  0.00  0.00    +0.020 C 
ATOM     36  C   UNL A   1     -24.829  -0.715  33.905  0.00  0.00    +0.089 C 
ATOM     37  N   UNL A   1     -24.758  -1.481  32.646  0.00  0.00    -0.217 NA
BRANCH  34  38
ATOM     38  C   UNL A   1     -24.756   2.038  31.545  0.00  0.00    +0.004 C 
BRANCH  38  39
ATOM     39  C   UNL A   1     -25.856   2.968  31.091  0.00  0.00    +0.039 C 
BRANCH  39  40
ATOM     40  C   UNL A   1     -26.412   3.818  32.214  0.00  0.00    +0.182 C 
ATOM     41  N   UNL A   1     -27.652   3.200  32.700  0.00  0.00    -0.112 NA
ATOM     42  N   UNL A   1     -25.409   4.140  33.240  0.00  0.00    -0.112 NA
ENDBRANCH  39  40
ENDBRANCH  38  39
ENDBRANCH  34  38
ENDBRANCH  26  33
ENDBRANCH  25  26
ENDBRANCH   3  25
TORSDOF 12
