REMARK  Name = outputs/IAG933/test6/raw/output_3584_IAG933_linker_design_.xyz
REMARK  11 active torsions:
REMARK  status: ('A' for Active; 'I' for Inactive)
REMARK    1  A    between atoms: C_1  and  C_2
REMARK    2  A    between atoms: C_1  and  C_8
REMARK    3  A    between atoms: C_1  and  N_33
REMARK    4  A    between atoms: C_13  and  C_38
REMARK    5  A    between atoms: C_14  and  C_15
REMARK    6  A    between atoms: C_21  and  O_22
REMARK    7  A    between atoms: O_22  and  C_23
REMARK    8  A    between atoms: C_23  and  C_24
REMARK    9  A    between atoms: C_32  and  N_33
REMARK   10  A    between atoms: C_36  and  C_41
REMARK   11  A    between atoms: C_37  and  N_39
REMARK                            x       y       z     vdW  Elec       q    Type
REMARK                         _______ _______ _______ _____ _____    ______ ____
ROOT
ATOM      1  C   UNL A   1     -22.413   1.353  27.660  0.00  0.00    +0.129 C 
ATOM      2  C   UNL A   1     -22.997   0.859  28.777  0.00  0.00    +0.098 C 
ATOM      3  C   UNL A   1     -24.337   0.718  28.497  0.00  0.00    +0.040 C 
ATOM      4  F   UNL A   1     -21.085   1.627  27.642  0.00  0.00    -0.208 F 
ATOM      5  C   UNL A   1     -24.468   1.304  27.159  0.00  0.00    +0.020 C 
ATOM      6  C   UNL A   1     -23.191   1.617  26.645  0.00  0.00    +0.092 C 
ENDROOT
BRANCH   5   7
ATOM      7  C   UNL A   1     -25.688   1.614  26.461  0.00  0.00    +0.039 C 
ATOM      8  C   UNL A   1     -26.250   2.920  26.395  0.00  0.00    +0.077 C 
ATOM      9  C   UNL A   1     -27.438   3.091  25.645  0.00  0.00    +0.107 C 
ATOM     10  N   UNL A   1     -28.075   2.089  25.003  0.00  0.00    -0.208 NA
ATOM     11  C   UNL A   1     -27.543   0.849  25.079  0.00  0.00    +0.253 C 
ATOM     12  C   UNL A   1     -26.354   0.576  25.777  0.00  0.00    +0.193 C 
ATOM     13  F   UNL A   1     -25.860  -0.681  25.795  0.00  0.00    -0.199 F 
BRANCH   8  14
ATOM     14  C   UNL A   1     -25.642   4.093  27.123  0.00  0.00    +0.266 C 
ATOM     15  N   UNL A   1     -25.614   5.252  26.449  0.00  0.00    -0.200 NA
ATOM     16  C   UNL A   1     -25.026   6.479  26.963  0.00  0.00    +0.139 C 
ATOM     17  O   UNL A   1     -25.143   3.966  28.243  0.00  0.00    -0.268 OA
ENDBRANCH   8  14
BRANCH  11  18
ATOM     18  O   UNL A   1     -28.193  -0.208  24.477  0.00  0.00    -0.456 OA
BRANCH  18  19
ATOM     19  C   UNL A   1     -29.460   0.005  23.866  0.00  0.00    +0.243 C 
BRANCH  19  20
ATOM     20  C   UNL A   1     -30.065  -1.377  23.573  0.00  0.00    +0.229 C 
ATOM     21  O   UNL A   1     -30.729  -1.878  24.721  0.00  0.00    -0.216 OA
ENDBRANCH  19  20
ENDBRANCH  18  19
ENDBRANCH  11  18
ENDBRANCH   5   7
BRANCH   3  22
ATOM     22  N   UNL A   1     -25.336   0.002  29.223  0.00  0.00    -0.241 N 
ATOM     23  C   UNL A   1     -26.747   0.251  29.074  0.00  0.00    +0.327 C 
ATOM     24  N   UNL A   1     -27.074   1.554  29.107  0.00  0.00    -0.188 NA
ATOM     25  O   UNL A   1     -27.582  -0.648  28.859  0.00  0.00    -0.250 OA
BRANCH  24  26
ATOM     26  C   UNL A   1     -28.185   2.292  29.696  0.00  0.00    +0.117 C 
ATOM     27  C   UNL A   1     -28.674   3.372  28.724  0.00  0.00    +0.025 C 
ENDBRANCH  24  26
BRANCH  22  28
ATOM     28  C   UNL A   1     -24.855  -1.012  30.143  0.00  0.00    +0.119 C 
BRANCH  28  29
ATOM     29  C   UNL A   1     -24.973  -2.505  29.788  0.00  0.00    -0.003 C 
ATOM     30  C   UNL A   1     -23.906  -3.173  29.146  0.00  0.00    -0.003 C 
ATOM     31  C   UNL A   1     -23.989  -4.549  28.853  0.00  0.00    -0.000 C 
ATOM     32  C   UNL A   1     -25.137  -5.280  29.205  0.00  0.00    -0.000 C 
ATOM     33  C   UNL A   1     -26.232  -4.611  29.784  0.00  0.00    -0.000 C 
ATOM     34  C   UNL A   1     -26.155  -3.232  30.065  0.00  0.00    -0.003 C 
ENDBRANCH  28  29
BRANCH  28  35
ATOM     35  C   UNL A   1     -25.387  -0.679  31.571  0.00  0.00    +0.096 C 
ATOM     36  C   UNL A   1     -25.189   0.773  32.028  0.00  0.00    +0.021 C 
ATOM     37  C   UNL A   1     -25.336   0.684  33.544  0.00  0.00    +0.020 C 
ATOM     38  C   UNL A   1     -24.829  -0.715  33.905  0.00  0.00    +0.089 C 
ATOM     39  N   UNL A   1     -24.758  -1.481  32.646  0.00  0.00    -0.217 NA
ENDBRANCH  28  35
ENDBRANCH  22  28
ENDBRANCH   3  22
BRANCH   6  42
ATOM     40  O   UNL A   1     -21.813   2.515  25.119  0.00  0.00    -0.254 OA
ATOM     41  F   UNL A   1     -23.552   1.328  24.280  0.00  0.00    -0.159 F 
ATOM     42  C   UNL A   1     -22.842   1.918  25.370  0.00  0.00    +0.335 C 
ENDBRANCH   6  42
TORSDOF 11
