MODEL 3584
MODEL 1
REMARK VINA RESULT:    -6.640      0.000      0.000
REMARK INTER + INTRA:          -6.640
REMARK INTER:                  -6.640
REMARK INTRA:                   0.000
REMARK UNBOUND:                 0.000
REMARK  Name = No_3584-gen_results/8p0m/2024-11-27-11-27-31/
REMARK  0 active torsions:
REMARK  status: ('A' for Active; 'I' for Inactive)
REMARK                            x       y       z     vdW  Elec       q    Type
REMARK                         _______ _______ _______ _____ _____    ______ ____
ROOT
ATOM      1  C   UNL A   1     -26.562  -3.713  30.076  0.00  0.00    +0.005 A 
ATOM      2  C   UNL A   1     -25.768  -2.820  29.889  0.00  0.00    +0.035 A 
ATOM      3  C   UNL A   1     -24.522  -2.971  29.305  0.00  0.00    -0.013 A 
ATOM      4  C   UNL A   1     -24.165  -4.280  28.867  0.00  0.00    +0.026 A 
ATOM      5  C   UNL A   1     -25.122  -5.219  28.941  0.00  0.00    +0.140 A 
ATOM      6  C   UNL A   1     -26.288  -4.975  29.467  0.00  0.00    +0.030 A 
ATOM      7  F   UNL A   1     -24.794  -6.423  28.488  0.00  0.00    -0.204 F 
ATOM      8  C   UNL A   1     -23.506  -1.842  29.235  0.00  0.00    +0.053 C 
ATOM      9  C   UNL A   1     -23.747  -0.796  29.717  0.00  0.00    -0.015 A 
ATOM     10  C   UNL A   1     -22.854   0.393  29.603  0.00  0.00    -0.004 A 
ATOM     11  C   UNL A   1     -23.156   1.653  30.165  0.00  0.00    -0.000 A 
ATOM     12  C   UNL A   1     -24.247   1.754  31.052  0.00  0.00    +0.000 A 
ATOM     13  C   UNL A   1     -25.136   0.684  31.267  0.00  0.00    +0.003 A 
ATOM     14  C   UNL A   1     -24.837  -0.504  30.667  0.00  0.00    +0.035 A 
ATOM     15  C   UNL A   1     -25.775  -1.460  30.763  0.00  0.00    +0.195 C 
ATOM     16  O   UNL A   1     -26.792  -1.439  31.571  0.00  0.00    -0.287 OA
ENDROOT
TORSDOF 0
ENDMDL
ENDMDL
