MODEL 3585
MODEL 1
REMARK VINA RESULT:    -6.772      0.000      0.000
REMARK INTER + INTRA:          -8.214
REMARK INTER:                  -7.960
REMARK INTRA:                  -0.254
REMARK UNBOUND:                -0.254
REMARK  Name = No_3585-gen_results/8p0m/2024-11-27-11-27-31/
REMARK  3 active torsions:
REMARK  status: ('A' for Active; 'I' for Inactive)
REMARK    1  A    between atoms: C_2  and  O_7
REMARK    2  A    between atoms: O_7  and  C_8
REMARK    3  A    between atoms: C_8  and  C_9
REMARK                            x       y       z     vdW  Elec       q    Type
REMARK                         _______ _______ _______ _____ _____    ______ ____
ROOT
ATOM      1  C   UNL A   1     -24.312  -1.348  29.606  0.00  0.00    +0.346 C 
ATOM      2  O   UNL A   1     -24.756  -0.531  30.505  0.00  0.00    -0.244 OA
ENDROOT
BRANCH   1   3
ATOM      3  C   UNL A   1     -24.728  -2.637  29.493  0.00  0.00    +0.076 A 
ATOM      4  C   UNL A   1     -25.801  -3.047  29.915  0.00  0.00    +0.006 A 
ATOM      5  C   UNL A   1     -26.304  -4.424  29.741  0.00  0.00    +0.000 A 
ATOM      6  C   UNL A   1     -25.371  -5.277  29.109  0.00  0.00    +0.000 A 
ATOM      7  C   UNL A   1     -23.852  -3.576  28.799  0.00  0.00    +0.006 A 
ATOM      8  C   UNL A   1     -24.211  -4.849  28.630  0.00  0.00    +0.000 A 
ENDBRANCH   1   3
BRANCH   1   9
ATOM      9  O   UNL A   1     -23.211  -0.960  29.071  0.00  0.00    -0.421 OA
BRANCH   9  11
ATOM     10  C   UNL A   1     -24.153   0.072  27.440  0.00  0.00    +0.038 A 
ATOM     11  C   UNL A   1     -23.305   0.107  28.065  0.00  0.00    +0.149 A 
ATOM     12  C   UNL A   1     -24.246   1.173  26.407  0.00  0.00    +0.003 A 
ATOM     13  C   UNL A   1     -23.164   2.064  26.247  0.00  0.00    +0.000 A 
ATOM     14  C   UNL A   1     -22.047   0.886  28.087  0.00  0.00    +0.038 A 
ATOM     15  C   UNL A   1     -22.092   1.905  27.146  0.00  0.00    +0.003 A 
ENDBRANCH   9  11
ENDBRANCH   1   9
TORSDOF 3
ENDMDL
ENDMDL
