REMARK  Name = outputs/IAG933/test6/raw/output_3585_IAG933_linker_design_.xyz
REMARK  12 active torsions:
REMARK  status: ('A' for Active; 'I' for Inactive)
REMARK    1  A    between atoms: C_1  and  C_2
REMARK    2  A    between atoms: C_1  and  C_8
REMARK    3  A    between atoms: C_1  and  C_42
REMARK    4  A    between atoms: C_13  and  C_35
REMARK    5  A    between atoms: C_14  and  C_15
REMARK    6  A    between atoms: C_21  and  O_22
REMARK    7  A    between atoms: O_22  and  C_23
REMARK    8  A    between atoms: C_23  and  C_24
REMARK    9  A    between atoms: C_31  and  C_33
REMARK   10  A    between atoms: C_33  and  N_36
REMARK   11  A    between atoms: C_34  and  C_39
REMARK   12  A    between atoms: C_35  and  N_41
REMARK                            x       y       z     vdW  Elec       q    Type
REMARK                         _______ _______ _______ _____ _____    ______ ____
ROOT
ATOM      1  C   UNL A   1     -25.477   1.179  29.476  0.00  0.00    +0.107 C 
ATOM      2  N   UNL A   1     -24.745   0.791  28.395  0.00  0.00    -0.305 N 
ATOM      3  C   UNL A   1     -25.055  -0.237  29.040  0.00  0.00    +0.098 C 
ENDROOT
BRANCH   2   4
ATOM      4  C   UNL A   1     -24.514   1.321  27.191  0.00  0.00    +0.057 C 
ATOM      5  C   UNL A   1     -23.144   1.558  26.816  0.00  0.00    +0.101 C 
BRANCH   4   6
ATOM      6  C   UNL A   1     -25.688   1.614  26.461  0.00  0.00    +0.052 C 
ATOM      7  C   UNL A   1     -26.250   2.920  26.395  0.00  0.00    +0.078 C 
ATOM      8  C   UNL A   1     -27.438   3.091  25.645  0.00  0.00    +0.107 C 
ATOM      9  N   UNL A   1     -28.075   2.089  25.003  0.00  0.00    -0.208 NA
ATOM     10  C   UNL A   1     -27.543   0.849  25.079  0.00  0.00    +0.253 C 
ATOM     11  C   UNL A   1     -26.354   0.576  25.777  0.00  0.00    +0.194 C 
ATOM     12  F   UNL A   1     -25.860  -0.681  25.795  0.00  0.00    -0.199 F 
BRANCH   7  13
ATOM     13  C   UNL A   1     -25.642   4.093  27.123  0.00  0.00    +0.267 C 
ATOM     14  N   UNL A   1     -25.614   5.252  26.449  0.00  0.00    -0.200 NA
ATOM     15  C   UNL A   1     -25.026   6.479  26.963  0.00  0.00    +0.139 C 
ATOM     16  O   UNL A   1     -25.143   3.966  28.243  0.00  0.00    -0.268 OA
ENDBRANCH   7  13
BRANCH  10  17
ATOM     17  O   UNL A   1     -28.193  -0.208  24.477  0.00  0.00    -0.456 OA
BRANCH  17  18
ATOM     18  C   UNL A   1     -29.460   0.005  23.866  0.00  0.00    +0.243 C 
BRANCH  18  19
ATOM     19  C   UNL A   1     -30.065  -1.377  23.573  0.00  0.00    +0.229 C 
ATOM     20  O   UNL A   1     -30.729  -1.878  24.721  0.00  0.00    -0.216 OA
ENDBRANCH  18  19
ENDBRANCH  17  18
ENDBRANCH  10  17
ENDBRANCH   4   6
BRANCH   5  23
ATOM     21  O   UNL A   1     -20.926   1.366  27.564  0.00  0.00    -0.240 OA
ATOM     22  O   UNL A   1     -22.373   0.388  28.810  0.00  0.00    -0.240 OA
ATOM     23  C   UNL A   1     -22.107   1.074  27.788  0.00  0.00    +0.389 C 
ENDBRANCH   5  23
ENDBRANCH   2   4
BRANCH   3  24
ATOM     24  C   UNL A   1     -24.855  -1.012  30.143  0.00  0.00    +0.058 C 
BRANCH  24  25
ATOM     25  C   UNL A   1     -24.973  -2.505  29.788  0.00  0.00    -0.019 C 
ATOM     26  C   UNL A   1     -23.906  -3.173  29.146  0.00  0.00    -0.004 C 
ATOM     27  C   UNL A   1     -23.989  -4.549  28.853  0.00  0.00    -0.000 C 
ATOM     28  C   UNL A   1     -25.137  -5.280  29.205  0.00  0.00    -0.000 C 
ATOM     29  C   UNL A   1     -26.232  -4.611  29.784  0.00  0.00    -0.000 C 
ATOM     30  C   UNL A   1     -26.155  -3.232  30.065  0.00  0.00    -0.004 C 
ENDBRANCH  24  25
BRANCH  24  31
ATOM     31  C   UNL A   1     -25.387  -0.679  31.571  0.00  0.00    +0.079 C 
ATOM     32  C   UNL A   1     -25.189   0.773  32.028  0.00  0.00    +0.019 C 
ATOM     33  C   UNL A   1     -25.336   0.684  33.544  0.00  0.00    +0.020 C 
ATOM     34  C   UNL A   1     -24.829  -0.715  33.905  0.00  0.00    +0.089 C 
ATOM     35  N   UNL A   1     -24.758  -1.481  32.646  0.00  0.00    -0.219 NA
ENDBRANCH  24  31
ENDBRANCH   3  24
BRANCH   1  36
ATOM     36  C   UNL A   1     -27.003   0.858  29.607  0.00  0.00    +0.096 C 
BRANCH  36  39
ATOM     37  C   UNL A   1     -29.843   3.708  30.295  0.00  0.00    +0.145 C 
ATOM     38  C   UNL A   1     -29.160   1.540  29.409  0.00  0.00    +0.077 C 
ATOM     39  N   UNL A   1     -27.815   2.095  29.547  0.00  0.00    -0.246 NA
ATOM     40  O   UNL A   1     -28.557   3.815  30.989  0.00  0.00    -0.337 OA
ATOM     41  C   UNL A   1     -27.364   3.107  30.549  0.00  0.00    +0.220 C 
ATOM     42  C   UNL A   1     -30.215   2.202  30.310  0.00  0.00    +0.050 C 
ENDBRANCH  36  39
ENDBRANCH   1  36
TORSDOF 12
