MODEL 3586
MODEL 1
REMARK VINA RESULT:    -8.354      0.000      0.000
REMARK INTER + INTRA:         -12.101
REMARK INTER:                 -10.796
REMARK INTRA:                  -1.305
REMARK UNBOUND:                -1.305
REMARK  Name = No_3586-gen_results/8p0m/2024-11-27-11-27-31/
REMARK  5 active torsions:
REMARK  status: ('A' for Active; 'I' for Inactive)
REMARK    1  A    between atoms: C_10  and  C_13
REMARK    2  A    between atoms: N_15  and  C_17
REMARK    3  A    between atoms: C_19  and  C_28
REMARK    4  A    between atoms: C_22  and  C_25
REMARK    5  A    between atoms: C_32  and  C_33
REMARK                            x       y       z     vdW  Elec       q    Type
REMARK                         _______ _______ _______ _____ _____    ______ ____
ROOT
ATOM      1  C   UNL A   1     -30.446 -10.731   8.903  0.00  0.00    +0.262 C 
ATOM      2  O   UNL A   1     -30.900 -11.049   7.897  0.00  0.00    -0.269 OA
ATOM      3  N   UNL A   1     -30.506 -11.585  10.053  0.00  0.00    -0.168 N 
ATOM      4  C   UNL A   1     -30.166 -11.397  11.384  0.00  0.00    +0.457 C 
ATOM      5  O   UNL A   1     -30.952 -10.688  12.063  0.00  0.00    -0.222 OA
ATOM      6  O   UNL A   1     -29.168 -11.963  11.856  0.00  0.00    -0.222 OA
ENDROOT
BRANCH   1  16
ATOM      7  C   UNL A   1     -31.102  -6.037  10.589  0.00  0.00    +0.011 A 
ATOM      8  C   UNL A   1     -32.122  -6.280  10.696  0.00  0.00    +0.058 A 
ATOM      9  C   UNL A   1     -30.243  -7.020  10.049  0.00  0.00    +0.001 A 
ATOM     10  C   UNL A   1     -30.703  -8.268   9.679  0.00  0.00    +0.005 A 
ATOM     11  C   UNL A   1     -32.059  -8.501   9.847  0.00  0.00    +0.001 A 
ATOM     12  C   UNL A   1     -32.865  -7.499  10.344  0.00  0.00    +0.011 A 
ATOM     13  C   UNL A   1     -28.778  -6.799   9.822  0.00  0.00    +0.001 A 
ATOM     14  C   UNL A   1     -27.992  -7.908   9.461  0.00  0.00    +0.011 A 
ATOM     15  C   UNL A   1     -28.555  -9.139   9.053  0.00  0.00    +0.062 A 
ATOM     16  C   UNL A   1     -29.905  -9.364   9.229  0.00  0.00    +0.065 A 
ATOM     17 CL   UNL A   1     -27.528 -10.485   8.806  0.00  0.00    -0.082 Cl
ATOM     18 CL   UNL A   1     -33.425  -5.083  11.285  0.00  0.00    -0.082 Cl
ENDBRANCH   1  16
BRANCH   3  19
ATOM     19  C   UNL A   1     -30.965 -12.988   9.677  0.00  0.00    +0.065 A 
ATOM     20  C   UNL A   1     -30.192 -13.798   9.134  0.00  0.00    +0.015 A 
ATOM     21  C   UNL A   1     -30.364 -15.139   9.132  0.00  0.00    +0.002 A 
ATOM     22  C   UNL A   1     -31.651 -15.686   9.491  0.00  0.00    +0.007 A 
ATOM     23  C   UNL A   1     -32.310 -13.323  10.122  0.00  0.00    +0.022 A 
ATOM     24  C   UNL A   1     -32.619 -14.723  10.033  0.00  0.00    +0.081 A 
BRANCH  21  25
ATOM     25  C   UNL A   1     -29.439 -16.138   8.548  0.00  0.00    +0.000 A 
ATOM     26  C   UNL A   1     -29.740 -16.622   7.239  0.00  0.00    +0.000 A 
ATOM     27  C   UNL A   1     -29.055 -17.760   6.782  0.00  0.00    +0.000 A 
ATOM     28  C   UNL A   1     -28.339 -16.669   9.222  0.00  0.00    +0.003 A 
ATOM     29  C   UNL A   1     -27.559 -17.717   8.748  0.00  0.00    +0.042 A 
ATOM     30  C   UNL A   1     -27.927 -18.258   7.482  0.00  0.00    +0.003 A 
BRANCH  29  31
ATOM     31  C   UNL A   1     -26.453 -18.275   9.453  0.00  0.00    +0.234 C 
ATOM     32  O   UNL A   1     -25.952 -17.663  10.378  0.00  0.00    -0.283 OA
ENDBRANCH  29  31
ENDBRANCH  21  25
BRANCH  24  33
ATOM     33  C   UNL A   1     -34.003 -15.116  10.183  0.00  0.00    +0.388 C 
ATOM     34  O   UNL A   1     -34.717 -14.688  10.893  0.00  0.00    -0.241 OA
ATOM     35  O   UNL A   1     -34.458 -15.939   9.183  0.00  0.00    -0.241 OA
ENDBRANCH  24  33
ENDBRANCH   3  19
TORSDOF 5
ENDMDL
ENDMDL
