MODEL 3588
MODEL 1
REMARK VINA RESULT:    -7.115      0.000      0.000
REMARK INTER + INTRA:          -8.261
REMARK INTER:                  -8.363
REMARK INTRA:                   0.102
REMARK UNBOUND:                 0.102
REMARK  Name = No_3588-gen_results/8p0m/2024-11-27-11-27-31/
REMARK  3 active torsions:
REMARK  status: ('A' for Active; 'I' for Inactive)
REMARK    1  A    between atoms: C_3  and  C_7
REMARK    2  A    between atoms: N_8  and  C_9
REMARK    3  A    between atoms: C_10  and  C_16
REMARK                            x       y       z     vdW  Elec       q    Type
REMARK                         _______ _______ _______ _____ _____    ______ ____
ROOT
ATOM      1  C   UNL A   1     -23.491  -0.568  30.263  0.00  0.00    +0.078 A 
ATOM      2  C   UNL A   1     -24.277  -1.593  30.395  0.00  0.00    +0.070 A 
ATOM      3  C   UNL A   1     -25.571  -1.568  31.023  0.00  0.00    +0.006 A 
ATOM      4  C   UNL A   1     -25.801  -0.504  31.921  0.00  0.00    +0.000 A 
ATOM      5  C   UNL A   1     -24.948   0.555  32.038  0.00  0.00    +0.001 A 
ATOM      6  C   UNL A   1     -23.805   0.586  31.242  0.00  0.00    +0.017 A 
ENDROOT
BRANCH   2   7
ATOM      7  C   UNL A   1     -24.114  -2.730  29.425  0.00  0.00    +0.266 C 
ATOM      8  O   UNL A   1     -23.272  -2.936  28.877  0.00  0.00    -0.268 OA
ATOM      9  N   UNL A   1     -24.965  -3.882  29.658  0.00  0.00    -0.200 NA
ATOM     10  C   UNL A   1     -24.799  -5.078  28.929  0.00  0.00    +0.139 C 
ENDBRANCH   2   7
BRANCH   1  12
ATOM     11  C   UNL A   1     -21.863   0.072  28.831  0.00  0.00    +0.269 C 
ATOM     12  N   UNL A   1     -22.341  -0.468  29.837  0.00  0.00    -0.175 NA
ATOM     13  O   UNL A   1     -20.693  -0.019  28.478  0.00  0.00    -0.268 OA
BRANCH  11  16
ATOM     14  C   UNL A   1     -24.699   0.772  26.593  0.00  0.00    +0.000 A 
ATOM     15  C   UNL A   1     -24.009   0.220  27.419  0.00  0.00    +0.005 A 
ATOM     16  C   UNL A   1     -22.758   0.689  27.817  0.00  0.00    +0.055 A 
ATOM     17  C   UNL A   1     -22.210   1.870  27.177  0.00  0.00    +0.005 A 
ATOM     18  C   UNL A   1     -23.067   2.455  26.217  0.00  0.00    +0.000 A 
ATOM     19  C   UNL A   1     -24.227   1.936  25.904  0.00  0.00    +0.000 A 
ENDBRANCH  11  16
ENDBRANCH   1  12
TORSDOF 3
ENDMDL
ENDMDL
