MODEL 3589
MODEL 1
REMARK VINA RESULT:    -6.587      0.000      0.000
REMARK INTER + INTRA:          -6.587
REMARK INTER:                  -6.587
REMARK INTRA:                   0.000
REMARK UNBOUND:                 0.000
REMARK  Name = No_3589-gen_results/8p0m/2024-11-27-11-27-31/
REMARK  0 active torsions:
REMARK  status: ('A' for Active; 'I' for Inactive)
REMARK                            x       y       z     vdW  Elec       q    Type
REMARK                         _______ _______ _______ _____ _____    ______ ____
ROOT
ATOM      1  C   UNL A   1     -22.591  -0.329  28.467  0.00  0.00    +0.029 A 
ATOM      2  C   UNL A   1     -22.760   0.865  28.550  0.00  0.00    +0.140 A 
ATOM      3  C   UNL A   1     -23.902   1.439  29.006  0.00  0.00    +0.029 A 
ATOM      4  C   UNL A   1     -24.958   0.600  29.408  0.00  0.00    -0.002 A 
ATOM      5  C   UNL A   1     -23.591  -1.247  28.949  0.00  0.00    -0.002 A 
ATOM      6  C   UNL A   1     -24.769  -0.722  29.389  0.00  0.00    -0.018 A 
ATOM      7  F   UNL A   1     -21.787   1.738  28.180  0.00  0.00    -0.204 F 
ATOM      8  C   UNL A   1     -25.829  -1.655  29.843  0.00  0.00    +0.053 C 
ATOM      9  C   UNL A   1     -25.905  -2.743  29.667  0.00  0.00    -0.018 A 
ATOM     10  C   UNL A   1     -26.365  -3.823  29.798  0.00  0.00    -0.004 A 
ATOM     11  C   UNL A   1     -25.868  -5.067  29.561  0.00  0.00    -0.000 A 
ATOM     12  C   UNL A   1     -24.641  -5.134  28.920  0.00  0.00    -0.000 A 
ATOM     13  C   UNL A   1     -23.938  -4.045  28.626  0.00  0.00    -0.000 A 
ATOM     14  C   UNL A   1     -24.457  -2.819  28.989  0.00  0.00    -0.004 A 
ENDROOT
TORSDOF 0
ENDMDL
ENDMDL
