REMARK  Name = outputs/IAG933/test6/raw/output_3589_IAG933_linker_design_.xyz
REMARK  11 active torsions:
REMARK  status: ('A' for Active; 'I' for Inactive)
REMARK    1  A    between atoms: C_1  and  C_2
REMARK    2  A    between atoms: C_1  and  C_8
REMARK    3  A    between atoms: C_1  and  N_28
REMARK    4  A    between atoms: C_13  and  N_43
REMARK    5  A    between atoms: C_14  and  C_15
REMARK    6  A    between atoms: C_21  and  O_22
REMARK    7  A    between atoms: O_22  and  C_23
REMARK    8  A    between atoms: C_23  and  C_24
REMARK    9  A    between atoms: N_28  and  C_30
REMARK   10  A    between atoms: N_28  and  C_42
REMARK   11  A    between atoms: C_30  and  C_36
REMARK                            x       y       z     vdW  Elec       q    Type
REMARK                         _______ _______ _______ _____ _____    ______ ____
ROOT
ATOM      1  N   UNL A   1     -25.395  -0.205  29.000  0.00  0.00    -0.188 N 
ENDROOT
BRANCH   1   6
ATOM      2  N   UNL A   1     -22.467   0.040  29.489  0.00  0.00    -0.121 NA
ATOM      3  C   UNL A   1     -21.070   1.798  27.344  0.00  0.00    +0.036 C 
ATOM      4  C   UNL A   1     -23.124   0.626  28.506  0.00  0.00    +0.165 C 
ATOM      5  C   UNL A   1     -23.396   1.959  26.726  0.00  0.00    +0.178 C 
ATOM      6  C   UNL A   1     -24.549   0.566  28.314  0.00  0.00    +0.297 C 
ATOM      7  N   UNL A   1     -24.642   1.412  27.303  0.00  0.00    -0.148 N 
ATOM      8  C   UNL A   1     -22.531   1.467  27.488  0.00  0.00    +0.043 C 
BRANCH   7   9
ATOM      9  C   UNL A   1     -25.688   1.614  26.461  0.00  0.00    +0.181 C 
ATOM     10  C   UNL A   1     -26.250   2.920  26.395  0.00  0.00    +0.114 C 
ATOM     11  C   UNL A   1     -27.438   3.091  25.645  0.00  0.00    +0.110 C 
ATOM     12  N   UNL A   1     -28.075   2.089  25.003  0.00  0.00    -0.208 NA
ATOM     13  C   UNL A   1     -27.543   0.849  25.079  0.00  0.00    +0.257 C 
ATOM     14  C   UNL A   1     -26.354   0.576  25.777  0.00  0.00    +0.230 C 
ATOM     15  F   UNL A   1     -25.860  -0.681  25.795  0.00  0.00    -0.196 F 
BRANCH  10  16
ATOM     16  C   UNL A   1     -25.642   4.093  27.123  0.00  0.00    +0.270 C 
ATOM     17  N   UNL A   1     -25.614   5.252  26.449  0.00  0.00    -0.200 NA
ATOM     18  C   UNL A   1     -25.026   6.479  26.963  0.00  0.00    +0.139 C 
ATOM     19  O   UNL A   1     -25.143   3.966  28.243  0.00  0.00    -0.268 OA
ENDBRANCH  10  16
BRANCH  13  20
ATOM     20  O   UNL A   1     -28.193  -0.208  24.477  0.00  0.00    -0.456 OA
BRANCH  20  21
ATOM     21  C   UNL A   1     -29.460   0.005  23.866  0.00  0.00    +0.243 C 
BRANCH  21  22
ATOM     22  C   UNL A   1     -30.065  -1.377  23.573  0.00  0.00    +0.229 C 
ATOM     23  O   UNL A   1     -30.729  -1.878  24.721  0.00  0.00    -0.216 OA
ENDBRANCH  21  22
ENDBRANCH  20  21
ENDBRANCH  13  20
ENDBRANCH   7   9
ENDBRANCH   1   6
BRANCH   1  24
ATOM     24  C   UNL A   1     -24.855  -1.012  30.143  0.00  0.00    +0.199 C 
BRANCH  24  25
ATOM     25  C   UNL A   1     -24.973  -2.505  29.788  0.00  0.00    +0.021 C 
ATOM     26  C   UNL A   1     -23.906  -3.173  29.146  0.00  0.00    -0.000 C 
ATOM     27  C   UNL A   1     -23.989  -4.549  28.853  0.00  0.00    -0.000 C 
ATOM     28  C   UNL A   1     -25.137  -5.280  29.205  0.00  0.00    -0.000 C 
ATOM     29  C   UNL A   1     -26.232  -4.611  29.784  0.00  0.00    -0.000 C 
ATOM     30  C   UNL A   1     -26.155  -3.232  30.065  0.00  0.00    -0.000 C 
ENDBRANCH  24  25
BRANCH  24  31
ATOM     31  C   UNL A   1     -25.387  -0.679  31.571  0.00  0.00    +0.120 C 
ATOM     32  C   UNL A   1     -25.189   0.773  32.028  0.00  0.00    +0.023 C 
ATOM     33  C   UNL A   1     -25.336   0.684  33.544  0.00  0.00    +0.020 C 
ATOM     34  C   UNL A   1     -24.829  -0.715  33.905  0.00  0.00    +0.089 C 
ATOM     35  N   UNL A   1     -24.758  -1.481  32.646  0.00  0.00    -0.215 NA
ENDBRANCH  24  31
ENDBRANCH   1  24
BRANCH   1  36
ATOM     36  C   UNL A   1     -26.952  -0.490  28.697  0.00  0.00    +0.228 C 
BRANCH  36  42
ATOM     37  O   UNL A   1     -27.877   1.683  30.259  0.00  0.00    -0.290 OA
ATOM     38  C   UNL A   1     -32.026   0.272  29.955  0.00  0.00    +0.090 C 
ATOM     39  N   UNL A   1     -30.967   0.599  29.044  0.00  0.00    -0.265 NA
ATOM     40  C   UNL A   1     -30.644  -0.064  27.805  0.00  0.00    +0.077 C 
ATOM     41  C   UNL A   1     -29.311  -0.288  27.518  0.00  0.00    +0.046 C 
ATOM     42  C   UNL A   1     -28.430   0.126  28.592  0.00  0.00    +0.040 C 
ATOM     43  C   UNL A   1     -28.806   1.081  29.507  0.00  0.00    +0.185 C 
ATOM     44  C   UNL A   1     -30.145   1.493  29.635  0.00  0.00    +0.142 C 
ENDBRANCH  36  42
ENDBRANCH   1  36
TORSDOF 11
