MODEL 3591
MODEL 1
REMARK VINA RESULT:    -7.130      0.000      0.000
REMARK INTER + INTRA:         -11.628
REMARK INTER:                  -9.631
REMARK INTRA:                  -1.997
REMARK UNBOUND:                -1.997
REMARK  Name = No_3591-gen_results/8p0m/2024-11-27-11-27-31/
REMARK  6 active torsions:
REMARK  status: ('A' for Active; 'I' for Inactive)
REMARK    1  A    between atoms: C_5  and  C_11
REMARK    2  A    between atoms: C_7  and  C_18
REMARK    3  A    between atoms: C_8  and  C_14
REMARK    4  A    between atoms: N_16  and  C_24
REMARK    5  A    between atoms: C_24  and  C_25
REMARK    6  A    between atoms: C_26  and  C_27
REMARK                            x       y       z     vdW  Elec       q    Type
REMARK                         _______ _______ _______ _____ _____    ______ ____
ROOT
ATOM      1  C   UNL A   1     -24.700  -0.934  31.415  0.00  0.00    +0.004 A 
ATOM      2  C   UNL A   1     -24.609  -0.478  30.298  0.00  0.00    +0.000 A 
ATOM      3  C   UNL A   1     -24.319   0.866  30.093  0.00  0.00    +0.000 A 
ATOM      4  C   UNL A   1     -24.191   1.547  28.773  0.00  0.00    +0.005 A 
ATOM      5  C   UNL A   1     -24.220   0.698  27.627  0.00  0.00    +0.057 A 
ATOM      6  C   UNL A   1     -24.455  -0.671  27.862  0.00  0.00    +0.005 A 
ATOM      7  C   UNL A   1     -24.615  -1.218  29.076  0.00  0.00    +0.000 A 
ATOM      8  C   UNL A   1     -25.082  -0.055  32.570  0.00  0.00    +0.054 A 
ATOM      9  C   UNL A   1     -24.696   1.328  32.443  0.00  0.00    +0.004 A 
ATOM     10  C   UNL A   1     -24.417   1.843  31.179  0.00  0.00    +0.000 A 
ENDROOT
BRANCH   7  11
ATOM     11  C   UNL A   1     -24.839  -2.694  29.163  0.00  0.00    +0.000 A 
ATOM     12  C   UNL A   1     -23.834  -3.470  28.694  0.00  0.00    +0.000 A 
ATOM     13  C   UNL A   1     -24.039  -4.871  28.558  0.00  0.00    +0.000 A 
ATOM     14  C   UNL A   1     -25.975  -3.176  29.704  0.00  0.00    +0.000 A 
ATOM     15  C   UNL A   1     -26.240  -4.548  29.639  0.00  0.00    +0.000 A 
ATOM     16  C   UNL A   1     -25.213  -5.395  29.147  0.00  0.00    +0.000 A 
ENDBRANCH   7  11
BRANCH   8  17
ATOM     17  C   UNL A   1     -25.255  -0.551  33.934  0.00  0.00    +0.249 C 
ATOM     18  O   UNL A   1     -24.402  -0.721  34.757  0.00  0.00    -0.270 OA
ATOM     19  N   UNL A   1     -26.565  -0.413  34.363  0.00  0.00    -0.270 N 
ATOM     20  C   UNL A   1     -26.915  -0.783  35.759  0.00  0.00    +0.116 C 
BRANCH  19  21
ATOM     21  C   UNL A   1     -27.715  -0.083  33.533  0.00  0.00    +0.120 C 
BRANCH  21  22
ATOM     22  C   UNL A   1     -28.388  -1.234  32.997  0.00  0.00    -0.005 C 
ATOM     23  C   UNL A   1     -28.485  -1.231  31.664  0.00  0.00    -0.003 C 
BRANCH  23  24
ATOM     24  C   UNL A   1     -29.247  -2.254  30.976  0.00  0.00    -0.005 C 
ATOM     25  C   UNL A   1     -29.296  -3.603  31.395  0.00  0.00    -0.026 C 
ATOM     26  C   UNL A   1     -29.965  -4.580  30.714  0.00  0.00    +0.031 C 
ENDBRANCH  23  24
ENDBRANCH  21  22
ENDBRANCH  19  21
ENDBRANCH   8  17
BRANCH   5  27
ATOM     27  C   UNL A   1     -24.006   1.295  26.303  0.00  0.00    +0.284 C 
ATOM     28  N   UNL A   1     -23.131   2.311  26.172  0.00  0.00    -0.084 NA
ATOM     29  O   UNL A   1     -24.560   0.744  25.321  0.00  0.00    -0.267 OA
ENDBRANCH   5  27
TORSDOF 6
ENDMDL
ENDMDL
