MODEL 3592
MODEL 1
REMARK VINA RESULT:    -7.862      0.000      0.000
REMARK INTER + INTRA:         -12.219
REMARK INTER:                  -9.700
REMARK INTRA:                  -2.518
REMARK UNBOUND:                -2.518
REMARK  Name = No_3592-gen_results/8p0m/2024-11-27-11-27-31/
REMARK  4 active torsions:
REMARK  status: ('A' for Active; 'I' for Inactive)
REMARK    1  A    between atoms: C_5  and  C_8
REMARK    2  A    between atoms: C_9  and  C_10
REMARK    3  A    between atoms: C_11  and  C_12
REMARK    4  A    between atoms: C_11  and  C_18
REMARK                            x       y       z     vdW  Elec       q    Type
REMARK                         _______ _______ _______ _____ _____    ______ ____
ROOT
ATOM      1  C   UNL A   1     -24.655  -1.390  28.484  0.00  0.00    +0.000 C 
ATOM      2  C   UNL A   1     -25.360  -1.526  29.435  0.00  0.00    +0.000 C 
ENDROOT
BRANCH   1   4
ATOM      3  C   UNL A   1     -23.833   0.565  27.413  0.00  0.00    +0.000 A 
ATOM      4  C   UNL A   1     -23.622  -0.436  28.172  0.00  0.00    +0.000 A 
ATOM      5  C   UNL A   1     -22.951   1.545  26.948  0.00  0.00    +0.000 A 
ATOM      6  C   UNL A   1     -21.879   1.717  27.640  0.00  0.00    +0.000 A 
ATOM      7  C   UNL A   1     -21.494   0.630  28.584  0.00  0.00    +0.000 A 
ATOM      8  C   UNL A   1     -22.334  -0.439  28.925  0.00  0.00    +0.000 A 
BRANCH   3  13
ATOM      9  C   UNL A   1     -26.029  -0.223  24.681  0.00  0.00    +0.030 A 
ATOM     10  C   UNL A   1     -25.200  -0.087  25.317  0.00  0.00    +0.002 A 
ATOM     11  C   UNL A   1     -27.224   0.487  25.038  0.00  0.00    +0.140 A 
ATOM     12  C   UNL A   1     -27.360   1.153  26.188  0.00  0.00    +0.030 A 
ATOM     13  C   UNL A   1     -25.125   0.568  26.615  0.00  0.00    +0.000 A 
ATOM     14  C   UNL A   1     -26.229   1.211  26.970  0.00  0.00    +0.002 A 
ATOM     15  F   UNL A   1     -28.283   0.366  24.163  0.00  0.00    -0.204 F 
ENDBRANCH   3  13
ENDBRANCH   1   4
BRANCH   2  16
ATOM     16  C   UNL A   1     -26.405  -2.547  29.723  0.00  0.00    +0.000 A 
ATOM     17  C   UNL A   1     -26.207  -3.940  29.639  0.00  0.00    +0.000 A 
ATOM     18  C   UNL A   1     -27.221  -4.837  29.988  0.00  0.00    +0.000 A 
ATOM     19  C   UNL A   1     -28.392  -4.394  30.608  0.00  0.00    +0.000 A 
ATOM     20  C   UNL A   1     -28.555  -3.043  30.764  0.00  0.00    +0.000 A 
ATOM     21  C   UNL A   1     -27.626  -2.130  30.369  0.00  0.00    +0.000 A 
ENDBRANCH   2  16
BRANCH   2  22
ATOM     22  C   UNL A   1     -25.227  -0.649  30.636  0.00  0.00    +0.000 A 
ATOM     23  C   UNL A   1     -25.653   0.610  30.605  0.00  0.00    +0.000 A 
ATOM     24  C   UNL A   1     -25.623   1.334  31.846  0.00  0.00    +0.000 A 
ATOM     25  C   UNL A   1     -24.938   0.805  32.958  0.00  0.00    +0.000 A 
ATOM     26  C   UNL A   1     -24.594  -1.132  31.782  0.00  0.00    +0.000 A 
ATOM     27  C   UNL A   1     -24.467  -0.425  32.904  0.00  0.00    +0.000 A 
ENDBRANCH   2  22
TORSDOF 4
ENDMDL
ENDMDL
