REMARK  Name = outputs/IAG933/test6/raw/output_3592_IAG933_linker_design_.xyz
REMARK  11 active torsions:
REMARK  status: ('A' for Active; 'I' for Inactive)
REMARK    1  A    between atoms: C_1  and  C_2
REMARK    2  A    between atoms: C_1  and  C_8
REMARK    3  A    between atoms: C_1  and  N_28
REMARK    4  A    between atoms: C_13  and  C_37
REMARK    5  A    between atoms: C_14  and  C_15
REMARK    6  A    between atoms: C_21  and  O_22
REMARK    7  A    between atoms: O_22  and  C_23
REMARK    8  A    between atoms: C_23  and  C_24
REMARK    9  A    between atoms: N_28  and  C_32
REMARK   10  A    between atoms: N_28  and  C_44
REMARK   11  A    between atoms: C_29  and  C_32
REMARK                            x       y       z     vdW  Elec       q    Type
REMARK                         _______ _______ _______ _____ _____    ______ ____
ROOT
ATOM      1  N   UNL A   1     -25.428  -0.161  29.087  0.00  0.00    -0.280 N 
ENDROOT
BRANCH   1   8
ATOM      2  C   UNL A   1     -23.151   1.579  26.656  0.00  0.00    +0.056 C 
ATOM      3  C   UNL A   1     -22.275   1.073  27.608  0.00  0.00    +0.136 C 
ATOM      4  C   UNL A   1     -22.940   0.225  28.500  0.00  0.00    +0.010 C 
ATOM      5  C   UNL A   1     -24.492   1.222  27.145  0.00  0.00    +0.024 C 
ATOM      6 CL   UNL A   1     -20.683   1.600  27.685  0.00  0.00    -0.104 Cl
ATOM      7 CL   UNL A   1     -22.685   2.314  25.162  0.00  0.00    -0.085 Cl
ATOM      8  C   UNL A   1     -24.383   0.371  28.274  0.00  0.00    +0.048 C 
BRANCH   5   9
ATOM      9  C   UNL A   1     -25.688   1.614  26.461  0.00  0.00    +0.040 C 
ATOM     10  C   UNL A   1     -26.250   2.920  26.395  0.00  0.00    +0.077 C 
ATOM     11  C   UNL A   1     -27.438   3.091  25.645  0.00  0.00    +0.107 C 
ATOM     12  N   UNL A   1     -28.075   2.089  25.003  0.00  0.00    -0.208 NA
ATOM     13  C   UNL A   1     -27.543   0.849  25.079  0.00  0.00    +0.253 C 
ATOM     14  C   UNL A   1     -26.354   0.576  25.777  0.00  0.00    +0.193 C 
ATOM     15  F   UNL A   1     -25.860  -0.681  25.795  0.00  0.00    -0.199 F 
BRANCH  10  16
ATOM     16  C   UNL A   1     -25.642   4.093  27.123  0.00  0.00    +0.266 C 
ATOM     17  N   UNL A   1     -25.614   5.252  26.449  0.00  0.00    -0.200 NA
ATOM     18  C   UNL A   1     -25.026   6.479  26.963  0.00  0.00    +0.139 C 
ATOM     19  O   UNL A   1     -25.143   3.966  28.243  0.00  0.00    -0.268 OA
ENDBRANCH  10  16
BRANCH  13  20
ATOM     20  O   UNL A   1     -28.193  -0.208  24.477  0.00  0.00    -0.456 OA
BRANCH  20  21
ATOM     21  C   UNL A   1     -29.460   0.005  23.866  0.00  0.00    +0.243 C 
BRANCH  21  22
ATOM     22  C   UNL A   1     -30.065  -1.377  23.573  0.00  0.00    +0.229 C 
ATOM     23  O   UNL A   1     -30.729  -1.878  24.721  0.00  0.00    -0.216 OA
ENDBRANCH  21  22
ENDBRANCH  20  21
ENDBRANCH  13  20
ENDBRANCH   5   9
ENDBRANCH   1   8
BRANCH   1  24
ATOM     24  C   UNL A   1     -26.928   0.020  28.632  0.00  0.00    +0.232 C 
ATOM     25  O   UNL A   1     -27.643  -1.232  28.758  0.00  0.00    -0.200 OA
BRANCH  24  26
ATOM     26  C   UNL A   1     -27.772   1.162  29.404  0.00  0.00    +0.075 C 
ATOM     27  C   UNL A   1     -28.097   2.788  29.446  0.00  0.00    -0.012 C 
ATOM     28  N   UNL A   1     -29.840   2.583  27.858  0.00  0.00    -0.263 N 
ATOM     29  C   UNL A   1     -29.054   3.324  28.605  0.00  0.00    +0.028 C 
ATOM     30  C   UNL A   1     -29.808   1.133  27.960  0.00  0.00    +0.098 C 
ATOM     31  C   UNL A   1     -29.212   0.636  29.319  0.00  0.00    +0.031 C 
ATOM     32  O   UNL A   1     -31.128   3.026  25.907  0.00  0.00    -0.275 OA
ATOM     33  C   UNL A   1     -30.457   4.786  27.451  0.00  0.00    +0.092 C 
ATOM     34  C   UNL A   1     -30.543   3.434  27.049  0.00  0.00    +0.230 C 
ATOM     35  C   UNL A   1     -29.346   4.752  28.331  0.00  0.00    +0.051 C 
ENDBRANCH  24  26
ENDBRANCH   1  24
BRANCH   1  36
ATOM     36  C   UNL A   1     -24.855  -1.012  30.143  0.00  0.00    +0.113 C 
BRANCH  36  37
ATOM     37  C   UNL A   1     -24.973  -2.505  29.788  0.00  0.00    -0.003 C 
ATOM     38  C   UNL A   1     -23.906  -3.173  29.146  0.00  0.00    -0.003 C 
ATOM     39  C   UNL A   1     -23.989  -4.549  28.853  0.00  0.00    -0.000 C 
ATOM     40  C   UNL A   1     -25.137  -5.280  29.205  0.00  0.00    -0.000 C 
ATOM     41  C   UNL A   1     -26.232  -4.611  29.784  0.00  0.00    -0.000 C 
ATOM     42  C   UNL A   1     -26.155  -3.232  30.065  0.00  0.00    -0.003 C 
ENDBRANCH  36  37
BRANCH  36  43
ATOM     43  C   UNL A   1     -25.387  -0.679  31.571  0.00  0.00    +0.095 C 
ATOM     44  C   UNL A   1     -25.189   0.773  32.028  0.00  0.00    +0.021 C 
ATOM     45  C   UNL A   1     -25.336   0.684  33.544  0.00  0.00    +0.020 C 
ATOM     46  C   UNL A   1     -24.829  -0.715  33.905  0.00  0.00    +0.089 C 
ATOM     47  N   UNL A   1     -24.758  -1.481  32.646  0.00  0.00    -0.217 NA
ENDBRANCH  36  43
ENDBRANCH   1  36
TORSDOF 11
