MODEL 3593
MODEL 1
REMARK VINA RESULT:    -5.739      0.000      0.000
REMARK INTER + INTRA:          -6.741
REMARK INTER:                  -6.410
REMARK INTRA:                  -0.331
REMARK UNBOUND:                -0.331
REMARK  Name = No_3593-gen_results/8p0m/2024-11-27-11-27-31/
REMARK  2 active torsions:
REMARK  status: ('A' for Active; 'I' for Inactive)
REMARK    1  A    between atoms: C_1  and  C_2
REMARK    2  A    between atoms: C_5  and  C_9
REMARK                            x       y       z     vdW  Elec       q    Type
REMARK                         _______ _______ _______ _____ _____    ______ ____
ROOT
ATOM      1  C   UNL A   1     -22.815   0.990  27.767  0.00  0.00    +0.044 A 
ATOM      2  C   UNL A   1     -23.961   0.487  27.405  0.00  0.00    +0.001 A 
ATOM      3  C   UNL A   1     -24.541  -0.798  27.868  0.00  0.00    +0.004 A 
ATOM      4  C   UNL A   1     -23.741  -1.569  28.757  0.00  0.00    +0.071 A 
ATOM      5  C   UNL A   1     -22.508  -1.072  29.094  0.00  0.00    +0.004 A 
ATOM      6  C   UNL A   1     -22.008   0.100  28.637  0.00  0.00    +0.001 A 
ENDROOT
BRANCH   4   7
ATOM      7  C   UNL A   1     -24.206  -2.819  29.289  0.00  0.00    +0.419 C 
ATOM      8  F   UNL A   1     -24.031  -3.005  30.477  0.00  0.00    -0.166 F 
ATOM      9  F   UNL A   1     -25.530  -3.074  29.001  0.00  0.00    -0.166 F 
ATOM     10  F   UNL A   1     -23.612  -3.906  28.601  0.00  0.00    -0.166 F 
ENDBRANCH   4   7
BRANCH   1  11
ATOM     11  C   UNL A   1     -22.314   2.029  27.406  0.00  0.00    +0.341 C 
ATOM     12  F   UNL A   1     -20.888   1.773  27.593  0.00  0.00    -0.193 F 
ATOM     13  F   UNL A   1     -22.435   2.285  26.108  0.00  0.00    -0.193 F 
ENDBRANCH   1  11
TORSDOF 2
ENDMDL
ENDMDL
