REMARK  Name = outputs/IAG933/test6/raw/output_3593_IAG933_linker_design_.xyz
REMARK  16 active torsions:
REMARK  status: ('A' for Active; 'I' for Inactive)
REMARK    1  A    between atoms: C_1  and  C_2
REMARK    2  A    between atoms: C_1  and  C_8
REMARK    3  A    between atoms: C_1  and  N_41
REMARK    4  A    between atoms: C_13  and  C_40
REMARK    5  A    between atoms: C_14  and  C_15
REMARK    6  A    between atoms: C_21  and  O_22
REMARK    7  A    between atoms: O_22  and  C_23
REMARK    8  A    between atoms: C_23  and  C_24
REMARK    9  A    between atoms: C_28  and  C_43
REMARK   10  A    between atoms: C_31  and  N_41
REMARK   11  A    between atoms: C_34  and  N_39
REMARK   12  A    between atoms: C_34  and  C_42
REMARK   13  A    between atoms: C_34  and  C_43
REMARK   14  A    between atoms: O_36  and  C_38
REMARK   15  A    between atoms: O_36  and  N_39
REMARK   16  A    between atoms: C_38  and  N_41
REMARK                            x       y       z     vdW  Elec       q    Type
REMARK                         _______ _______ _______ _____ _____    ______ ____
ROOT
ATOM      1  N   UNL A   1     -24.674  -0.107  28.936  0.00  0.00    -0.278 N 
ENDROOT
BRANCH   1   3
ATOM      2  C   UNL A   1     -22.482   1.003  28.520  0.00  0.00    +0.014 C 
ATOM      3  C   UNL A   1     -23.832   0.788  28.099  0.00  0.00    +0.046 C 
ATOM      4  C   UNL A   1     -21.977   2.189  26.459  0.00  0.00    -0.000 C 
ATOM      5  C   UNL A   1     -23.292   2.026  25.992  0.00  0.00    -0.003 C 
ATOM      6  C   UNL A   1     -24.261   1.463  26.851  0.00  0.00    -0.002 C 
ATOM      7  C   UNL A   1     -21.560   1.666  27.706  0.00  0.00    +0.001 C 
BRANCH   6   8
ATOM      8  C   UNL A   1     -25.688   1.614  26.461  0.00  0.00    +0.093 C 
ATOM      9  C   UNL A   1     -26.250   2.920  26.395  0.00  0.00    +0.059 C 
ATOM     10  C   UNL A   1     -27.438   3.091  25.645  0.00  0.00    +0.102 C 
ATOM     11  N   UNL A   1     -28.075   2.089  25.003  0.00  0.00    -0.212 NA
ATOM     12  C   UNL A   1     -27.543   0.849  25.079  0.00  0.00    +0.234 C 
ATOM     13  C   UNL A   1     -26.354   0.576  25.777  0.00  0.00    +0.244 C 
ATOM     14  F   UNL A   1     -25.860  -0.681  25.795  0.00  0.00    -0.227 F 
BRANCH   9  15
ATOM     15  C   UNL A   1     -25.642   4.093  27.123  0.00  0.00    +0.263 C 
ATOM     16  N   UNL A   1     -25.614   5.252  26.449  0.00  0.00    -0.200 NA
ATOM     17  C   UNL A   1     -25.026   6.479  26.963  0.00  0.00    +0.139 C 
ATOM     18  O   UNL A   1     -25.143   3.966  28.243  0.00  0.00    -0.269 OA
ENDBRANCH   9  15
BRANCH  12  19
ATOM     19  O   UNL A   1     -28.193  -0.208  24.477  0.00  0.00    -0.459 OA
BRANCH  19  20
ATOM     20  C   UNL A   1     -29.460   0.005  23.866  0.00  0.00    +0.242 C 
BRANCH  20  21
ATOM     21  C   UNL A   1     -30.065  -1.377  23.573  0.00  0.00    +0.229 C 
ATOM     22  O   UNL A   1     -30.729  -1.878  24.721  0.00  0.00    -0.216 OA
ENDBRANCH  20  21
ENDBRANCH  19  20
ENDBRANCH  12  19
ENDBRANCH   6   8
ENDBRANCH   1   3
BRANCH   1  23
ATOM     23  C   UNL A   1     -24.855  -1.012  30.143  0.00  0.00    +0.114 C 
BRANCH  23  24
ATOM     24  C   UNL A   1     -24.973  -2.505  29.788  0.00  0.00    -0.003 C 
ATOM     25  C   UNL A   1     -23.906  -3.173  29.146  0.00  0.00    -0.003 C 
ATOM     26  C   UNL A   1     -23.989  -4.549  28.853  0.00  0.00    -0.000 C 
ATOM     27  C   UNL A   1     -25.137  -5.280  29.205  0.00  0.00    -0.000 C 
ATOM     28  C   UNL A   1     -26.232  -4.611  29.784  0.00  0.00    -0.000 C 
ATOM     29  C   UNL A   1     -26.155  -3.232  30.065  0.00  0.00    -0.003 C 
ENDBRANCH  23  24
BRANCH  23  30
ATOM     30  C   UNL A   1     -25.387  -0.679  31.571  0.00  0.00    +0.095 C 
ATOM     31  C   UNL A   1     -25.189   0.773  32.028  0.00  0.00    +0.021 C 
ATOM     32  C   UNL A   1     -25.336   0.684  33.544  0.00  0.00    +0.020 C 
ATOM     33  C   UNL A   1     -24.829  -0.715  33.905  0.00  0.00    +0.089 C 
ATOM     34  N   UNL A   1     -24.758  -1.481  32.646  0.00  0.00    -0.217 NA
ENDBRANCH  23  30
ENDBRANCH   1  23
BRANCH   1  35
ATOM     35  C   UNL A   1     -26.183  -0.043  28.423  0.00  0.00    +0.264 C 
BRANCH  35  36
ATOM     36  O   UNL A   1     -26.971   0.861  29.299  0.00  0.00    -0.244 OA
BRANCH  36  37
ATOM     37  N   UNL A   1     -27.764   2.005  29.498  0.00  0.00    -0.080 NA
BRANCH  37  38
ATOM     38  C   UNL A   1     -29.053   1.503  29.319  0.00  0.00    +0.145 C 
BRANCH  38  40
ATOM     39  O   UNL A   1     -28.893  -0.357  27.830  0.00  0.00    -0.219 OA
ATOM     40  C   UNL A   1     -28.424   0.162  29.119  0.00  0.00    +0.202 C 
ENDBRANCH  38  40
BRANCH  38  41
ATOM     41  C   UNL A   1     -30.040   2.586  30.010  0.00  0.00    +0.111 C 
BRANCH  41  42
ATOM     42  C   UNL A   1     -30.121   3.552  28.880  0.00  0.00    +0.262 C 
ATOM     43  N   UNL A   1     -30.114   4.808  29.174  0.00  0.00    -0.088 NA
ATOM     44  O   UNL A   1     -30.371   3.196  27.713  0.00  0.00    -0.272 OA
ENDBRANCH  41  42
ENDBRANCH  38  41
ENDBRANCH  37  38
ENDBRANCH  36  37
ENDBRANCH  35  36
ENDBRANCH   1  35
TORSDOF 16
