REMARK  Name = outputs/IAG933/test6/raw/output_3596_IAG933_linker_design_.xyz
REMARK  15 active torsions:
REMARK  status: ('A' for Active; 'I' for Inactive)
REMARK    1  A    between atoms: C_1  and  C_2
REMARK    2  A    between atoms: C_1  and  C_8
REMARK    3  A    between atoms: C_1  and  C_31
REMARK    4  A    between atoms: C_14  and  C_15
REMARK    5  A    between atoms: C_15  and  O_18
REMARK    6  A    between atoms: O_18  and  C_43
REMARK    7  A    between atoms: C_21  and  O_22
REMARK    8  A    between atoms: O_22  and  C_23
REMARK    9  A    between atoms: C_23  and  C_24
REMARK   10  A    between atoms: C_31  and  C_32
REMARK   11  A    between atoms: C_31  and  C_36
REMARK   12  A    between atoms: C_32  and  O_38
REMARK   13  A    between atoms: C_36  and  C_41
REMARK   14  A    between atoms: O_38  and  C_43
REMARK   15  A    between atoms: C_43  and  C_44
REMARK                            x       y       z     vdW  Elec       q    Type
REMARK                         _______ _______ _______ _____ _____    ______ ____
ROOT
ATOM      1  C   UNL A   1     -25.527   3.973  29.652  0.00  0.00    +0.314 C 
ENDROOT
BRANCH   1  10
ATOM      2  C   UNL A   1     -28.421   5.490  31.748  0.00  0.00    -0.000 C 
ATOM      3  C   UNL A   1     -29.177   4.344  31.903  0.00  0.00    -0.000 C 
ATOM      4  C   UNL A   1     -27.887   2.399  29.029  0.00  0.00    -0.000 C 
ATOM      5  C   UNL A   1     -29.622   1.948  31.155  0.00  0.00    -0.000 C 
ATOM      6  C   UNL A   1     -28.911   3.179  31.079  0.00  0.00    -0.000 C 
ATOM      7  C   UNL A   1     -28.587   1.178  29.109  0.00  0.00    -0.000 C 
ATOM      8  C   UNL A   1     -29.430   0.965  30.197  0.00  0.00    -0.000 C 
ATOM      9  C   UNL A   1     -27.300   5.498  30.888  0.00  0.00    +0.002 C 
ATOM     10  C   UNL A   1     -26.932   4.314  30.243  0.00  0.00    +0.047 C 
ATOM     11  C   UNL A   1     -27.883   3.276  30.133  0.00  0.00    +0.002 C 
ENDBRANCH   1  10
BRANCH   1  12
ATOM     12  O   UNL A   1     -25.143   3.966  28.243  0.00  0.00    -0.433 OA
BRANCH  12  13
ATOM     13  C   UNL A   1     -25.642   4.093  27.123  0.00  0.00    +0.224 C 
ATOM     14  N   UNL A   1     -25.614   5.252  26.449  0.00  0.00    -0.236 NA
ATOM     15  C   UNL A   1     -25.026   6.479  26.963  0.00  0.00    +0.155 C 
BRANCH  13  17
ATOM     16  C   UNL A   1     -25.688   1.614  26.461  0.00  0.00    +0.041 C 
ATOM     17  C   UNL A   1     -26.250   2.920  26.395  0.00  0.00    +0.074 C 
ATOM     18  C   UNL A   1     -27.438   3.091  25.645  0.00  0.00    +0.107 C 
ATOM     19  N   UNL A   1     -28.075   2.089  25.003  0.00  0.00    -0.208 NA
ATOM     20  C   UNL A   1     -27.543   0.849  25.079  0.00  0.00    +0.253 C 
ATOM     21  C   UNL A   1     -26.354   0.576  25.777  0.00  0.00    +0.193 C 
ATOM     22  F   UNL A   1     -25.860  -0.681  25.795  0.00  0.00    -0.199 F 
BRANCH  20  23
ATOM     23  O   UNL A   1     -28.193  -0.208  24.477  0.00  0.00    -0.456 OA
BRANCH  23  24
ATOM     24  C   UNL A   1     -29.460   0.005  23.866  0.00  0.00    +0.243 C 
BRANCH  24  25
ATOM     25  C   UNL A   1     -30.065  -1.377  23.573  0.00  0.00    +0.229 C 
ATOM     26  O   UNL A   1     -30.729  -1.878  24.721  0.00  0.00    -0.216 OA
ENDBRANCH  24  25
ENDBRANCH  23  24
ENDBRANCH  20  23
ENDBRANCH  13  17
ENDBRANCH  12  13
ENDBRANCH   1  12
BRANCH   1  27
ATOM     27  O   UNL A   1     -25.105   2.577  30.022  0.00  0.00    -0.317 OA
BRANCH  27  28
ATOM     28  C   UNL A   1     -23.972   1.826  29.491  0.00  0.00    +0.147 C 
BRANCH  28  29
ATOM     29  C   UNL A   1     -24.194   0.233  29.415  0.00  0.00    +0.036 C 
BRANCH  29  30
ATOM     30  C   UNL A   1     -24.855  -1.012  30.143  0.00  0.00    +0.041 C 
BRANCH  30  31
ATOM     31  C   UNL A   1     -24.973  -2.505  29.788  0.00  0.00    -0.021 C 
ATOM     32  C   UNL A   1     -23.906  -3.173  29.146  0.00  0.00    -0.004 C 
ATOM     33  C   UNL A   1     -23.989  -4.549  28.853  0.00  0.00    -0.000 C 
ATOM     34  C   UNL A   1     -25.137  -5.280  29.205  0.00  0.00    -0.000 C 
ATOM     35  C   UNL A   1     -26.232  -4.611  29.784  0.00  0.00    -0.000 C 
ATOM     36  C   UNL A   1     -26.155  -3.232  30.065  0.00  0.00    -0.004 C 
ENDBRANCH  30  31
BRANCH  30  37
ATOM     37  C   UNL A   1     -25.387  -0.679  31.571  0.00  0.00    +0.077 C 
ATOM     38  C   UNL A   1     -25.189   0.773  32.028  0.00  0.00    +0.019 C 
ATOM     39  C   UNL A   1     -25.336   0.684  33.544  0.00  0.00    +0.020 C 
ATOM     40  C   UNL A   1     -24.829  -0.715  33.905  0.00  0.00    +0.089 C 
ATOM     41  N   UNL A   1     -24.758  -1.481  32.646  0.00  0.00    -0.219 NA
ENDBRANCH  30  37
ENDBRANCH  29  30
BRANCH  29  42
ATOM     42  C   UNL A   1     -22.732  -0.271  29.093  0.00  0.00    +0.019 C 
BRANCH  42  45
ATOM     43 CL   UNL A   1     -21.757   1.806  27.159  0.00  0.00    -0.115 Cl
ATOM     44  C   UNL A   1     -20.394  -0.000  28.488  0.00  0.00    +0.018 C 
ATOM     45  C   UNL A   1     -21.759   0.642  28.593  0.00  0.00    +0.080 C 
ENDBRANCH  42  45
ENDBRANCH  29  42
ENDBRANCH  28  29
ENDBRANCH  27  28
ENDBRANCH   1  27
TORSDOF 15
