MODEL 3596
MODEL 1
REMARK VINA RESULT:    -6.379      0.000      0.000
REMARK INTER + INTRA:          -7.977
REMARK INTER:                  -7.498
REMARK INTRA:                  -0.479
REMARK UNBOUND:                -0.479
REMARK  Name = No_3596-gen_results/8p0m/2024-11-27-11-27-31/
REMARK  3 active torsions:
REMARK  status: ('A' for Active; 'I' for Inactive)
REMARK    1  A    between atoms: N_3  and  C_7
REMARK    2  A    between atoms: C_6  and  O_15
REMARK    3  A    between atoms: C_7  and  C_8
REMARK                            x       y       z     vdW  Elec       q    Type
REMARK                         _______ _______ _______ _____ _____    ______ ____
ROOT
ATOM      1  C   UNL A   1     -24.161   0.139  27.327  0.00  0.00    +0.076 C 
ATOM      2  C   UNL A   1     -24.322   1.053  26.829  0.00  0.00    +0.063 C 
ATOM      3  N   UNL A   1     -24.787  -0.008  28.587  0.00  0.00    -0.267 NA
ATOM      4  C   UNL A   1     -25.926   0.711  28.787  0.00  0.00    +0.106 C 
ATOM      5  C   UNL A   1     -25.599   1.885  26.689  0.00  0.00    +0.196 C 
ATOM      6  C   UNL A   1     -26.202   1.899  28.025  0.00  0.00    +0.171 C 
ATOM      7  O   UNL A   1     -25.479   3.211  26.305  0.00  0.00    -0.474 OA
ATOM      8  C   UNL A   1     -24.625   3.735  25.949  0.00  0.00    +0.168 C 
ATOM      9  C   UNL A   1     -23.493   3.108  25.614  0.00  0.00    +0.014 C 
ATOM     10  C   UNL A   1     -23.166   1.822  26.081  0.00  0.00    +0.034 C 
ENDROOT
BRANCH   6  11
ATOM     11  O   UNL A   1     -25.677   2.979  28.774  0.00  0.00    -0.348 OA
ATOM     12  C   UNL A   1     -25.898   3.086  30.102  0.00  0.00    +0.174 C 
ENDBRANCH   6  11
BRANCH   3  13
ATOM     13  C   UNL A   1     -24.476  -0.965  29.598  0.00  0.00    +0.099 C 
BRANCH  13  14
ATOM     14  C   UNL A   1     -24.904  -2.343  29.243  0.00  0.00    -0.006 A 
ATOM     15  C   UNL A   1     -23.885  -3.166  28.865  0.00  0.00    -0.003 A 
ATOM     16  C   UNL A   1     -24.111  -4.570  28.706  0.00  0.00    -0.000 A 
ATOM     17  C   UNL A   1     -25.305  -5.073  29.121  0.00  0.00    -0.000 A 
ATOM     18  C   UNL A   1     -26.078  -2.924  29.756  0.00  0.00    -0.003 A 
ATOM     19  C   UNL A   1     -26.310  -4.234  29.706  0.00  0.00    -0.000 A 
ENDBRANCH  13  14
ENDBRANCH   3  13
TORSDOF 3
ENDMDL
ENDMDL
