REMARK  Name = No_3597-gen_results/8p0m/2024-11-27-11-27-31/
REMARK  1 active torsions:
REMARK  status: ('A' for Active; 'I' for Inactive)
REMARK    1  A    between atoms: C_2  and  C_3
REMARK                            x       y       z     vdW  Elec       q    Type
REMARK                         _______ _______ _______ _____ _____    ______ ____
ROOT
ATOM      1  N   UNL A   1     -28.054  -1.050  28.725  0.00  0.00    -0.244 NA
ATOM      2  C   UNL A   1     -26.966  -0.472  28.771  0.00  0.00    +0.081 A 
ATOM      3  C   UNL A   1     -26.875   0.847  27.993  0.00  0.00    +0.019 A 
ATOM      4  C   UNL A   1     -28.000   1.290  27.293  0.00  0.00    +0.003 A 
ATOM      5  C   UNL A   1     -29.217  -0.498  28.260  0.00  0.00    +0.099 A 
ATOM      6  C   UNL A   1     -29.163   0.643  27.528  0.00  0.00    +0.021 A 
ENDROOT
BRANCH   2   7
ATOM      7  C   UNL A   1     -25.853  -0.925  29.379  0.00  0.00    +0.018 A 
ATOM      8  C   UNL A   1     -24.553  -0.259  29.459  0.00  0.00    +0.002 A 
ATOM      9  C   UNL A   1     -23.424  -0.717  30.142  0.00  0.00    +0.000 A 
ATOM     10  C   UNL A   1     -23.563  -1.982  30.664  0.00  0.00    +0.000 A 
ATOM     11  C   UNL A   1     -24.716  -2.692  30.531  0.00  0.00    +0.000 A 
ATOM     12  C   UNL A   1     -25.779  -2.239  29.911  0.00  0.00    +0.002 A 
ENDBRANCH   2   7
TORSDOF 1
