MODEL 3597
MODEL 1
REMARK VINA RESULT:    -6.140      0.000      0.000
REMARK INTER + INTRA:          -6.711
REMARK INTER:                  -6.498
REMARK INTRA:                  -0.212
REMARK UNBOUND:                -0.212
REMARK  Name = No_3597-gen_results/8p0m/2024-11-27-11-27-31/
REMARK  1 active torsions:
REMARK  status: ('A' for Active; 'I' for Inactive)
REMARK    1  A    between atoms: C_2  and  C_3
REMARK                            x       y       z     vdW  Elec       q    Type
REMARK                         _______ _______ _______ _____ _____    ______ ____
ROOT
ATOM      1  N   UNL A   1     -25.642  -2.533  29.760  0.00  0.00    -0.244 NA
ATOM      2  C   UNL A   1     -24.612  -2.542  29.082  0.00  0.00    +0.081 A 
ATOM      3  C   UNL A   1     -24.114  -3.924  28.641  0.00  0.00    +0.019 A 
ATOM      4  C   UNL A   1     -24.836  -5.053  29.035  0.00  0.00    +0.003 A 
ATOM      5  C   UNL A   1     -26.481  -3.601  29.928  0.00  0.00    +0.099 A 
ATOM      6  C   UNL A   1     -26.050  -4.842  29.591  0.00  0.00    +0.021 A 
ENDROOT
BRANCH   2   7
ATOM      7  C   UNL A   1     -23.866  -1.469  28.759  0.00  0.00    +0.018 A 
ATOM      8  C   UNL A   1     -22.552  -1.109  29.292  0.00  0.00    +0.002 A 
ATOM      9  C   UNL A   1     -21.766  -0.022  28.905  0.00  0.00    +0.000 A 
ATOM     10  C   UNL A   1     -22.391   0.834  28.028  0.00  0.00    +0.000 A 
ATOM     11  C   UNL A   1     -23.654   0.605  27.577  0.00  0.00    +0.000 A 
ATOM     12  C   UNL A   1     -24.371  -0.436  27.927  0.00  0.00    +0.002 A 
ENDBRANCH   2   7
TORSDOF 1
ENDMDL
ENDMDL
