MODEL 3598
MODEL 1
REMARK VINA RESULT:    -7.298      0.000      0.000
REMARK INTER + INTRA:         -11.655
REMARK INTER:                 -10.285
REMARK INTRA:                  -1.370
REMARK UNBOUND:                -1.370
REMARK  Name = No_3598-gen_results/8p0m/2024-11-27-11-27-31/
REMARK  7 active torsions:
REMARK  status: ('A' for Active; 'I' for Inactive)
REMARK    1  A    between atoms: C_2  and  C_4
REMARK    2  A    between atoms: C_4  and  C_5
REMARK    3  A    between atoms: C_5  and  C_6
REMARK    4  A    between atoms: C_6  and  C_7
REMARK    5  A    between atoms: C_6  and  C_14
REMARK    6  A    between atoms: C_7  and  C_8
REMARK    7  A    between atoms: N_17  and  C_18
REMARK                            x       y       z     vdW  Elec       q    Type
REMARK                         _______ _______ _______ _____ _____    ______ ____
ROOT
ATOM      1  C   UNL A   1     -24.368   0.386  28.125  0.00  0.00    +0.084 C 
ENDROOT
BRANCH   1   2
ATOM      2  C   UNL A   1     -25.160  -0.074  29.284  0.00  0.00    +0.229 C 
ATOM      3  N   UNL A   1     -24.874  -1.218  29.777  0.00  0.00    -0.257 N 
ATOM      4  C   UNL A   1     -25.019  -1.276  31.345  0.00  0.00    +0.120 C 
ATOM      5  O   UNL A   1     -26.018   0.708  29.712  0.00  0.00    -0.275 OA
BRANCH   3   6
ATOM      6  C   UNL A   1     -25.098  -2.416  29.313  0.00  0.00    +0.054 A 
ATOM      7  C   UNL A   1     -26.179  -3.226  29.767  0.00  0.00    +0.015 A 
ATOM      8  C   UNL A   1     -26.140  -4.623  29.656  0.00  0.00    +0.001 A 
ATOM      9  C   UNL A   1     -25.054  -5.247  28.983  0.00  0.00    +0.000 A 
ATOM     10  C   UNL A   1     -23.978  -4.423  28.600  0.00  0.00    +0.001 A 
ATOM     11  C   UNL A   1     -23.973  -3.095  28.811  0.00  0.00    +0.015 A 
ENDBRANCH   3   6
ENDBRANCH   1   2
BRANCH   1  12
ATOM     12  C   UNL A   1     -23.327   1.301  28.375  0.00  0.00    +0.051 C 
BRANCH  12  13
ATOM     13  C   UNL A   1     -22.002   0.928  28.157  0.00  0.00    +0.228 C 
ATOM     14  F   UNL A   1     -21.267   1.487  27.286  0.00  0.00    -0.231 F 
BRANCH  13  16
ATOM     15  F   UNL A   1     -20.686  -0.823  28.502  0.00  0.00    -0.195 F 
ATOM     16  C   UNL A   1     -21.466  -0.124  28.966  0.00  0.00    +0.350 C 
ATOM     17  F   UNL A   1     -21.805  -0.361  30.069  0.00  0.00    -0.195 F 
ENDBRANCH  13  16
ENDBRANCH  12  13
ENDBRANCH   1  12
BRANCH   1  18
ATOM     18  C   UNL A   1     -24.625   0.124  26.876  0.00  0.00    +0.038 C 
BRANCH  18  19
ATOM     19  C   UNL A   1     -25.711   0.947  26.333  0.00  0.00    +0.013 A 
ATOM     20  C   UNL A   1     -25.882   2.231  26.731  0.00  0.00    +0.000 A 
ATOM     21  C   UNL A   1     -26.377   0.387  25.152  0.00  0.00    +0.166 A 
ATOM     22  N   UNL A   1     -26.214  -0.838  24.803  0.00  0.00    -0.107 NA
ATOM     23  N   UNL A   1     -27.139   1.217  24.403  0.00  0.00    -0.226 NA
ATOM     24  C   UNL A   1     -26.886   2.973  25.909  0.00  0.00    +0.021 A 
ATOM     25  C   UNL A   1     -27.436   2.457  24.795  0.00  0.00    +0.100 A 
ENDBRANCH  18  19
ENDBRANCH   1  18
TORSDOF 7
ENDMDL
ENDMDL
