MODEL 3599
MODEL 1
REMARK VINA RESULT:    -6.578      0.000      0.000
REMARK INTER + INTRA:          -8.149
REMARK INTER:                  -7.732
REMARK INTRA:                  -0.417
REMARK UNBOUND:                -0.417
REMARK  Name = No_3599-gen_results/8p0m/2024-11-27-11-27-31/
REMARK  3 active torsions:
REMARK  status: ('A' for Active; 'I' for Inactive)
REMARK    1  A    between atoms: C_2  and  O_7
REMARK    2  A    between atoms: O_7  and  C_8
REMARK    3  A    between atoms: C_8  and  C_9
REMARK                            x       y       z     vdW  Elec       q    Type
REMARK                         _______ _______ _______ _____ _____    ______ ____
ROOT
ATOM      1  O   UNL A   1     -24.667  -1.210  29.450  0.00  0.00    -0.471 OA
ENDROOT
BRANCH   1   3
ATOM      2  C   UNL A   1     -25.916  -2.920  29.809  0.00  0.00    +0.037 A 
ATOM      3  C   UNL A   1     -25.008  -2.637  29.356  0.00  0.00    +0.139 A 
ATOM      4  C   UNL A   1     -26.263  -4.389  29.709  0.00  0.00    +0.003 A 
ATOM      5  C   UNL A   1     -25.320  -5.286  29.165  0.00  0.00    +0.000 A 
ATOM      6  C   UNL A   1     -23.856  -3.357  28.769  0.00  0.00    +0.037 A 
ATOM      7  C   UNL A   1     -24.135  -4.713  28.666  0.00  0.00    +0.003 A 
ENDBRANCH   1   3
BRANCH   1   8
ATOM      8  C   UNL A   1     -23.555  -0.847  28.918  0.00  0.00    +0.232 C 
BRANCH   8   9
ATOM      9  C   UNL A   1     -23.390   0.165  28.102  0.00  0.00    +0.021 A 
ATOM     10  C   UNL A   1     -22.253   0.991  27.978  0.00  0.00    -0.001 A 
ATOM     11  C   UNL A   1     -22.093   1.919  26.999  0.00  0.00    -0.000 A 
ATOM     12  C   UNL A   1     -23.135   2.060  25.972  0.00  0.00    -0.000 A 
ATOM     13  C   UNL A   1     -24.248   1.238  26.021  0.00  0.00    -0.000 A 
ATOM     14  C   UNL A   1     -24.355   0.265  27.037  0.00  0.00    -0.001 A 
ENDBRANCH   8   9
ENDBRANCH   1   8
TORSDOF 3
ENDMDL
ENDMDL
