MODEL 359
MODEL 1
REMARK VINA RESULT:    -8.359      0.000      0.000
REMARK INTER + INTRA:         -13.734
REMARK INTER:                 -11.780
REMARK INTRA:                  -1.954
REMARK UNBOUND:                -1.954
REMARK  Name = No_359-gen_results/8p0m/2024-11-27-11-27-31/
REMARK  7 active torsions:
REMARK  status: ('A' for Active; 'I' for Inactive)
REMARK    1  A    between atoms: C_2  and  C_3
REMARK    2  A    between atoms: C_6  and  C_10
REMARK    3  A    between atoms: C_10  and  C_20
REMARK    4  A    between atoms: C_12  and  C_13
REMARK    5  A    between atoms: C_13  and  C_14
REMARK    6  A    between atoms: C_23  and  C_24
REMARK    7  A    between atoms: C_25  and  C_26
REMARK                            x       y       z     vdW  Elec       q    Type
REMARK                         _______ _______ _______ _____ _____    ______ ____
ROOT
ATOM      1  C   UNL A   1     -23.314  -0.669  29.544  0.00  0.00    +0.056 C 
ATOM      2  C   UNL A   1     -23.999   0.374  28.780  0.00  0.00    -0.027 C 
ATOM      3  C   UNL A   1     -23.170   1.027  27.821  0.00  0.00    -0.043 C 
ATOM      4  C   UNL A   1     -21.775  -0.236  29.564  0.00  0.00    +0.017 C 
ATOM      5  C   UNL A   1     -21.807   0.785  28.029  0.00  0.00    +0.023 C 
ENDROOT
BRANCH   1   9
ATOM      6  C   UNL A   1     -24.553  -0.873  33.853  0.00  0.00    +0.044 A 
ATOM      7  C   UNL A   1     -25.383  -0.327  32.687  0.00  0.00    +0.001 A 
ATOM      8  C   UNL A   1     -25.068  -0.236  31.282  0.00  0.00    -0.004 A 
ATOM      9  C   UNL A   1     -23.736  -0.731  30.959  0.00  0.00    -0.015 A 
ATOM     10  C   UNL A   1     -22.877  -1.219  31.966  0.00  0.00    -0.004 A 
ATOM     11  C   UNL A   1     -23.296  -1.207  33.249  0.00  0.00    +0.001 A 
BRANCH   6  13
ATOM     12  F   UNL A   1     -24.061  -0.843  35.681  0.00  0.00    -0.193 F 
ATOM     13  C   UNL A   1     -24.737  -0.854  34.837  0.00  0.00    +0.341 C 
ATOM     14  F   UNL A   1     -25.722   0.121  35.277  0.00  0.00    -0.193 F 
ENDBRANCH   6  13
ENDBRANCH   1   9
BRANCH   1  15
ATOM     15  C   UNL A   1     -23.508  -1.937  28.798  0.00  0.00    -0.019 C 
ATOM     16  C   UNL A   1     -23.889  -2.967  29.236  0.00  0.00    -0.004 C 
BRANCH  16  17
ATOM     17  C   UNL A   1     -24.014  -4.212  28.484  0.00  0.00    -0.000 C 
ATOM     18  C   UNL A   1     -24.886  -5.221  28.797  0.00  0.00    -0.000 C 
BRANCH  18  19
ATOM     19  C   UNL A   1     -25.769  -5.032  29.872  0.00  0.00    -0.000 C 
ATOM     20  C   UNL A   1     -26.987  -4.401  29.696  0.00  0.00    -0.000 C 
ENDBRANCH  18  19
ENDBRANCH  16  17
ENDBRANCH   1  15
BRANCH   3  21
ATOM     21  C   UNL A   1     -23.731   2.021  26.958  0.00  0.00    +0.048 C 
BRANCH  21  22
ATOM     22  C   UNL A   1     -24.841   1.666  26.305  0.00  0.00    -0.018 A 
ATOM     23  C   UNL A   1     -25.948   2.379  26.124  0.00  0.00    -0.004 A 
ATOM     24  C   UNL A   1     -27.004   1.931  25.274  0.00  0.00    -0.000 A 
ATOM     25  C   UNL A   1     -26.835   0.777  24.602  0.00  0.00    -0.000 A 
ATOM     26  C   UNL A   1     -24.749   0.388  25.510  0.00  0.00    -0.004 A 
ATOM     27  C   UNL A   1     -25.760  -0.026  24.705  0.00  0.00    -0.000 A 
ENDBRANCH  21  22
ENDBRANCH   3  21
TORSDOF 7
ENDMDL
ENDMDL
