REMARK  Name = No_36-gen_results/8p0m/2024-11-27-11-27-31/
REMARK  5 active torsions:
REMARK  status: ('A' for Active; 'I' for Inactive)
REMARK    1  A    between atoms: C_2  and  C_11
REMARK    2  A    between atoms: C_3  and  C_4
REMARK    3  A    between atoms: C_6  and  C_14
REMARK    4  A    between atoms: C_15  and  C_16
REMARK    5  A    between atoms: C_17  and  C_18
REMARK                            x       y       z     vdW  Elec       q    Type
REMARK                         _______ _______ _______ _____ _____    ______ ____
ROOT
ATOM      1  C   UNL A   1     -28.016  -0.814  28.878  0.00  0.00    +0.010 A 
ATOM      2  C   UNL A   1     -28.469  -0.785  29.829  0.00  0.00    +0.080 A 
ATOM      3  C   UNL A   1     -27.087   0.290  28.638  0.00  0.00    +0.072 A 
ATOM      4  C   UNL A   1     -28.391   0.104  30.980  0.00  0.00    +0.007 A 
ATOM      5  C   UNL A   1     -27.533   1.167  30.787  0.00  0.00    +0.000 A 
ATOM      6  C   UNL A   1     -26.828   1.256  29.645  0.00  0.00    +0.004 A 
ENDROOT
BRANCH   3   7
ATOM      7  C   UNL A   1     -26.252   0.411  27.422  0.00  0.00    +0.419 C 
ATOM      8  F   UNL A   1     -26.110   1.619  27.137  0.00  0.00    -0.166 F 
ATOM      9  F   UNL A   1     -25.062  -0.179  27.594  0.00  0.00    -0.166 F 
ATOM     10  F   UNL A   1     -26.878  -0.166  26.338  0.00  0.00    -0.166 F 
ENDBRANCH   3   7
BRANCH   2  11
ATOM     11  C   UNL A   1     -29.457  -2.026  30.215  0.00  0.00    +0.388 C 
ATOM     12  O   UNL A   1     -29.007  -3.180  30.408  0.00  0.00    -0.241 OA
ATOM     13  O   UNL A   1     -30.664  -1.842  30.356  0.00  0.00    -0.241 OA
ENDBRANCH   2  11
BRANCH   5  14
ATOM     14  C   UNL A   1     -27.324   2.187  31.840  0.00  0.00    -0.000 C 
ATOM     15  C   UNL A   1     -26.512   3.024  31.758  0.00  0.00    -0.000 C 
BRANCH  15  16
ATOM     16  C   UNL A   1     -26.088   3.984  32.153  0.00  0.00    -0.000 C 
ATOM     17  C   UNL A   1     -24.881   4.850  31.908  0.00  0.00    -0.000 C 
BRANCH  17  18
ATOM     18  C   UNL A   1     -24.622   6.095  32.501  0.00  0.00    -0.005 C 
ATOM     19  C   UNL A   1     -25.487   6.617  33.434  0.00  0.00    -0.026 C 
ATOM     20  C   UNL A   1     -26.589   5.896  33.775  0.00  0.00    +0.031 C 
ENDBRANCH  17  18
ENDBRANCH  15  16
ENDBRANCH   5  14
TORSDOF 5
