REMARK  Name = outputs/IAG933/test6/raw/output_3600_IAG933_linker_design_.xyz
REMARK  11 active torsions:
REMARK  status: ('A' for Active; 'I' for Inactive)
REMARK    1  A    between atoms: C_1  and  C_2
REMARK    2  A    between atoms: C_1  and  C_8
REMARK    3  A    between atoms: C_1  and  N_43
REMARK    4  A    between atoms: C_13  and  C_41
REMARK    5  A    between atoms: C_14  and  C_15
REMARK    6  A    between atoms: C_21  and  O_22
REMARK    7  A    between atoms: O_22  and  C_23
REMARK    8  A    between atoms: C_23  and  C_24
REMARK    9  A    between atoms: C_29  and  C_44
REMARK   10  A    between atoms: C_37  and  N_43
REMARK   11  A    between atoms: N_43  and  C_44
REMARK                            x       y       z     vdW  Elec       q    Type
REMARK                         _______ _______ _______ _____ _____    ______ ____
ROOT
ATOM      1  C   UNL A   1     -20.848  -0.230  28.887  0.00  0.00    +0.290 C 
ATOM      2  N   UNL A   1     -20.593   0.746  27.976  0.00  0.00    -0.055 NA
ATOM      3  C   UNL A   1     -21.753   1.148  27.500  0.00  0.00    +0.368 C 
ATOM      4  C   UNL A   1     -22.172  -0.350  29.150  0.00  0.00    +0.036 C 
ATOM      5  N   UNL A   1     -22.024   1.909  26.432  0.00  0.00    -0.036 NA
ATOM      6  C   UNL A   1     -24.056   0.750  28.296  0.00  0.00    +0.096 C 
ATOM      7  C   UNL A   1     -23.328   2.127  26.157  0.00  0.00    +0.211 C 
ATOM      8  C   UNL A   1     -24.331   1.537  26.840  0.00  0.00    +0.096 C 
ATOM      9  C   UNL A   1     -22.752   0.577  28.255  0.00  0.00    +0.081 C 
ENDROOT
BRANCH   8  10
ATOM     10  C   UNL A   1     -25.688   1.614  26.461  0.00  0.00    +0.080 C 
ATOM     11  C   UNL A   1     -26.250   2.920  26.395  0.00  0.00    +0.055 C 
ATOM     12  C   UNL A   1     -27.438   3.091  25.645  0.00  0.00    +0.102 C 
ATOM     13  N   UNL A   1     -28.075   2.089  25.003  0.00  0.00    -0.212 NA
ATOM     14  C   UNL A   1     -27.543   0.849  25.079  0.00  0.00    +0.234 C 
ATOM     15  C   UNL A   1     -26.354   0.576  25.777  0.00  0.00    +0.240 C 
ATOM     16  F   UNL A   1     -25.860  -0.681  25.795  0.00  0.00    -0.227 F 
BRANCH  11  17
ATOM     17  C   UNL A   1     -25.642   4.093  27.123  0.00  0.00    +0.263 C 
ATOM     18  N   UNL A   1     -25.614   5.252  26.449  0.00  0.00    -0.200 NA
ATOM     19  C   UNL A   1     -25.026   6.479  26.963  0.00  0.00    +0.139 C 
ATOM     20  O   UNL A   1     -25.143   3.966  28.243  0.00  0.00    -0.269 OA
ENDBRANCH  11  17
BRANCH  14  21
ATOM     21  O   UNL A   1     -28.193  -0.208  24.477  0.00  0.00    -0.459 OA
BRANCH  21  22
ATOM     22  C   UNL A   1     -29.460   0.005  23.866  0.00  0.00    +0.242 C 
BRANCH  22  23
ATOM     23  C   UNL A   1     -30.065  -1.377  23.573  0.00  0.00    +0.229 C 
ATOM     24  O   UNL A   1     -30.729  -1.878  24.721  0.00  0.00    -0.216 OA
ENDBRANCH  22  23
ENDBRANCH  21  22
ENDBRANCH  14  21
ENDBRANCH   8  10
BRANCH   6  25
ATOM     25  N   UNL A   1     -24.891  -0.015  29.087  0.00  0.00    -0.262 NA
BRANCH  25  26
ATOM     26  C   UNL A   1     -24.855  -1.012  30.143  0.00  0.00    +0.097 C 
BRANCH  26  27
ATOM     27  C   UNL A   1     -24.973  -2.505  29.788  0.00  0.00    -0.006 C 
ATOM     28  C   UNL A   1     -23.906  -3.173  29.146  0.00  0.00    -0.003 C 
ATOM     29  C   UNL A   1     -23.989  -4.549  28.853  0.00  0.00    -0.000 C 
ATOM     30  C   UNL A   1     -25.137  -5.280  29.205  0.00  0.00    -0.000 C 
ATOM     31  C   UNL A   1     -26.232  -4.611  29.784  0.00  0.00    -0.000 C 
ATOM     32  C   UNL A   1     -26.155  -3.232  30.065  0.00  0.00    -0.003 C 
ENDBRANCH  26  27
BRANCH  26  33
ATOM     33  C   UNL A   1     -25.387  -0.679  31.571  0.00  0.00    +0.092 C 
ATOM     34  C   UNL A   1     -25.189   0.773  32.028  0.00  0.00    +0.021 C 
ATOM     35  C   UNL A   1     -25.336   0.684  33.544  0.00  0.00    +0.020 C 
ATOM     36  C   UNL A   1     -24.829  -0.715  33.905  0.00  0.00    +0.089 C 
ATOM     37  N   UNL A   1     -24.758  -1.481  32.646  0.00  0.00    -0.218 NA
ENDBRANCH  26  33
ENDBRANCH  25  26
BRANCH  25  38
ATOM     38  C   UNL A   1     -26.113   0.432  28.744  0.00  0.00    +0.100 C 
BRANCH  38  39
ATOM     39  C   UNL A   1     -27.189   1.308  29.127  0.00  0.00    -0.006 C 
ATOM     40  C   UNL A   1     -27.048   2.590  29.725  0.00  0.00    -0.003 C 
ATOM     41  C   UNL A   1     -29.559   1.605  29.130  0.00  0.00    -0.000 C 
ATOM     42  C   UNL A   1     -28.180   3.328  30.036  0.00  0.00    -0.000 C 
ATOM     43  C   UNL A   1     -29.429   2.805  29.787  0.00  0.00    -0.000 C 
ATOM     44  C   UNL A   1     -28.451   0.851  28.794  0.00  0.00    -0.003 C 
ENDBRANCH  38  39
ENDBRANCH  25  38
ENDBRANCH   6  25
TORSDOF 11
