MODEL 3600
MODEL 1
REMARK VINA RESULT:    -7.719      0.000      0.000
REMARK INTER + INTRA:          -9.784
REMARK INTER:                  -9.072
REMARK INTRA:                  -0.712
REMARK UNBOUND:                -0.712
REMARK  Name = No_3600-gen_results/8p0m/2024-11-27-11-27-31/
REMARK  3 active torsions:
REMARK  status: ('A' for Active; 'I' for Inactive)
REMARK    1  A    between atoms: C_5  and  C_16
REMARK    2  A    between atoms: C_16  and  O_18
REMARK    3  A    between atoms: O_18  and  C_20
REMARK                            x       y       z     vdW  Elec       q    Type
REMARK                         _______ _______ _______ _____ _____    ______ ____
ROOT
ATOM      1  C   UNL A   1     -31.583 -10.482  10.865  0.00  0.00    +0.003 A 
ATOM      2  C   UNL A   1     -30.679 -10.022  10.206  0.00  0.00    +0.035 A 
ATOM      3  C   UNL A   1     -29.391 -10.528  10.157  0.00  0.00    -0.015 A 
ATOM      4  C   UNL A   1     -29.126 -11.702  10.921  0.00  0.00    +0.003 A 
ATOM      5  C   UNL A   1     -30.181 -12.283  11.515  0.00  0.00    +0.076 A 
ATOM      6  C   UNL A   1     -31.371 -11.757  11.471  0.00  0.00    +0.006 A 
ATOM      7  C   UNL A   1     -28.265  -9.838   9.432  0.00  0.00    +0.045 C 
ATOM      8  C   UNL A   1     -28.494  -8.532   9.212  0.00  0.00    -0.015 A 
ATOM      9  C   UNL A   1     -27.517  -7.751   8.429  0.00  0.00    -0.004 A 
ATOM     10  C   UNL A   1     -27.868  -6.436   7.978  0.00  0.00    -0.000 A 
ATOM     11  C   UNL A   1     -29.001  -5.820   8.400  0.00  0.00    +0.000 A 
ATOM     12  C   UNL A   1     -29.892  -6.480   9.276  0.00  0.00    +0.003 A 
ATOM     13  C   UNL A   1     -29.660  -7.807   9.607  0.00  0.00    +0.035 A 
ATOM     14  C   UNL A   1     -30.776  -8.544   9.903  0.00  0.00    +0.195 C 
ATOM     15  O   UNL A   1     -31.746  -7.886  10.436  0.00  0.00    -0.287 OA
ATOM     16  C   UNL A   1     -27.054 -10.546   9.158  0.00  0.00    +0.009 C 
ENDROOT
BRANCH   5  17
ATOM     17  C   UNL A   1     -29.960 -13.617  12.129  0.00  0.00    +0.346 C 
ATOM     18  O   UNL A   1     -30.001 -13.794  13.346  0.00  0.00    -0.244 OA
BRANCH  17  19
ATOM     19  O   UNL A   1     -29.456 -14.569  11.413  0.00  0.00    -0.421 OA
BRANCH  19  20
ATOM     20  C   UNL A   1     -29.977 -15.058  10.264  0.00  0.00    +0.149 A 
ATOM     21  C   UNL A   1     -31.355 -15.159  10.128  0.00  0.00    +0.038 A 
ATOM     22  C   UNL A   1     -31.901 -15.618   9.067  0.00  0.00    +0.010 A 
ATOM     23  C   UNL A   1     -31.050 -16.058   7.988  0.00  0.00    +0.035 A 
ATOM     24  C   UNL A   1     -29.682 -15.997   8.104  0.00  0.00    +0.010 A 
ATOM     25  C   UNL A   1     -29.134 -15.518   9.268  0.00  0.00    +0.038 A 
ATOM     26 BR   UNL A   1     -31.758 -16.727   6.383  0.00  0.00    -0.049 Br
ENDBRANCH  19  20
ENDBRANCH  17  19
ENDBRANCH   5  17
TORSDOF 3
ENDMDL
ENDMDL
