MODEL 3601
MODEL 1
REMARK VINA RESULT:    -4.487      0.000      0.000
REMARK INTER + INTRA:          -4.487
REMARK INTER:                  -4.487
REMARK INTRA:                   0.000
REMARK UNBOUND:                 0.000
REMARK  Name = No_3601-gen_results/8p0m/2024-11-27-11-27-31/
REMARK  0 active torsions:
REMARK  status: ('A' for Active; 'I' for Inactive)
REMARK                            x       y       z     vdW  Elec       q    Type
REMARK                         _______ _______ _______ _____ _____    ______ ____
ROOT
ATOM      1  C   UNL A   1      -9.231  -9.223  20.030  0.00  0.00    +0.011 A 
ATOM      2  C   UNL A   1      -8.243  -9.912  19.924  0.00  0.00    +0.058 A 
ATOM      3  C   UNL A   1      -8.057 -10.734  18.818  0.00  0.00    +0.011 A 
ATOM      4  C   UNL A   1      -9.057 -10.825  17.786  0.00  0.00    +0.001 A 
ATOM      5  C   UNL A   1     -10.178 -10.013  18.000  0.00  0.00    +0.000 A 
ATOM      6  C   UNL A   1     -10.313  -9.265  19.072  0.00  0.00    +0.001 A 
ATOM      7 CL   UNL A   1      -6.978  -9.965  21.077  0.00  0.00    -0.082 Cl
ENDROOT
TORSDOF 0
ENDMDL
ENDMDL
