MODEL 3602
MODEL 1
REMARK VINA RESULT:    -6.560      0.000      0.000
REMARK INTER + INTRA:          -9.551
REMARK INTER:                  -8.862
REMARK INTRA:                  -0.690
REMARK UNBOUND:                -0.690
REMARK  Name = No_3602-gen_results/8p0m/2024-11-27-11-27-31/
REMARK  6 active torsions:
REMARK  status: ('A' for Active; 'I' for Inactive)
REMARK    1  A    between atoms: C_1  and  C_2
REMARK    2  A    between atoms: C_1  and  C_8
REMARK    3  A    between atoms: C_3  and  C_15
REMARK    4  A    between atoms: C_5  and  C_12
REMARK    5  A    between atoms: N_9  and  C_11
REMARK    6  A    between atoms: C_11  and  C_18
REMARK                            x       y       z     vdW  Elec       q    Type
REMARK                         _______ _______ _______ _____ _____    ______ ____
ROOT
ATOM      1  C   UNL A   1     -23.227   1.821  26.672  0.00  0.00    +0.113 C 
ENDROOT
BRANCH   1   2
ATOM      2  C   UNL A   1     -24.297   1.766  26.113  0.00  0.00    -0.007 A 
ATOM      3  C   UNL A   1     -25.273   2.747  26.161  0.00  0.00    +0.076 A 
ATOM      4  C   UNL A   1     -26.588   2.674  25.572  0.00  0.00    +0.013 A 
ATOM      5  C   UNL A   1     -26.948   1.503  24.863  0.00  0.00    +0.080 A 
ATOM      6  C   UNL A   1     -25.991   0.459  24.773  0.00  0.00    +0.006 A 
ATOM      7  C   UNL A   1     -24.786   0.611  25.388  0.00  0.00    -0.003 A 
BRANCH   5   8
ATOM      8  C   UNL A   1     -28.228   1.346  24.202  0.00  0.00    +0.388 C 
ATOM      9  O   UNL A   1     -28.535   0.206  23.802  0.00  0.00    -0.241 OA
ATOM     10  O   UNL A   1     -29.178   2.257  24.358  0.00  0.00    -0.241 OA
ENDBRANCH   5   8
BRANCH   3  11
ATOM     11  C   UNL A   1     -25.025   3.995  26.896  0.00  0.00    +0.388 C 
ATOM     12  O   UNL A   1     -24.575   4.978  26.406  0.00  0.00    -0.241 OA
ATOM     13  O   UNL A   1     -25.295   4.012  28.177  0.00  0.00    -0.241 OA
ENDBRANCH   3  11
ENDBRANCH   1   2
BRANCH   1  14
ATOM     14  C   UNL A   1     -23.146   1.048  27.942  0.00  0.00    +0.246 C 
ATOM     15  N   UNL A   1     -23.046  -0.103  27.972  0.00  0.00    -0.197 NA
ATOM     16  O   UNL A   1     -23.116   1.814  29.072  0.00  0.00    -0.273 OA
BRANCH  15  17
ATOM     17  C   UNL A   1     -22.907  -0.883  29.245  0.00  0.00    +0.180 C 
BRANCH  17  18
ATOM     18  C   UNL A   1     -23.715  -1.831  29.277  0.00  0.00    +0.162 A 
ATOM     19  N   UNL A   1     -23.452  -3.042  28.852  0.00  0.00    -0.227 NA
ATOM     20  N   UNL A   1     -25.001  -1.726  29.802  0.00  0.00    -0.217 NA
ATOM     21  C   UNL A   1     -25.938  -2.808  29.867  0.00  0.00    +0.141 A 
ATOM     22  C   UNL A   1     -24.277  -4.151  28.821  0.00  0.00    +0.103 A 
ATOM     23  C   UNL A   1     -25.551  -3.995  29.364  0.00  0.00    +0.051 A 
ATOM     24 CL   UNL A   1     -27.280  -2.443  30.755  0.00  0.00    -0.061 Cl
ENDBRANCH  17  18
ENDBRANCH  15  17
ENDBRANCH   1  14
TORSDOF 6
ENDMDL
ENDMDL
