MODEL 3603
MODEL 1
REMARK VINA RESULT:    -6.349      0.000      0.000
REMARK INTER + INTRA:         -10.128
REMARK INTER:                  -8.948
REMARK INTRA:                  -1.181
REMARK UNBOUND:                -1.181
REMARK  Name = No_3603-gen_results/8p0m/2024-11-27-11-27-31/
REMARK  7 active torsions:
REMARK  status: ('A' for Active; 'I' for Inactive)
REMARK    1  A    between atoms: C_1  and  C_2
REMARK    2  A    between atoms: C_5  and  C_10
REMARK    3  A    between atoms: C_7  and  C_16
REMARK    4  A    between atoms: N_18  and  C_19
REMARK    5  A    between atoms: C_19  and  C_20
REMARK    6  A    between atoms: C_19  and  C_23
REMARK    7  A    between atoms: C_24  and  C_25
REMARK                            x       y       z     vdW  Elec       q    Type
REMARK                         _______ _______ _______ _____ _____    ______ ____
ROOT
ATOM      1  C   UNL A   1      -7.414  -0.136  34.755  0.00  0.00    +0.022 A 
ATOM      2  C   UNL A   1      -7.206  -1.510  34.646  0.00  0.00    +0.002 A 
ATOM      3  C   UNL A   1      -5.914  -2.223  34.689  0.00  0.00    +0.005 A 
ATOM      4  C   UNL A   1      -4.748  -1.400  34.635  0.00  0.00    +0.057 A 
ATOM      5  C   UNL A   1      -4.954   0.001  34.664  0.00  0.00    +0.009 A 
ATOM      6  C   UNL A   1      -6.155   0.580  34.708  0.00  0.00    +0.057 A 
ENDROOT
BRANCH   1   7
ATOM      7  C   UNL A   1      -8.507   0.380  34.722  0.00  0.00    +0.081 A 
ATOM      8  C   UNL A   1      -9.240   0.295  36.048  0.00  0.00    +0.019 A 
ATOM      9  C   UNL A   1     -10.591   0.830  36.141  0.00  0.00    +0.003 A 
ATOM     10  C   UNL A   1     -11.028   1.296  35.172  0.00  0.00    +0.021 A 
ATOM     11  C   UNL A   1     -10.736   1.360  33.949  0.00  0.00    +0.099 A 
ATOM     12  N   UNL A   1      -9.366   0.872  33.786  0.00  0.00    -0.244 NA
ENDBRANCH   1   7
BRANCH   4  13
ATOM     13  C   UNL A   1      -3.476  -2.081  34.594  0.00  0.00    +0.284 C 
ATOM     14  N   UNL A   1      -2.840  -2.232  35.707  0.00  0.00    -0.084 NA
ATOM     15  O   UNL A   1      -2.875  -2.415  33.526  0.00  0.00    -0.267 OA
ENDBRANCH   4  13
BRANCH   6  16
ATOM     16  C   UNL A   1      -6.269   2.049  34.711  0.00  0.00    +0.266 C 
ATOM     17  O   UNL A   1      -6.255   2.719  35.656  0.00  0.00    -0.268 OA
ATOM     18  N   UNL A   1      -6.361   2.688  33.452  0.00  0.00    -0.189 NA
BRANCH  18  19
ATOM     19  C   UNL A   1      -6.452   4.120  33.344  0.00  0.00    +0.197 C 
BRANCH  19  20
ATOM     20  C   UNL A   1      -7.685   4.573  33.106  0.00  0.00    +0.285 C 
ATOM     21  O   UNL A   1      -8.047   5.682  33.262  0.00  0.00    -0.269 OA
ATOM     22  N   UNL A   1      -8.437   3.762  32.265  0.00  0.00    -0.086 NA
ENDBRANCH  19  20
BRANCH  19  23
ATOM     23  C   UNL A   1      -5.555   4.449  32.047  0.00  0.00    +0.004 C 
ATOM     24  C   UNL A   1      -5.053   3.311  31.376  0.00  0.00    -0.002 C 
BRANCH  24  25
ATOM     25  C   UNL A   1      -4.108   3.611  30.392  0.00  0.00    -0.000 C 
ATOM     26  C   UNL A   1      -3.564   2.530  29.680  0.00  0.00    -0.000 C 
ENDBRANCH  24  25
ENDBRANCH  19  23
ENDBRANCH  18  19
ENDBRANCH   6  16
TORSDOF 7
ENDMDL
ENDMDL
