MODEL 3604
MODEL 1
REMARK VINA RESULT:    -6.357      0.000      0.000
REMARK INTER + INTRA:          -7.634
REMARK INTER:                  -7.472
REMARK INTRA:                  -0.162
REMARK UNBOUND:                -0.162
REMARK  Name = No_3604-gen_results/8p0m/2024-11-27-11-27-31/
REMARK  3 active torsions:
REMARK  status: ('A' for Active; 'I' for Inactive)
REMARK    1  A    between atoms: C_9  and  N_11
REMARK    2  A    between atoms: N_11  and  C_13
REMARK    3  A    between atoms: C_14  and  C_15
REMARK                            x       y       z     vdW  Elec       q    Type
REMARK                         _______ _______ _______ _____ _____    ______ ____
ROOT
ATOM      1  C   UNL A   1     -23.821   0.481  27.612  0.00  0.00    +0.093 A 
ATOM      2  C   UNL A   1     -22.669   0.844  27.659  0.00  0.00    +0.019 A 
ATOM      3  C   UNL A   1     -21.831   0.594  28.728  0.00  0.00    +0.004 A 
ATOM      4  C   UNL A   1     -22.299  -0.254  29.656  0.00  0.00    +0.036 A 
ATOM      5  C   UNL A   1     -24.580   0.808  26.359  0.00  0.00    +0.075 A 
ATOM      6  C   UNL A   1     -24.082   1.760  25.508  0.00  0.00    +0.013 A 
ATOM      7  C   UNL A   1     -22.871   2.351  25.677  0.00  0.00    +0.001 A 
ATOM      8  C   UNL A   1     -22.090   1.919  26.742  0.00  0.00    +0.002 A 
ATOM      9  C   UNL A   1     -23.459  -0.888  29.378  0.00  0.00    +0.152 A 
ATOM     10  N   UNL A   1     -24.233  -0.552  28.340  0.00  0.00    -0.228 NA
ATOM     11 CL   UNL A   1     -26.117   0.100  26.200  0.00  0.00    -0.081 Cl
ENDROOT
BRANCH   9  12
ATOM     12  N   UNL A   1     -23.992  -1.799  30.296  0.00  0.00    -0.193 NA
BRANCH  12  13
ATOM     13  C   UNL A   1     -24.284  -3.024  29.961  0.00  0.00    +0.087 C 
ATOM     14  C   UNL A   1     -25.424  -3.426  29.695  0.00  0.00    +0.018 C 
BRANCH  14  15
ATOM     15  C   UNL A   1     -25.768  -4.799  29.301  0.00  0.00    +0.001 C 
ATOM     16  C   UNL A   1     -24.720  -5.552  28.902  0.00  0.00    +0.000 C 
ENDBRANCH  14  15
ENDBRANCH  12  13
ENDBRANCH   9  12
TORSDOF 3
ENDMDL
ENDMDL
