REMARK  Name = outputs/IAG933/test6/raw/output_3604_IAG933_linker_design_.xyz
REMARK  4 active torsions:
REMARK  status: ('A' for Active; 'I' for Inactive)
REMARK    1  A    between atoms: C_1  and  C_2
REMARK    2  A    between atoms: C_1  and  C_8
REMARK    3  A    between atoms: C_1  and  C_31
REMARK    4  A    between atoms: C_14  and  C_15
REMARK                            x       y       z     vdW  Elec       q    Type
REMARK                         _______ _______ _______ _____ _____    ______ ____
ROOT
ATOM      1  C   UNL A   1     -25.688   1.614  26.461  0.00  0.00    +0.054 C 
ATOM      2  C   UNL A   1     -26.250   2.920  26.395  0.00  0.00    +0.078 C 
ATOM      3  C   UNL A   1     -27.438   3.091  25.645  0.00  0.00    +0.107 C 
ATOM      4  N   UNL A   1     -28.075   2.089  25.003  0.00  0.00    -0.208 NA
ATOM      5  C   UNL A   1     -27.543   0.849  25.079  0.00  0.00    +0.253 C 
ATOM      6  O   UNL A   1     -28.193  -0.208  24.477  0.00  0.00    -0.455 OA
ATOM      7  C   UNL A   1     -29.460   0.005  23.866  0.00  0.00    +0.254 C 
ATOM      8  C   UNL A   1     -30.065  -1.377  23.573  0.00  0.00    +0.257 C 
ATOM      9  O   UNL A   1     -30.729  -1.878  24.721  0.00  0.00    -0.430 OA
ATOM     10  C   UNL A   1     -26.354   0.576  25.777  0.00  0.00    +0.194 C 
ATOM     11  F   UNL A   1     -25.860  -0.681  25.795  0.00  0.00    -0.199 F 
ATOM     12  O   UNL A   1     -31.152  -0.148  26.029  0.00  0.00    -0.434 OA
ATOM     13  C   UNL A   1     -21.886   1.183  28.430  0.00  0.00    +0.105 C 
ATOM     14  N   UNL A   1     -33.855   1.421  25.953  0.00  0.00    -0.102 NA
ATOM     15  C   UNL A   1     -25.330  -0.127  28.885  0.00  0.00    +0.216 C 
ATOM     16  C   UNL A   1     -31.645  -1.284  25.481  0.00  0.00    +0.390 C 
ATOM     17  N   UNL A   1     -33.011  -1.167  25.378  0.00  0.00    -0.182 NA
ATOM     18  C   UNL A   1     -32.115   0.209  26.886  0.00  0.00    +0.212 C 
ATOM     19  O   UNL A   1     -26.531   0.563  29.187  0.00  0.00    -0.327 OA
ATOM     20 CL   UNL A   1     -22.926   2.492  24.843  0.00  0.00    -0.081 Cl
ATOM     21  C   UNL A   1     -33.432  -0.067  26.369  0.00  0.00    +0.239 C 
ATOM     22  N   UNL A   1     -24.297   0.875  28.351  0.00  0.00    -0.194 N 
ATOM     23  C   UNL A   1     -28.583  -0.973  29.267  0.00  0.00    +0.042 C 
ATOM     24  C   UNL A   1     -31.858   0.749  28.345  0.00  0.00    +0.058 C 
ATOM     25  C   UNL A   1     -30.330   0.492  28.577  0.00  0.00    +0.054 C 
ATOM     26  N   UNL A   1     -23.093   0.901  28.998  0.00  0.00    -0.143 NA
ATOM     27  C   UNL A   1     -21.923   1.617  27.083  0.00  0.00    +0.032 C 
ATOM     28  C   UNL A   1     -29.933  -0.662  29.374  0.00  0.00    +0.014 C 
ATOM     29  S   UNL A   1     -28.931   1.302  28.191  0.00  0.00    -0.113 S 
ATOM     30  C   UNL A   1     -27.833   0.047  28.623  0.00  0.00    +0.164 C 
ATOM     31  C   UNL A   1     -24.345   1.438  26.995  0.00  0.00    +0.082 C 
ATOM     32  C   UNL A   1     -23.120   1.759  26.393  0.00  0.00    +0.074 C 
ENDROOT
BRANCH   2  33
ATOM     33  C   UNL A   1     -25.642   4.093  27.123  0.00  0.00    +0.267 C 
ATOM     34  N   UNL A   1     -25.614   5.252  26.449  0.00  0.00    -0.200 NA
ATOM     35  C   UNL A   1     -25.026   6.479  26.963  0.00  0.00    +0.139 C 
ATOM     36  O   UNL A   1     -25.143   3.966  28.243  0.00  0.00    -0.268 OA
ENDBRANCH   2  33
BRANCH  15  37
ATOM     37  C   UNL A   1     -24.855  -1.012  30.143  0.00  0.00    +0.087 C 
BRANCH  37  38
ATOM     38  C   UNL A   1     -24.973  -2.505  29.788  0.00  0.00    -0.017 C 
ATOM     39  C   UNL A   1     -23.906  -3.173  29.146  0.00  0.00    -0.004 C 
ATOM     40  C   UNL A   1     -23.989  -4.549  28.853  0.00  0.00    -0.000 C 
ATOM     41  C   UNL A   1     -25.137  -5.280  29.205  0.00  0.00    -0.000 C 
ATOM     42  C   UNL A   1     -26.232  -4.611  29.784  0.00  0.00    -0.000 C 
ATOM     43  C   UNL A   1     -26.155  -3.232  30.065  0.00  0.00    -0.004 C 
ENDBRANCH  37  38
BRANCH  37  44
ATOM     44  C   UNL A   1     -25.387  -0.679  31.571  0.00  0.00    +0.081 C 
ATOM     45  C   UNL A   1     -25.189   0.773  32.028  0.00  0.00    +0.019 C 
ATOM     46  C   UNL A   1     -25.336   0.684  33.544  0.00  0.00    +0.020 C 
ATOM     47  C   UNL A   1     -24.829  -0.715  33.905  0.00  0.00    +0.089 C 
ATOM     48  N   UNL A   1     -24.758  -1.481  32.646  0.00  0.00    -0.219 NA
ENDBRANCH  37  44
ENDBRANCH  15  37
TORSDOF 4
