MODEL 3605
MODEL 1
REMARK VINA RESULT:    -6.007      0.000      0.000
REMARK INTER + INTRA:          -6.264
REMARK INTER:                  -6.358
REMARK INTRA:                   0.094
REMARK UNBOUND:                 0.094
REMARK  Name = No_3605-gen_results/8p0m/2024-11-27-11-27-31/
REMARK  1 active torsions:
REMARK  status: ('A' for Active; 'I' for Inactive)
REMARK    1  A    between atoms: C_2  and  C_7
REMARK                            x       y       z     vdW  Elec       q    Type
REMARK                         _______ _______ _______ _____ _____    ______ ____
ROOT
ATOM      1  C   UNL A   1     -23.494  -1.336  29.208  0.00  0.00    +0.249 C 
ATOM      2  O   UNL A   1     -22.660  -1.140  29.877  0.00  0.00    -0.270 OA
ATOM      3  N   UNL A   1     -23.828  -0.481  28.154  0.00  0.00    -0.276 N 
ATOM      4  C   UNL A   1     -23.061   0.701  27.970  0.00  0.00    +0.094 C 
ATOM      5  C   UNL A   1     -24.910  -0.710  27.206  0.00  0.00    +0.094 C 
ATOM      6  C   UNL A   1     -25.524   0.007  26.748  0.00  0.00    +0.022 C 
ATOM      7  C   UNL A   1     -23.843   1.726  27.274  0.00  0.00    +0.022 C 
ATOM      8  C   UNL A   1     -24.987   1.370  26.506  0.00  0.00    +0.004 C 
ENDROOT
BRANCH   1  10
ATOM      9  C   UNL A   1     -25.469  -2.265  29.870  0.00  0.00    +0.004 A 
ATOM     10  C   UNL A   1     -24.583  -2.507  29.352  0.00  0.00    +0.054 A 
ATOM     11  C   UNL A   1     -26.472  -3.389  30.003  0.00  0.00    +0.000 A 
ATOM     12  C   UNL A   1     -26.118  -4.685  29.573  0.00  0.00    +0.000 A 
ATOM     13  C   UNL A   1     -23.967  -3.755  28.848  0.00  0.00    +0.004 A 
ATOM     14  C   UNL A   1     -24.858  -4.813  28.959  0.00  0.00    +0.000 A 
ENDBRANCH   1  10
TORSDOF 1
ENDMDL
ENDMDL
