MODEL 3606
MODEL 1
REMARK VINA RESULT:    -5.279      0.000      0.000
REMARK INTER + INTRA:          -5.764
REMARK INTER:                  -5.587
REMARK INTRA:                  -0.176
REMARK UNBOUND:                -0.176
REMARK  Name = No_3606-gen_results/8p0m/2024-11-27-11-27-31/
REMARK  1 active torsions:
REMARK  status: ('A' for Active; 'I' for Inactive)
REMARK    1  A    between atoms: C_3  and  C_7
REMARK                            x       y       z     vdW  Elec       q    Type
REMARK                         _______ _______ _______ _____ _____    ______ ____
ROOT
ATOM      1  C   UNL A   1      -8.499  -9.576  19.704  0.00  0.00    +0.004 A 
ATOM      2  C   UNL A   1      -7.786  -8.935  20.140  0.00  0.00    -0.000 A 
ATOM      3  C   UNL A   1      -8.574  -9.560  18.271  0.00  0.00    +0.071 A 
ATOM      4  C   UNL A   1      -7.912  -8.678  17.516  0.00  0.00    +0.004 A 
ATOM      5  C   UNL A   1      -6.980  -7.889  19.525  0.00  0.00    -0.000 A 
ATOM      6  C   UNL A   1      -7.055  -7.846  18.201  0.00  0.00    -0.000 A 
ENDROOT
BRANCH   3   7
ATOM      7  C   UNL A   1      -9.527 -10.560  17.603  0.00  0.00    +0.419 C 
ATOM      8  F   UNL A   1      -9.239 -11.840  17.896  0.00  0.00    -0.166 F 
ATOM      9  F   UNL A   1     -10.813 -10.385  17.971  0.00  0.00    -0.166 F 
ATOM     10  F   UNL A   1      -9.546 -10.469  16.217  0.00  0.00    -0.166 F 
ENDBRANCH   3   7
TORSDOF 1
ENDMDL
ENDMDL
