MODEL 3607
MODEL 1
REMARK VINA RESULT:    -4.824      0.000      0.000
REMARK INTER + INTRA:          -5.331
REMARK INTER:                  -5.106
REMARK INTRA:                  -0.226
REMARK UNBOUND:                -0.226
REMARK  Name = No_3607-gen_results/8p0m/2024-11-27-11-27-31/
REMARK  1 active torsions:
REMARK  status: ('A' for Active; 'I' for Inactive)
REMARK    1  A    between atoms: C_3  and  C_4
REMARK                            x       y       z     vdW  Elec       q    Type
REMARK                         _______ _______ _______ _____ _____    ______ ____
ROOT
ATOM      1  C   UNL A   1     -23.854  -3.617  28.608  0.00  0.00    -0.000 A 
ATOM      2  C   UNL A   1     -24.099  -4.642  28.595  0.00  0.00    -0.000 A 
ATOM      3  C   UNL A   1     -24.886  -2.700  29.117  0.00  0.00    -0.000 A 
ATOM      4  C   UNL A   1     -25.230  -5.391  29.192  0.00  0.00    -0.000 A 
ATOM      5  C   UNL A   1     -26.248  -4.594  29.704  0.00  0.00    -0.000 A 
ATOM      6  C   UNL A   1     -26.120  -3.221  29.717  0.00  0.00    -0.000 A 
ENDROOT
BRANCH   3   7
ATOM      7  C   UNL A   1     -24.857  -1.246  29.102  0.00  0.00    -0.005 C 
ATOM      8  C   UNL A   1     -24.495  -0.512  30.264  0.00  0.00    -0.026 C 
ATOM      9  C   UNL A   1     -23.548  -1.113  31.139  0.00  0.00    +0.031 C 
ENDBRANCH   3   7
TORSDOF 1
ENDMDL
ENDMDL
