MODEL 3608
MODEL 1
REMARK VINA RESULT:    -6.322      0.000      0.000
REMARK INTER + INTRA:          -7.148
REMARK INTER:                  -6.691
REMARK INTRA:                  -0.457
REMARK UNBOUND:                -0.457
REMARK  Name = No_3608-gen_results/8p0m/2024-11-27-11-27-31/
REMARK  1 active torsions:
REMARK  status: ('A' for Active; 'I' for Inactive)
REMARK    1  A    between atoms: C_7  and  C_8
REMARK                            x       y       z     vdW  Elec       q    Type
REMARK                         _______ _______ _______ _____ _____    ______ ____
ROOT
ATOM      1  C   UNL A   1     -26.387  -4.140  29.783  0.00  0.00    +0.030 A 
ATOM      2  C   UNL A   1     -25.962  -3.016  29.647  0.00  0.00    +0.140 A 
ATOM      3  F   UNL A   1     -26.813  -2.144  29.844  0.00  0.00    -0.204 F 
ATOM      4  C   UNL A   1     -25.517  -5.255  29.259  0.00  0.00    +0.002 A 
ATOM      5  C   UNL A   1     -24.258  -4.921  28.679  0.00  0.00    +0.000 A 
ATOM      6  C   UNL A   1     -23.889  -3.619  28.468  0.00  0.00    +0.002 A 
ATOM      7  C   UNL A   1     -24.804  -2.610  28.943  0.00  0.00    +0.028 A 
ENDROOT
BRANCH   7   8
ATOM      8  C   UNL A   1     -24.347  -1.230  28.743  0.00  0.00    +0.002 A 
ATOM      9  C   UNL A   1     -23.098  -0.882  28.994  0.00  0.00    +0.000 A 
ATOM     10  C   UNL A   1     -22.589   0.427  28.700  0.00  0.00    +0.000 A 
ATOM     11  C   UNL A   1     -23.064   0.977  27.511  0.00  0.00    +0.000 A 
ATOM     12  C   UNL A   1     -24.352   0.635  27.066  0.00  0.00    +0.000 A 
ATOM     13  C   UNL A   1     -24.934  -0.567  27.585  0.00  0.00    +0.000 A 
ENDBRANCH   7   8
TORSDOF 1
ENDMDL
ENDMDL
