REMARK  Name = No_3609-gen_results/8p0m/2024-11-27-11-27-31/
REMARK  4 active torsions:
REMARK  status: ('A' for Active; 'I' for Inactive)
REMARK    1  A    between atoms: C_3  and  C_7
REMARK    2  A    between atoms: N_8  and  C_9
REMARK    3  A    between atoms: C_11  and  C_14
REMARK    4  A    between atoms: C_13  and  C_17
REMARK                            x       y       z     vdW  Elec       q    Type
REMARK                         _______ _______ _______ _____ _____    ______ ____
ROOT
ATOM      1  C   UNL A   1     -25.278   1.160  27.316  0.00  0.00    +0.075 A 
ATOM      2  C   UNL A   1     -23.902   0.796  27.550  0.00  0.00    +0.027 A 
ATOM      3  C   UNL A   1     -22.907   1.749  27.535  0.00  0.00    +0.070 A 
ATOM      4  C   UNL A   1     -25.619   2.496  27.528  0.00  0.00    +0.023 A 
ATOM      5  C   UNL A   1     -24.633   3.494  27.790  0.00  0.00    +0.082 A 
ATOM      6  C   UNL A   1     -23.295   3.173  27.747  0.00  0.00    +0.017 A 
ENDROOT
BRANCH   1   8
ATOM      7  C   UNL A   1     -27.460   0.380  26.709  0.00  0.00    +0.269 C 
ATOM      8  N   UNL A   1     -26.104   0.291  26.701  0.00  0.00    -0.175 NA
ATOM      9  O   UNL A   1     -28.075   0.554  25.692  0.00  0.00    -0.268 OA
BRANCH   7  12
ATOM     10  C   UNL A   1     -28.016  -0.814  28.878  0.00  0.00    +0.005 A 
ATOM     11  C   UNL A   1     -28.469  -0.785  29.829  0.00  0.00    +0.000 A 
ATOM     12  C   UNL A   1     -28.196   0.348  28.055  0.00  0.00    +0.055 A 
ATOM     13  C   UNL A   1     -29.019   1.350  28.378  0.00  0.00    +0.005 A 
ATOM     14  C   UNL A   1     -29.411   0.180  30.378  0.00  0.00    +0.000 A 
ATOM     15  C   UNL A   1     -29.606   1.250  29.619  0.00  0.00    +0.000 A 
ENDBRANCH   7  12
ENDBRANCH   1   8
BRANCH   5  16
ATOM     16  C   UNL A   1     -25.009   4.916  27.892  0.00  0.00    +0.388 C 
ATOM     17  O   UNL A   1     -25.008   5.671  26.938  0.00  0.00    -0.241 OA
ATOM     18  O   UNL A   1     -25.389   5.365  29.066  0.00  0.00    -0.241 OA
ENDBRANCH   5  16
BRANCH   3  19
ATOM     19  C   UNL A   1     -21.527   1.414  27.806  0.00  0.00    +0.101 C 
ATOM     20  N   UNL A   1     -20.643   0.880  28.551  0.00  0.00    -0.191 NA
ENDBRANCH   3  19
TORSDOF 4
