MODEL 3609
MODEL 1
REMARK VINA RESULT:    -7.062      0.000      0.000
REMARK INTER + INTRA:          -9.540
REMARK INTER:                  -8.713
REMARK INTRA:                  -0.827
REMARK UNBOUND:                -0.827
REMARK  Name = No_3609-gen_results/8p0m/2024-11-27-11-27-31/
REMARK  4 active torsions:
REMARK  status: ('A' for Active; 'I' for Inactive)
REMARK    1  A    between atoms: C_3  and  C_7
REMARK    2  A    between atoms: N_8  and  C_9
REMARK    3  A    between atoms: C_11  and  C_14
REMARK    4  A    between atoms: C_13  and  C_17
REMARK                            x       y       z     vdW  Elec       q    Type
REMARK                         _______ _______ _______ _____ _____    ______ ____
ROOT
ATOM      1  C   UNL A   1     -11.907   1.694  36.611  0.00  0.00    +0.075 A 
ATOM      2  C   UNL A   1     -13.021   2.370  37.229  0.00  0.00    +0.027 A 
ATOM      3  C   UNL A   1     -13.898   3.121  36.477  0.00  0.00    +0.070 A 
ATOM      4  C   UNL A   1     -12.004   1.449  35.241  0.00  0.00    +0.023 A 
ATOM      5  C   UNL A   1     -13.062   1.989  34.450  0.00  0.00    +0.082 A 
ATOM      6  C   UNL A   1     -13.973   2.854  35.012  0.00  0.00    +0.017 A 
ENDROOT
BRANCH   1   8
ATOM      7  C   UNL A   1     -10.150   0.342  37.516  0.00  0.00    +0.269 C 
ATOM      8  N   UNL A   1     -10.757   1.537  37.295  0.00  0.00    -0.175 NA
ATOM      9  O   UNL A   1      -9.060   0.109  37.067  0.00  0.00    -0.268 OA
BRANCH   7  12
ATOM     10  C   UNL A   1     -11.329  -1.905  37.529  0.00  0.00    +0.005 A 
ATOM     11  C   UNL A   1     -11.788  -2.675  38.083  0.00  0.00    +0.000 A 
ATOM     12  C   UNL A   1     -10.917  -0.749  38.274  0.00  0.00    +0.055 A 
ATOM     13  C   UNL A   1     -11.231  -0.560  39.559  0.00  0.00    +0.005 A 
ATOM     14  C   UNL A   1     -12.241  -2.680  39.466  0.00  0.00    +0.000 A 
ATOM     15  C   UNL A   1     -11.888  -1.608  40.163  0.00  0.00    +0.000 A 
ENDBRANCH   7  12
ENDBRANCH   1   8
BRANCH   5  16
ATOM     16  C   UNL A   1     -13.074   1.813  32.986  0.00  0.00    +0.388 C 
ATOM     17  O   UNL A   1     -12.338   1.036  32.407  0.00  0.00    -0.241 OA
ATOM     18  O   UNL A   1     -13.945   2.510  32.294  0.00  0.00    -0.241 OA
ENDBRANCH   5  16
BRANCH   3  19
ATOM     19  C   UNL A   1     -15.044   3.775  37.069  0.00  0.00    +0.101 C 
ATOM     20  N   UNL A   1     -16.294   3.818  37.304  0.00  0.00    -0.191 NA
ENDBRANCH   3  19
TORSDOF 4
ENDMDL
ENDMDL
