MODEL 360
MODEL 1
REMARK VINA RESULT:    -5.908      0.000      0.000
REMARK INTER + INTRA:          -6.907
REMARK INTER:                  -6.598
REMARK INTRA:                  -0.308
REMARK UNBOUND:                -0.308
REMARK  Name = No_360-gen_results/8p0m/2024-11-27-11-27-31/
REMARK  2 active torsions:
REMARK  status: ('A' for Active; 'I' for Inactive)
REMARK    1  A    between atoms: C_3  and  C_4
REMARK    2  A    between atoms: C_8  and  C_9
REMARK                            x       y       z     vdW  Elec       q    Type
REMARK                         _______ _______ _______ _____ _____    ______ ____
ROOT
ATOM      1  C   UNL A   1     -25.566  -2.433  29.919  0.00  0.00    -0.000 A 
ATOM      2  C   UNL A   1     -26.306  -3.178  30.006  0.00  0.00    +0.000 A 
ATOM      3  C   UNL A   1     -24.309  -2.810  29.396  0.00  0.00    -0.000 A 
ATOM      4  C   UNL A   1     -26.281  -4.616  29.684  0.00  0.00    +0.000 A 
ATOM      5  C   UNL A   1     -25.066  -5.062  29.163  0.00  0.00    +0.000 A 
ATOM      6  C   UNL A   1     -24.064  -4.168  28.961  0.00  0.00    -0.000 A 
ENDROOT
BRANCH   3   7
ATOM      7  C   UNL A   1     -23.199  -1.866  29.108  0.00  0.00    -0.000 C 
ATOM      8  C   UNL A   1     -23.102  -0.743  28.988  0.00  0.00    -0.000 C 
BRANCH   8   9
ATOM      9  C   UNL A   1     -21.964   0.080  28.729  0.00  0.00    -0.005 C 
ATOM     10  C   UNL A   1     -21.951   1.161  27.865  0.00  0.00    -0.026 C 
ATOM     11  C   UNL A   1     -23.181   1.438  27.283  0.00  0.00    +0.031 C 
ENDBRANCH   8   9
ENDBRANCH   3   7
TORSDOF 2
ENDMDL
ENDMDL
