REMARK  Name = No_361-gen_results/8p0m/2024-11-27-11-27-31/
REMARK  5 active torsions:
REMARK  status: ('A' for Active; 'I' for Inactive)
REMARK    1  A    between atoms: C_3  and  C_8
REMARK    2  A    between atoms: N_10  and  C_11
REMARK    3  A    between atoms: C_12  and  C_19
REMARK    4  A    between atoms: C_22  and  N_24
REMARK    5  A    between atoms: C_28  and  C_29
REMARK                            x       y       z     vdW  Elec       q    Type
REMARK                         _______ _______ _______ _____ _____    ______ ____
ROOT
ATOM      1  C   UNL A   1     -25.163   0.019  27.783  0.00  0.00    +0.067 A 
ATOM      2  C   UNL A   1     -24.747   1.177  28.487  0.00  0.00    +0.034 A 
ATOM      3  C   UNL A   1     -23.801   1.000  29.533  0.00  0.00    +0.003 A 
ATOM      4  C   UNL A   1     -23.355  -0.234  29.923  0.00  0.00    +0.000 A 
ATOM      5  C   UNL A   1     -24.628  -1.218  28.152  0.00  0.00    +0.018 A 
ATOM      6  C   UNL A   1     -23.699  -1.333  29.223  0.00  0.00    +0.002 A 
ENDROOT
BRANCH   2   7
ATOM      7  C   UNL A   1     -25.238   2.554  28.259  0.00  0.00    +0.084 A 
ATOM      8  N   UNL A   1     -26.000   3.224  29.123  0.00  0.00    -0.230 NA
ATOM      9  C   UNL A   1     -25.070   3.154  26.943  0.00  0.00    +0.019 A 
ATOM     10  C   UNL A   1     -26.445   4.452  28.862  0.00  0.00    +0.136 A 
ATOM     11  C   UNL A   1     -25.429   4.487  26.708  0.00  0.00    +0.004 A 
ATOM     12  C   UNL A   1     -26.182   5.130  27.683  0.00  0.00    +0.035 A 
BRANCH  10  13
ATOM     13  N   UNL A   1     -27.208   5.168  29.817  0.00  0.00    -0.269 N 
ATOM     14  C   UNL A   1     -27.151   4.801  31.106  0.00  0.00    +0.062 C 
ATOM     15  C   UNL A   1     -28.056   5.469  32.018  0.00  0.00    -0.008 C 
ATOM     16  C   UNL A   1     -27.988   6.197  29.479  0.00  0.00    +0.105 C 
ATOM     17  C   UNL A   1     -28.788   6.595  30.730  0.00  0.00    +0.052 C 
BRANCH  16  18
ATOM     18  C   UNL A   1     -28.317   6.542  28.446  0.00  0.00    -0.006 C 
ATOM     19  C   UNL A   1     -29.196   7.628  28.041  0.00  0.00    -0.003 C 
ENDBRANCH  16  18
ENDBRANCH  10  13
ENDBRANCH   2   7
BRANCH   1  22
ATOM     20  C   UNL A   1     -27.427   0.462  26.735  0.00  0.00    +0.148 A 
ATOM     21  N   UNL A   1     -27.895   0.697  25.758  0.00  0.00    -0.225 NA
ATOM     22  N   UNL A   1     -26.051   0.208  26.763  0.00  0.00    -0.289 N 
ATOM     23  C   UNL A   1     -25.625   0.371  25.439  0.00  0.00    +0.102 A 
ATOM     24  C   UNL A   1     -26.850   0.630  24.783  0.00  0.00    +0.119 A 
BRANCH  20  27
ATOM     25  C   UNL A   1     -28.016  -0.814  28.878  0.00  0.00    +0.003 A 
ATOM     26  C   UNL A   1     -28.469  -0.785  29.829  0.00  0.00    -0.004 A 
ATOM     27  C   UNL A   1     -28.182   0.428  28.113  0.00  0.00    +0.035 A 
ATOM     28  C   UNL A   1     -28.984   1.415  28.515  0.00  0.00    +0.003 A 
ATOM     29  C   UNL A   1     -29.380   0.138  30.461  0.00  0.00    -0.022 A 
ATOM     30  C   UNL A   1     -29.993  -0.023  31.737  0.00  0.00    +0.031 C 
ATOM     31  C   UNL A   1     -29.537   1.262  29.712  0.00  0.00    -0.004 A 
ENDBRANCH  20  27
ENDBRANCH   1  22
TORSDOF 5
