MODEL 3610
MODEL 1
REMARK VINA RESULT:    -5.888      0.000      0.000
REMARK INTER + INTRA:          -6.770
REMARK INTER:                  -6.577
REMARK INTRA:                  -0.193
REMARK UNBOUND:                -0.193
REMARK  Name = No_3610-gen_results/8p0m/2024-11-27-11-27-31/
REMARK  2 active torsions:
REMARK  status: ('A' for Active; 'I' for Inactive)
REMARK    1  A    between atoms: C_2  and  C_7
REMARK    2  A    between atoms: N_9  and  C_10
REMARK                            x       y       z     vdW  Elec       q    Type
REMARK                         _______ _______ _______ _____ _____    ______ ____
ROOT
ATOM      1  C   UNL A   1     -24.984  -0.587  27.622  0.00  0.00    +0.269 C 
ATOM      2  O   UNL A   1     -25.694  -1.041  26.896  0.00  0.00    -0.268 OA
ATOM      3  N   UNL A   1     -24.593  -1.201  28.800  0.00  0.00    -0.175 NA
ENDROOT
BRANCH   1   5
ATOM      4  C   UNL A   1     -25.291   1.637  28.025  0.00  0.00    +0.005 A 
ATOM      5  C   UNL A   1     -24.739   0.986  27.407  0.00  0.00    +0.055 A 
ATOM      6  C   UNL A   1     -25.051   3.112  27.794  0.00  0.00    +0.000 A 
ATOM      7  C   UNL A   1     -24.246   3.519  26.709  0.00  0.00    +0.000 A 
ATOM      8  C   UNL A   1     -23.883   1.145  26.210  0.00  0.00    +0.005 A 
ATOM      9  C   UNL A   1     -23.645   2.489  25.962  0.00  0.00    +0.000 A 
ENDBRANCH   1   5
BRANCH   3  10
ATOM     10  C   UNL A   1     -24.876  -2.599  28.960  0.00  0.00    +0.074 A 
ATOM     11  C   UNL A   1     -24.027  -3.358  28.509  0.00  0.00    +0.017 A 
ATOM     12  C   UNL A   1     -24.081  -4.694  28.573  0.00  0.00    +0.001 A 
ATOM     13  C   UNL A   1     -25.270  -5.219  29.243  0.00  0.00    +0.000 A 
ATOM     14  C   UNL A   1     -26.205  -4.358  29.718  0.00  0.00    +0.001 A 
ATOM     15  C   UNL A   1     -26.025  -3.006  29.625  0.00  0.00    +0.017 A 
ENDBRANCH   3  10
TORSDOF 2
ENDMDL
ENDMDL
