MODEL 3611
MODEL 1
REMARK VINA RESULT:    -5.331      0.000      0.000
REMARK INTER + INTRA:          -5.699
REMARK INTER:                  -5.642
REMARK INTRA:                  -0.057
REMARK UNBOUND:                -0.057
REMARK  Name = No_3611-gen_results/8p0m/2024-11-27-11-27-31/
REMARK  1 active torsions:
REMARK  status: ('A' for Active; 'I' for Inactive)
REMARK    1  A    between atoms: C_2  and  C_3
REMARK                            x       y       z     vdW  Elec       q    Type
REMARK                         _______ _______ _______ _____ _____    ______ ____
ROOT
ATOM      1  C   UNL A   1      -8.025  -9.812  19.797  0.00  0.00    +0.068 A 
ATOM      2  C   UNL A   1      -9.211  -9.027  19.837  0.00  0.00    +0.006 A 
ATOM      3  C   UNL A   1     -10.420  -9.405  19.199  0.00  0.00    +0.000 A 
ATOM      4  C   UNL A   1     -10.355 -10.229  18.015  0.00  0.00    +0.000 A 
ATOM      5  C   UNL A   1      -9.115 -10.882  17.769  0.00  0.00    +0.000 A 
ATOM      6  C   UNL A   1      -8.087 -10.758  18.575  0.00  0.00    +0.006 A 
ENDROOT
BRANCH   1   8
ATOM      7  O   UNL A   1      -6.863 -10.521  21.455  0.00  0.00    -0.254 OA
ATOM      8  C   UNL A   1      -7.315  -9.802  20.556  0.00  0.00    +0.333 C 
ATOM      9  F   UNL A   1      -6.379  -8.560  20.448  0.00  0.00    -0.159 F 
ENDBRANCH   1   8
TORSDOF 1
ENDMDL
ENDMDL
