REMARK  Name = outputs/IAG933/test6/raw/output_3612_IAG933_linker_design_.xyz
REMARK  15 active torsions:
REMARK  status: ('A' for Active; 'I' for Inactive)
REMARK    1  A    between atoms: C_1  and  C_2
REMARK    2  A    between atoms: C_1  and  C_8
REMARK    3  A    between atoms: C_1  and  N_37
REMARK    4  A    between atoms: C_13  and  C_38
REMARK    5  A    between atoms: C_14  and  C_15
REMARK    6  A    between atoms: C_21  and  O_22
REMARK    7  A    between atoms: O_22  and  C_23
REMARK    8  A    between atoms: C_23  and  C_24
REMARK    9  A    between atoms: C_30  and  C_40
REMARK   10  A    between atoms: C_30  and  C_47
REMARK   11  A    between atoms: C_34  and  O_39
REMARK   12  A    between atoms: N_37  and  C_41
REMARK   13  A    between atoms: N_37  and  C_47
REMARK   14  A    between atoms: O_39  and  C_43
REMARK   15  A    between atoms: C_40  and  C_43
REMARK                            x       y       z     vdW  Elec       q    Type
REMARK                         _______ _______ _______ _____ _____    ______ ____
ROOT
ATOM      1  N   UNL A   1     -25.055  -0.071  29.034  0.00  0.00    -0.304 N 
ENDROOT
BRANCH   1   7
ATOM      2  C   UNL A   1     -23.148   1.717  26.786  0.00  0.00    +0.073 C 
ATOM      3  C   UNL A   1     -22.894   1.018  28.971  0.00  0.00    +0.028 C 
ATOM      4  F   UNL A   1     -20.986   1.875  27.725  0.00  0.00    -0.227 F 
ATOM      5  C   UNL A   1     -22.270   1.530  27.862  0.00  0.00    +0.217 C 
ATOM      6  C   UNL A   1     -24.415   1.349  27.145  0.00  0.00    +0.025 C 
ATOM      7  C   UNL A   1     -24.307   0.754  28.404  0.00  0.00    +0.047 C 
ATOM      8 CL   UNL A   1     -22.506   2.306  25.329  0.00  0.00    -0.084 Cl
BRANCH   6   9
ATOM      9  C   UNL A   1     -25.688   1.614  26.461  0.00  0.00    +0.040 C 
ATOM     10  C   UNL A   1     -26.250   2.920  26.395  0.00  0.00    +0.077 C 
ATOM     11  C   UNL A   1     -27.438   3.091  25.645  0.00  0.00    +0.107 C 
ATOM     12  N   UNL A   1     -28.075   2.089  25.003  0.00  0.00    -0.208 NA
ATOM     13  C   UNL A   1     -27.543   0.849  25.079  0.00  0.00    +0.253 C 
ATOM     14  C   UNL A   1     -26.354   0.576  25.777  0.00  0.00    +0.193 C 
ATOM     15  F   UNL A   1     -25.860  -0.681  25.795  0.00  0.00    -0.199 F 
BRANCH  10  16
ATOM     16  C   UNL A   1     -25.642   4.093  27.123  0.00  0.00    +0.266 C 
ATOM     17  N   UNL A   1     -25.614   5.252  26.449  0.00  0.00    -0.200 NA
ATOM     18  C   UNL A   1     -25.026   6.479  26.963  0.00  0.00    +0.139 C 
ATOM     19  O   UNL A   1     -25.143   3.966  28.243  0.00  0.00    -0.268 OA
ENDBRANCH  10  16
BRANCH  13  20
ATOM     20  O   UNL A   1     -28.193  -0.208  24.477  0.00  0.00    -0.456 OA
BRANCH  20  21
ATOM     21  C   UNL A   1     -29.460   0.005  23.866  0.00  0.00    +0.243 C 
BRANCH  21  22
ATOM     22  C   UNL A   1     -30.065  -1.377  23.573  0.00  0.00    +0.229 C 
ATOM     23  O   UNL A   1     -30.729  -1.878  24.721  0.00  0.00    -0.216 OA
ENDBRANCH  21  22
ENDBRANCH  20  21
ENDBRANCH  13  20
ENDBRANCH   6   9
ENDBRANCH   1   7
BRANCH   1  24
ATOM     24  C   UNL A   1     -24.855  -1.012  30.143  0.00  0.00    +0.111 C 
BRANCH  24  25
ATOM     25  C   UNL A   1     -24.973  -2.505  29.788  0.00  0.00    -0.003 C 
ATOM     26  C   UNL A   1     -23.906  -3.173  29.146  0.00  0.00    -0.003 C 
ATOM     27  C   UNL A   1     -23.989  -4.549  28.853  0.00  0.00    -0.000 C 
ATOM     28  C   UNL A   1     -25.137  -5.280  29.205  0.00  0.00    -0.000 C 
ATOM     29  C   UNL A   1     -26.232  -4.611  29.784  0.00  0.00    -0.000 C 
ATOM     30  C   UNL A   1     -26.155  -3.232  30.065  0.00  0.00    -0.003 C 
ENDBRANCH  24  25
BRANCH  24  31
ATOM     31  C   UNL A   1     -25.387  -0.679  31.571  0.00  0.00    +0.095 C 
ATOM     32  C   UNL A   1     -25.189   0.773  32.028  0.00  0.00    +0.021 C 
ATOM     33  C   UNL A   1     -25.336   0.684  33.544  0.00  0.00    +0.020 C 
ATOM     34  C   UNL A   1     -24.829  -0.715  33.905  0.00  0.00    +0.089 C 
ATOM     35  N   UNL A   1     -24.758  -1.481  32.646  0.00  0.00    -0.217 NA
ENDBRANCH  24  31
ENDBRANCH   1  24
BRANCH   1  36
ATOM     36  C   UNL A   1     -26.468  -0.243  28.637  0.00  0.00    +0.091 C 
BRANCH  36  37
ATOM     37  C   UNL A   1     -27.546  -0.052  29.263  0.00  0.00    +0.025 C 
BRANCH  37  38
ATOM     38  C   UNL A   1     -28.801   0.782  28.990  0.00  0.00    +0.049 C 
BRANCH  38  39
ATOM     39  C   UNL A   1     -29.108   1.768  30.129  0.00  0.00    +0.205 C 
BRANCH  39  40
ATOM     40  O   UNL A   1     -28.024   2.585  30.412  0.00  0.00    -0.475 OA
BRANCH  40  43
ATOM     41  C   UNL A   1     -27.556   4.103  32.239  0.00  0.00    +0.037 C 
ATOM     42  C   UNL A   1     -26.684   4.524  30.042  0.00  0.00    +0.079 C 
ATOM     43  C   UNL A   1     -27.423   3.697  30.897  0.00  0.00    +0.142 C 
ATOM     44  C   UNL A   1     -26.333   5.838  30.422  0.00  0.00    +0.199 C 
ATOM     45  C   UNL A   1     -27.018   5.331  32.677  0.00  0.00    +0.006 C 
ATOM     46  C   UNL A   1     -26.452   6.215  31.754  0.00  0.00    +0.042 C 
ATOM     47  O   UNL A   1     -25.852   6.843  29.576  0.00  0.00    -0.286 OA
ENDBRANCH  40  43
ENDBRANCH  39  40
ENDBRANCH  38  39
ENDBRANCH  37  38
ENDBRANCH  36  37
ENDBRANCH   1  36
TORSDOF 15
