MODEL 3612
MODEL 1
REMARK VINA RESULT:    -4.310      0.000      0.000
REMARK INTER + INTRA:          -4.310
REMARK INTER:                  -4.310
REMARK INTRA:                   0.000
REMARK UNBOUND:                 0.000
REMARK  Name = No_3612-gen_results/8p0m/2024-11-27-11-27-31/
REMARK  0 active torsions:
REMARK  status: ('A' for Active; 'I' for Inactive)
REMARK                            x       y       z     vdW  Elec       q    Type
REMARK                         _______ _______ _______ _____ _____    ______ ____
ROOT
ATOM      1  C   UNL A   1     -24.107  -4.879  28.622  0.00  0.00    +0.000 A 
ATOM      2  C   UNL A   1     -25.008  -5.303  28.965  0.00  0.00    +0.000 A 
ATOM      3  C   UNL A   1     -24.067  -3.421  28.732  0.00  0.00    +0.000 A 
ATOM      4  C   UNL A   1     -24.883  -2.816  29.288  0.00  0.00    +0.000 A 
ATOM      5  C   UNL A   1     -26.172  -4.781  29.656  0.00  0.00    +0.000 A 
ATOM      6  C   UNL A   1     -26.067  -3.370  29.787  0.00  0.00    +0.000 A 
ENDROOT
TORSDOF 0
ENDMDL
ENDMDL
