MODEL 3613
MODEL 1
REMARK VINA RESULT:    -6.749      0.000      0.000
REMARK INTER + INTRA:          -8.372
REMARK INTER:                  -7.538
REMARK INTRA:                  -0.834
REMARK UNBOUND:                -0.834
REMARK  Name = No_3613-gen_results/8p0m/2024-11-27-11-27-31/
REMARK  2 active torsions:
REMARK  status: ('A' for Active; 'I' for Inactive)
REMARK    1  A    between atoms: C_3  and  C_7
REMARK    2  A    between atoms: C_9  and  C_11
REMARK                            x       y       z     vdW  Elec       q    Type
REMARK                         _______ _______ _______ _____ _____    ______ ____
ROOT
ATOM      1  C   UNL A   1     -24.452  -1.056  28.331  0.00  0.00    -0.000 A 
ATOM      2  C   UNL A   1     -24.871  -0.525  27.296  0.00  0.00    -0.000 A 
ATOM      3  C   UNL A   1     -23.491  -0.353  29.166  0.00  0.00    -0.000 A 
ATOM      4  C   UNL A   1     -24.251   0.640  26.727  0.00  0.00    -0.000 A 
ATOM      5  C   UNL A   1     -23.374   1.379  27.640  0.00  0.00    -0.000 A 
ATOM      6  C   UNL A   1     -23.080   0.883  28.812  0.00  0.00    -0.000 A 
ENDROOT
BRANCH   1   9
ATOM      7  C   UNL A   1     -26.059  -2.639  29.550  0.00  0.00    -0.000 A 
ATOM      8  C   UNL A   1     -26.288  -3.632  29.818  0.00  0.00    +0.000 A 
ATOM      9  C   UNL A   1     -24.885  -2.414  28.798  0.00  0.00    -0.000 A 
ATOM     10  C   UNL A   1     -24.045  -3.446  28.428  0.00  0.00    -0.000 A 
ATOM     11  C   UNL A   1     -24.425  -4.720  28.817  0.00  0.00    +0.000 A 
ATOM     12  C   UNL A   1     -25.599  -4.895  29.518  0.00  0.00    +0.000 A 
ENDBRANCH   1   9
BRANCH   3  13
ATOM     13  C   UNL A   1     -23.057  -0.998  30.476  0.00  0.00    -0.005 C 
ATOM     14  C   UNL A   1     -23.491  -0.717  31.722  0.00  0.00    -0.026 C 
ATOM     15  C   UNL A   1     -23.091  -1.342  32.841  0.00  0.00    +0.031 C 
ENDBRANCH   3  13
TORSDOF 2
ENDMDL
ENDMDL
