REMARK  Name = outputs/IAG933/test6/raw/output_3614_IAG933_linker_design_.xyz
REMARK  10 active torsions:
REMARK  status: ('A' for Active; 'I' for Inactive)
REMARK    1  A    between atoms: C_1  and  C_2
REMARK    2  A    between atoms: C_1  and  C_8
REMARK    3  A    between atoms: C_1  and  C_42
REMARK    4  A    between atoms: C_13  and  C_36
REMARK    5  A    between atoms: C_14  and  C_15
REMARK    6  A    between atoms: C_21  and  O_22
REMARK    7  A    between atoms: O_22  and  C_23
REMARK    8  A    between atoms: C_23  and  C_24
REMARK    9  A    between atoms: C_31  and  C_38
REMARK   10  A    between atoms: C_37  and  C_40
REMARK                            x       y       z     vdW  Elec       q    Type
REMARK                         _______ _______ _______ _____ _____    ______ ____
ROOT
ATOM      1  C   UNL A   1     -22.503   1.069  27.831  0.00  0.00    +0.057 C 
ATOM      2  C   UNL A   1     -25.423   0.606  28.465  0.00  0.00    +0.046 C 
ATOM      3  C   UNL A   1     -24.871   1.233  27.260  0.00  0.00    -0.010 C 
ATOM      4  C   UNL A   1     -23.566   1.499  26.902  0.00  0.00    +0.008 C 
ATOM      5  C   UNL A   1     -24.330  -0.001  29.130  0.00  0.00    -0.012 C 
ATOM      6 CL   UNL A   1     -21.053   1.779  27.415  0.00  0.00    -0.082 Cl
ATOM      7  C   UNL A   1     -22.811   0.234  28.919  0.00  0.00    +0.008 C 
ENDROOT
BRANCH   2  14
ATOM      8  C   UNL A   1     -28.262   0.961  30.801  0.00  0.00    +0.102 C 
ATOM      9  N   UNL A   1     -27.137   0.499  30.015  0.00  0.00    -0.210 NA
ATOM     10  C   UNL A   1     -29.269   0.532  28.157  0.00  0.00    +0.241 C 
ATOM     11  C   UNL A   1     -29.666   1.739  28.987  0.00  0.00    +0.057 C 
ATOM     12  O   UNL A   1     -27.811   0.233  27.916  0.00  0.00    -0.455 OA
ATOM     13  C   UNL A   1     -30.165   2.729  28.378  0.00  0.00    -0.105 C 
ATOM     14  C   UNL A   1     -26.729   0.494  28.738  0.00  0.00    +0.225 C 
ATOM     15  C   UNL A   1     -30.901   3.802  27.907  0.00  0.00    +0.035 C 
ATOM     16  C   UNL A   1     -29.477   1.630  30.347  0.00  0.00    +0.028 C 
BRANCH  15  17
ATOM     17  C   UNL A   1     -32.009   4.327  28.664  0.00  0.00    +0.143 C 
ATOM     18  N   UNL A   1     -33.255   4.431  27.956  0.00  0.00    -0.126 NA
ENDBRANCH  15  17
ENDBRANCH   2  14
BRANCH   3  19
ATOM     19  C   UNL A   1     -25.688   1.614  26.461  0.00  0.00    +0.092 C 
ATOM     20  C   UNL A   1     -26.250   2.920  26.395  0.00  0.00    +0.059 C 
ATOM     21  C   UNL A   1     -27.438   3.091  25.645  0.00  0.00    +0.102 C 
ATOM     22  N   UNL A   1     -28.075   2.089  25.003  0.00  0.00    -0.212 NA
ATOM     23  C   UNL A   1     -27.543   0.849  25.079  0.00  0.00    +0.234 C 
ATOM     24  C   UNL A   1     -26.354   0.576  25.777  0.00  0.00    +0.244 C 
ATOM     25  F   UNL A   1     -25.860  -0.681  25.795  0.00  0.00    -0.227 F 
BRANCH  20  26
ATOM     26  C   UNL A   1     -25.642   4.093  27.123  0.00  0.00    +0.263 C 
ATOM     27  N   UNL A   1     -25.614   5.252  26.449  0.00  0.00    -0.200 NA
ATOM     28  C   UNL A   1     -25.026   6.479  26.963  0.00  0.00    +0.139 C 
ATOM     29  O   UNL A   1     -25.143   3.966  28.243  0.00  0.00    -0.269 OA
ENDBRANCH  20  26
BRANCH  23  30
ATOM     30  O   UNL A   1     -28.193  -0.208  24.477  0.00  0.00    -0.459 OA
BRANCH  30  31
ATOM     31  C   UNL A   1     -29.460   0.005  23.866  0.00  0.00    +0.242 C 
BRANCH  31  32
ATOM     32  C   UNL A   1     -30.065  -1.377  23.573  0.00  0.00    +0.229 C 
ATOM     33  O   UNL A   1     -30.729  -1.878  24.721  0.00  0.00    -0.216 OA
ENDBRANCH  31  32
ENDBRANCH  30  31
ENDBRANCH  23  30
ENDBRANCH   3  19
BRANCH   5  34
ATOM     34  C   UNL A   1     -24.855  -1.012  30.143  0.00  0.00    +0.061 C 
BRANCH  34  35
ATOM     35  C   UNL A   1     -24.973  -2.505  29.788  0.00  0.00    -0.017 C 
ATOM     36  C   UNL A   1     -23.906  -3.173  29.146  0.00  0.00    -0.004 C 
ATOM     37  C   UNL A   1     -23.989  -4.549  28.853  0.00  0.00    -0.000 C 
ATOM     38  C   UNL A   1     -25.137  -5.280  29.205  0.00  0.00    -0.000 C 
ATOM     39  C   UNL A   1     -26.232  -4.611  29.784  0.00  0.00    -0.000 C 
ATOM     40  C   UNL A   1     -26.155  -3.232  30.065  0.00  0.00    -0.004 C 
ENDBRANCH  34  35
BRANCH  34  41
ATOM     41  C   UNL A   1     -25.387  -0.679  31.571  0.00  0.00    +0.081 C 
ATOM     42  C   UNL A   1     -25.189   0.773  32.028  0.00  0.00    +0.019 C 
ATOM     43  C   UNL A   1     -25.336   0.684  33.544  0.00  0.00    +0.020 C 
ATOM     44  C   UNL A   1     -24.829  -0.715  33.905  0.00  0.00    +0.089 C 
ATOM     45  N   UNL A   1     -24.758  -1.481  32.646  0.00  0.00    -0.219 NA
ENDBRANCH  34  41
ENDBRANCH   5  34
TORSDOF 10
