MODEL 3614
MODEL 1
REMARK VINA RESULT:    -5.628      0.000      0.000
REMARK INTER + INTRA:          -6.750
REMARK INTER:                  -6.615
REMARK INTRA:                  -0.135
REMARK UNBOUND:                -0.135
REMARK  Name = No_3614-gen_results/8p0m/2024-11-27-11-27-31/
REMARK  3 active torsions:
REMARK  status: ('A' for Active; 'I' for Inactive)
REMARK    1  A    between atoms: C_1  and  C_8
REMARK    2  A    between atoms: C_5  and  C_10
REMARK    3  A    between atoms: C_8  and  C_9
REMARK                            x       y       z     vdW  Elec       q    Type
REMARK                         _______ _______ _______ _____ _____    ______ ____
ROOT
ATOM      1  C   UNL A   1     -30.370 -10.429  29.285  0.00  0.00    -0.028 C 
ATOM      2  C   UNL A   1     -29.672 -10.768  30.212  0.00  0.00    -0.048 C 
ATOM      3  C   UNL A   1     -28.724 -11.661  30.214  0.00  0.00    +0.022 C 
ATOM      4  C   UNL A   1     -27.884 -12.046  31.375  0.00  0.00    +0.016 C 
ATOM      5  C   UNL A   1     -28.114 -11.333  32.586  0.00  0.00    +0.104 C 
ATOM      6  C   UNL A   1     -29.071 -10.351  32.572  0.00  0.00    +0.016 C 
ATOM      7  C   UNL A   1     -29.806 -10.019  31.486  0.00  0.00    +0.022 C 
ENDROOT
BRANCH   5   8
ATOM      8  C   UNL A   1     -27.339 -11.607  33.780  0.00  0.00    +0.364 C 
ATOM      9  O   UNL A   1     -27.328 -10.957  34.749  0.00  0.00    -0.246 OA
ATOM     10  O   UNL A   1     -26.772 -12.840  33.782  0.00  0.00    -0.246 OA
ENDBRANCH   5   8
BRANCH   1  11
ATOM     11  C   UNL A   1     -30.466 -11.361  28.218  0.00  0.00    +0.074 C 
BRANCH  11  12
ATOM     12  C   UNL A   1     -30.237 -10.927  26.933  0.00  0.00    +0.100 C 
ATOM     13  N   UNL A   1     -29.709 -11.602  26.043  0.00  0.00    -0.151 NA
ENDBRANCH  11  12
ENDBRANCH   1  11
TORSDOF 3
ENDMDL
ENDMDL
