MODEL 3615
MODEL 1
REMARK VINA RESULT:    -6.333      0.000      0.000
REMARK INTER + INTRA:          -6.962
REMARK INTER:                  -6.703
REMARK INTRA:                  -0.259
REMARK UNBOUND:                -0.259
REMARK  Name = No_3615-gen_results/8p0m/2024-11-27-11-27-31/
REMARK  1 active torsions:
REMARK  status: ('A' for Active; 'I' for Inactive)
REMARK    1  A    between atoms: C_4  and  C_11
REMARK                            x       y       z     vdW  Elec       q    Type
REMARK                         _______ _______ _______ _____ _____    ______ ____
ROOT
ATOM      1  C   UNL A   1     -25.803   0.412  26.011  0.00  0.00    -0.000 A 
ATOM      2  C   UNL A   1     -25.503  -0.433  26.823  0.00  0.00    -0.000 A 
ATOM      3  C   UNL A   1     -24.357  -0.369  27.615  0.00  0.00    -0.000 A 
ATOM      4  C   UNL A   1     -23.908  -1.356  28.616  0.00  0.00    -0.000 A 
ATOM      5  C   UNL A   1     -22.695  -1.278  29.389  0.00  0.00    -0.000 A 
ATOM      6  C   UNL A   1     -22.019  -0.058  29.294  0.00  0.00    -0.000 A 
ATOM      7  C   UNL A   1     -24.800   1.498  25.742  0.00  0.00    +0.000 A 
ATOM      8  C   UNL A   1     -23.690   1.688  26.533  0.00  0.00    -0.000 A 
ATOM      9  C   UNL A   1     -23.376   0.741  27.490  0.00  0.00    -0.000 A 
ATOM     10  C   UNL A   1     -22.269   0.890  28.324  0.00  0.00    -0.000 A 
ENDROOT
BRANCH   4  11
ATOM     11  C   UNL A   1     -24.721  -2.590  28.869  0.00  0.00    -0.005 C 
ATOM     12  C   UNL A   1     -24.091  -3.813  28.674  0.00  0.00    -0.026 C 
ATOM     13  C   UNL A   1     -24.822  -4.982  28.992  0.00  0.00    +0.031 C 
ENDBRANCH   4  11
TORSDOF 1
ENDMDL
ENDMDL
