REMARK  Name = outputs/IAG933/test6/raw/output_3616_IAG933_linker_design_.xyz
REMARK  11 active torsions:
REMARK  status: ('A' for Active; 'I' for Inactive)
REMARK    1  A    between atoms: C_1  and  C_2
REMARK    2  A    between atoms: C_1  and  C_8
REMARK    3  A    between atoms: C_1  and  C_40
REMARK    4  A    between atoms: C_13  and  C_35
REMARK    5  A    between atoms: C_14  and  C_15
REMARK    6  A    between atoms: C_21  and  O_22
REMARK    7  A    between atoms: O_22  and  C_23
REMARK    8  A    between atoms: C_23  and  C_24
REMARK    9  A    between atoms: C_31  and  C_43
REMARK   10  A    between atoms: N_32  and  C_40
REMARK   11  A    between atoms: C_38  and  C_40
REMARK                            x       y       z     vdW  Elec       q    Type
REMARK                         _______ _______ _______ _____ _____    ______ ____
ROOT
ATOM      1  C   UNL A   1     -22.765   0.601  28.531  0.00  0.00    +0.099 C 
ATOM      2  C   UNL A   1     -24.375   1.419  27.096  0.00  0.00    -0.011 C 
ATOM      3  C   UNL A   1     -23.187   1.989  26.687  0.00  0.00    +0.027 C 
ATOM      4  C   UNL A   1     -22.234   1.517  27.589  0.00  0.00    +0.153 C 
ATOM      5  C   UNL A   1     -24.104   0.676  28.307  0.00  0.00    +0.084 C 
ATOM      6  N   UNL A   1     -22.144  -0.160  29.544  0.00  0.00    -0.130 NA
ATOM      7  F   UNL A   1     -20.985   1.946  27.608  0.00  0.00    -0.203 F 
ENDROOT
BRANCH   2   8
ATOM      8  C   UNL A   1     -25.688   1.614  26.461  0.00  0.00    +0.035 C 
ATOM      9  C   UNL A   1     -26.250   2.920  26.395  0.00  0.00    +0.076 C 
ATOM     10  C   UNL A   1     -27.438   3.091  25.645  0.00  0.00    +0.107 C 
ATOM     11  N   UNL A   1     -28.075   2.089  25.003  0.00  0.00    -0.208 NA
ATOM     12  C   UNL A   1     -27.543   0.849  25.079  0.00  0.00    +0.253 C 
ATOM     13  C   UNL A   1     -26.354   0.576  25.777  0.00  0.00    +0.193 C 
ATOM     14  F   UNL A   1     -25.860  -0.681  25.795  0.00  0.00    -0.199 F 
BRANCH   9  15
ATOM     15  C   UNL A   1     -25.642   4.093  27.123  0.00  0.00    +0.266 C 
ATOM     16  N   UNL A   1     -25.614   5.252  26.449  0.00  0.00    -0.200 NA
ATOM     17  C   UNL A   1     -25.026   6.479  26.963  0.00  0.00    +0.139 C 
ATOM     18  O   UNL A   1     -25.143   3.966  28.243  0.00  0.00    -0.268 OA
ENDBRANCH   9  15
BRANCH  12  19
ATOM     19  O   UNL A   1     -28.193  -0.208  24.477  0.00  0.00    -0.456 OA
BRANCH  19  20
ATOM     20  C   UNL A   1     -29.460   0.005  23.866  0.00  0.00    +0.243 C 
BRANCH  20  21
ATOM     21  C   UNL A   1     -30.065  -1.377  23.573  0.00  0.00    +0.229 C 
ATOM     22  O   UNL A   1     -30.729  -1.878  24.721  0.00  0.00    -0.216 OA
ENDBRANCH  20  21
ENDBRANCH  19  20
ENDBRANCH  12  19
ENDBRANCH   2   8
BRANCH   5  23
ATOM     23  C   UNL A   1     -25.073   0.205  29.193  0.00  0.00    +0.110 C 
BRANCH  23  25
ATOM     24  O   UNL A   1     -28.036  -0.005  29.423  0.00  0.00    -0.268 OA
ATOM     25  N   UNL A   1     -26.153   1.109  29.465  0.00  0.00    -0.202 NA
ATOM     26  C   UNL A   1     -27.450   1.027  29.766  0.00  0.00    +0.265 C 
BRANCH  26  28
ATOM     27  C   UNL A   1     -29.061   3.768  32.625  0.00  0.00    +0.000 C 
ATOM     28  C   UNL A   1     -28.073   2.155  30.544  0.00  0.00    +0.055 C 
ATOM     29  C   UNL A   1     -27.219   3.119  31.137  0.00  0.00    +0.005 C 
ATOM     30  C   UNL A   1     -29.962   3.025  31.836  0.00  0.00    +0.000 C 
ATOM     31  C   UNL A   1     -27.707   3.861  32.238  0.00  0.00    +0.000 C 
ATOM     32  C   UNL A   1     -29.458   2.247  30.784  0.00  0.00    +0.005 C 
ENDBRANCH  26  28
ENDBRANCH  23  25
BRANCH  23  33
ATOM     33  C   UNL A   1     -24.855  -1.012  30.143  0.00  0.00    +0.059 C 
BRANCH  33  34
ATOM     34  C   UNL A   1     -24.973  -2.505  29.788  0.00  0.00    -0.019 C 
ATOM     35  C   UNL A   1     -23.906  -3.173  29.146  0.00  0.00    -0.004 C 
ATOM     36  C   UNL A   1     -23.989  -4.549  28.853  0.00  0.00    -0.000 C 
ATOM     37  C   UNL A   1     -25.137  -5.280  29.205  0.00  0.00    -0.000 C 
ATOM     38  C   UNL A   1     -26.232  -4.611  29.784  0.00  0.00    -0.000 C 
ATOM     39  C   UNL A   1     -26.155  -3.232  30.065  0.00  0.00    -0.004 C 
ENDBRANCH  33  34
BRANCH  33  40
ATOM     40  C   UNL A   1     -25.387  -0.679  31.571  0.00  0.00    +0.079 C 
ATOM     41  C   UNL A   1     -25.189   0.773  32.028  0.00  0.00    +0.019 C 
ATOM     42  C   UNL A   1     -25.336   0.684  33.544  0.00  0.00    +0.020 C 
ATOM     43  C   UNL A   1     -24.829  -0.715  33.905  0.00  0.00    +0.089 C 
ATOM     44  N   UNL A   1     -24.758  -1.481  32.646  0.00  0.00    -0.219 NA
ENDBRANCH  33  40
ENDBRANCH  23  33
ENDBRANCH   5  23
TORSDOF 11
