MODEL 3616
MODEL 1
REMARK VINA RESULT:    -4.298      0.000      0.000
REMARK INTER + INTRA:          -4.298
REMARK INTER:                  -4.298
REMARK INTRA:                   0.000
REMARK UNBOUND:                 0.000
REMARK  Name = No_3616-gen_results/8p0m/2024-11-27-11-27-31/
REMARK  0 active torsions:
REMARK  status: ('A' for Active; 'I' for Inactive)
REMARK                            x       y       z     vdW  Elec       q    Type
REMARK                         _______ _______ _______ _____ _____    ______ ____
ROOT
ATOM      1  C   UNL A   1     -24.970  -5.387  28.978  0.00  0.00    +0.000 A 
ATOM      2  C   UNL A   1     -24.202  -4.708  28.734  0.00  0.00    +0.000 A 
ATOM      3  C   UNL A   1     -26.129  -4.758  29.611  0.00  0.00    +0.000 A 
ATOM      4  C   UNL A   1     -26.192  -3.405  29.837  0.00  0.00    +0.000 A 
ATOM      5  C   UNL A   1     -23.999  -3.264  28.847  0.00  0.00    +0.000 A 
ATOM      6  C   UNL A   1     -25.115  -2.645  29.459  0.00  0.00    +0.000 A 
ENDROOT
TORSDOF 0
ENDMDL
ENDMDL
