MODEL 3617
MODEL 1
REMARK VINA RESULT:    -5.596      0.000      0.000
REMARK INTER + INTRA:          -6.049
REMARK INTER:                  -5.923
REMARK INTRA:                  -0.126
REMARK UNBOUND:                -0.126
REMARK  Name = No_3617-gen_results/8p0m/2024-11-27-11-27-31/
REMARK  1 active torsions:
REMARK  status: ('A' for Active; 'I' for Inactive)
REMARK    1  A    between atoms: C_1  and  C_7
REMARK                            x       y       z     vdW  Elec       q    Type
REMARK                         _______ _______ _______ _____ _____    ______ ____
ROOT
ATOM      1  C   UNL A   1     -24.325  -2.696  29.265  0.00  0.00    +0.074 A 
ATOM      2  C   UNL A   1     -23.786  -3.641  28.737  0.00  0.00    +0.006 A 
ATOM      3  C   UNL A   1     -24.335  -4.907  28.692  0.00  0.00    +0.002 A 
ATOM      4  C   UNL A   1     -25.624  -5.096  29.265  0.00  0.00    +0.021 A 
ATOM      5  C   UNL A   1     -26.257  -3.977  29.690  0.00  0.00    +0.099 A 
ATOM      6  C   UNL A   1     -25.668  -2.797  29.657  0.00  0.00    +0.103 A 
ATOM      7  N   UNL A   1     -27.546  -4.154  30.203  0.00  0.00    -0.241 NA
ATOM      8  C   UNL A   1     -28.228  -3.141  30.603  0.00  0.00    +0.119 A 
ATOM      9  C   UNL A   1     -27.755  -1.891  30.400  0.00  0.00    +0.119 A 
ATOM     10  N   UNL A   1     -26.443  -1.676  30.034  0.00  0.00    -0.240 NA
ENDROOT
BRANCH   1  11
ATOM     11  C   UNL A   1     -23.656  -1.344  29.258  0.00  0.00    +0.266 C 
ATOM     12  O   UNL A   1     -23.128  -0.956  30.292  0.00  0.00    -0.268 OA
ATOM     13  N   UNL A   1     -23.765  -0.488  28.217  0.00  0.00    -0.200 NA
ATOM     14  C   UNL A   1     -23.277   0.866  28.325  0.00  0.00    +0.139 C 
ENDBRANCH   1  11
TORSDOF 1
ENDMDL
ENDMDL
