REMARK  Name = outputs/IAG933/test6/raw/output_3617_IAG933_linker_design_.xyz
REMARK  14 active torsions:
REMARK  status: ('A' for Active; 'I' for Inactive)
REMARK    1  A    between atoms: C_1  and  C_2
REMARK    2  A    between atoms: C_1  and  C_8
REMARK    3  A    between atoms: C_1  and  C_44
REMARK    4  A    between atoms: C_13  and  N_40
REMARK    5  A    between atoms: C_14  and  C_15
REMARK    6  A    between atoms: C_21  and  O_22
REMARK    7  A    between atoms: O_22  and  C_23
REMARK    8  A    between atoms: C_23  and  C_24
REMARK    9  A    between atoms: C_28  and  O_34
REMARK   10  A    between atoms: C_28  and  C_36
REMARK   11  A    between atoms: O_29  and  C_41
REMARK   12  A    between atoms: O_34  and  C_41
REMARK   13  A    between atoms: C_36  and  C_42
REMARK   14  A    between atoms: C_38  and  C_44
REMARK                            x       y       z     vdW  Elec       q    Type
REMARK                         _______ _______ _______ _____ _____    ______ ____
ROOT
ATOM      1  N   UNL A   1     -23.593   1.819  25.093  0.00  0.00    +0.213 NA
ATOM      2  C   UNL A   1     -22.493   1.467  27.157  0.00  0.00    +0.224 C 
ATOM      3  C   UNL A   1     -22.504   1.221  28.515  0.00  0.00    +0.033 C 
ATOM      4  C   UNL A   1     -24.761   0.813  28.386  0.00  0.00    +0.185 C 
ATOM      5  F   UNL A   1     -21.326   1.821  26.627  0.00  0.00    -0.196 F 
ATOM      6  N   UNL A   1     -24.678   1.237  27.108  0.00  0.00    -0.164 N 
ATOM      7  C   UNL A   1     -23.734   1.185  29.231  0.00  0.00    +0.012 C 
ATOM      8  C   UNL A   1     -23.667   1.498  26.414  0.00  0.00    +0.396 C 
ENDROOT
BRANCH   6   9
ATOM      9  C   UNL A   1     -25.688   1.614  26.461  0.00  0.00    +0.177 C 
ATOM     10  C   UNL A   1     -26.250   2.920  26.395  0.00  0.00    +0.114 C 
ATOM     11  C   UNL A   1     -27.438   3.091  25.645  0.00  0.00    +0.110 C 
ATOM     12  N   UNL A   1     -28.075   2.089  25.003  0.00  0.00    -0.208 NA
ATOM     13  C   UNL A   1     -27.543   0.849  25.079  0.00  0.00    +0.257 C 
ATOM     14  C   UNL A   1     -26.354   0.576  25.777  0.00  0.00    +0.230 C 
ATOM     15  F   UNL A   1     -25.860  -0.681  25.795  0.00  0.00    -0.196 F 
BRANCH  10  16
ATOM     16  C   UNL A   1     -25.642   4.093  27.123  0.00  0.00    +0.270 C 
ATOM     17  N   UNL A   1     -25.614   5.252  26.449  0.00  0.00    -0.200 NA
ATOM     18  C   UNL A   1     -25.026   6.479  26.963  0.00  0.00    +0.139 C 
ATOM     19  O   UNL A   1     -25.143   3.966  28.243  0.00  0.00    -0.268 OA
ENDBRANCH  10  16
BRANCH  13  20
ATOM     20  O   UNL A   1     -28.193  -0.208  24.477  0.00  0.00    -0.456 OA
BRANCH  20  21
ATOM     21  C   UNL A   1     -29.460   0.005  23.866  0.00  0.00    +0.243 C 
BRANCH  21  22
ATOM     22  C   UNL A   1     -30.065  -1.377  23.573  0.00  0.00    +0.229 C 
ATOM     23  O   UNL A   1     -30.729  -1.878  24.721  0.00  0.00    -0.216 OA
ENDBRANCH  21  22
ENDBRANCH  20  21
ENDBRANCH  13  20
ENDBRANCH   6   9
BRANCH   7  24
ATOM     24  C   UNL A   1     -24.031   2.211  30.545  0.00  0.00    +0.136 C 
BRANCH  24  25
ATOM     25  C   UNL A   1     -24.762   3.674  31.228  0.00  0.00    +0.323 C 
ATOM     26  O   UNL A   1     -25.518   4.296  30.565  0.00  0.00    -0.250 OA
BRANCH  25  27
ATOM     27  O   UNL A   1     -24.477   3.811  32.555  0.00  0.00    -0.424 OA
BRANCH  27  29
ATOM     28  C   UNL A   1     -25.652   5.129  34.202  0.00  0.00    +0.083 C 
ATOM     29  C   UNL A   1     -24.474   5.069  33.257  0.00  0.00    +0.291 C 
BRANCH  29  30
ATOM     30  O   UNL A   1     -24.366   6.091  32.325  0.00  0.00    -0.318 OA
ATOM     31  C   UNL A   1     -25.386   7.085  32.366  0.00  0.00    +0.178 C 
ENDBRANCH  29  30
ENDBRANCH  27  29
ENDBRANCH  25  27
ENDBRANCH  24  25
ENDBRANCH   7  24
BRANCH   4  32
ATOM     32  C   UNL A   1     -25.654  -0.274  29.043  0.00  0.00    +0.057 C 
BRANCH  32  33
ATOM     33  C   UNL A   1     -24.855  -1.012  30.143  0.00  0.00    +0.043 C 
BRANCH  33  34
ATOM     34  C   UNL A   1     -24.973  -2.505  29.788  0.00  0.00    -0.021 C 
ATOM     35  C   UNL A   1     -23.906  -3.173  29.146  0.00  0.00    -0.004 C 
ATOM     36  C   UNL A   1     -23.989  -4.549  28.853  0.00  0.00    -0.000 C 
ATOM     37  C   UNL A   1     -25.137  -5.280  29.205  0.00  0.00    -0.000 C 
ATOM     38  C   UNL A   1     -26.232  -4.611  29.784  0.00  0.00    -0.000 C 
ATOM     39  C   UNL A   1     -26.155  -3.232  30.065  0.00  0.00    -0.004 C 
ENDBRANCH  33  34
BRANCH  33  40
ATOM     40  C   UNL A   1     -25.387  -0.679  31.571  0.00  0.00    +0.077 C 
ATOM     41  C   UNL A   1     -25.189   0.773  32.028  0.00  0.00    +0.019 C 
ATOM     42  C   UNL A   1     -25.336   0.684  33.544  0.00  0.00    +0.020 C 
ATOM     43  C   UNL A   1     -24.829  -0.715  33.905  0.00  0.00    +0.089 C 
ATOM     44  N   UNL A   1     -24.758  -1.481  32.646  0.00  0.00    -0.219 NA
ENDBRANCH  33  40
ENDBRANCH  32  33
ENDBRANCH   4  32
TORSDOF 14
