MODEL 3618
MODEL 1
REMARK VINA RESULT:    -7.070      0.000      0.000
REMARK INTER + INTRA:         -13.228
REMARK INTER:                  -9.963
REMARK INTRA:                  -3.265
REMARK UNBOUND:                -3.265
REMARK  Name = No_3618-gen_results/8p0m/2024-11-27-11-27-31/
REMARK  7 active torsions:
REMARK  status: ('A' for Active; 'I' for Inactive)
REMARK    1  A    between atoms: C_1  and  C_2
REMARK    2  A    between atoms: C_1  and  C_8
REMARK    3  A    between atoms: C_3  and  C_18
REMARK    4  A    between atoms: C_5  and  C_14
REMARK    5  A    between atoms: C_10  and  C_32
REMARK    6  A    between atoms: C_21  and  C_22
REMARK    7  A    between atoms: C_26  and  C_29
REMARK                            x       y       z     vdW  Elec       q    Type
REMARK                         _______ _______ _______ _____ _____    ______ ____
ROOT
ATOM      1  C   UNL A   1     -24.064   1.479  26.974  0.00  0.00    -0.013 A 
ATOM      2  C   UNL A   1     -25.227   2.122  27.350  0.00  0.00    +0.052 A 
ATOM      3  C   UNL A   1     -26.439   2.211  26.557  0.00  0.00    +0.008 A 
ATOM      4  C   UNL A   1     -26.544   1.654  25.631  0.00  0.00    +0.071 A 
ATOM      5  C   UNL A   1     -25.445   0.865  24.989  0.00  0.00    +0.004 A 
ATOM      6  C   UNL A   1     -24.234   0.758  25.716  0.00  0.00    -0.004 A 
ENDROOT
BRANCH   2   7
ATOM      7  C   UNL A   1     -25.199   2.888  28.630  0.00  0.00    +0.271 C 
ATOM      8  O   UNL A   1     -25.288   3.903  28.717  0.00  0.00    -0.268 OA
ATOM      9  N   UNL A   1     -25.459   2.065  29.780  0.00  0.00    -0.137 NA
ATOM     10  C   UNL A   1     -25.558   2.657  31.058  0.00  0.00    +0.272 C 
ATOM     11  O   UNL A   1     -25.207   3.718  31.321  0.00  0.00    -0.268 OA
BRANCH  10  12
ATOM     12  C   UNL A   1     -26.130   1.795  31.939  0.00  0.00    +0.056 A 
ATOM     13  C   UNL A   1     -27.411   1.446  31.900  0.00  0.00    +0.005 A 
ATOM     14  C   UNL A   1     -27.932   0.357  32.574  0.00  0.00    +0.000 A 
ATOM     15  C   UNL A   1     -27.135  -0.312  33.557  0.00  0.00    +0.004 A 
ATOM     16  C   UNL A   1     -25.816   0.032  33.680  0.00  0.00    +0.050 A 
ATOM     17  C   UNL A   1     -25.307   0.974  32.834  0.00  0.00    +0.009 A 
BRANCH  16  18
ATOM     18  C   UNL A   1     -24.939  -0.702  34.619  0.00  0.00    +0.254 C 
ATOM     19 CL   UNL A   1     -25.097  -0.770  35.899  0.00  0.00    -0.038 Cl
ATOM     20  O   UNL A   1     -23.841  -1.298  33.953  0.00  0.00    -0.274 OA
ENDBRANCH  16  18
ENDBRANCH  10  12
ENDBRANCH   2   7
BRANCH   4  21
ATOM     21  C   UNL A   1     -27.802   1.630  24.679  0.00  0.00    +0.419 C 
ATOM     22  F   UNL A   1     -27.969   2.698  24.167  0.00  0.00    -0.166 F 
ATOM     23  F   UNL A   1     -28.982   1.335  25.322  0.00  0.00    -0.166 F 
ATOM     24  F   UNL A   1     -27.564   0.706  23.711  0.00  0.00    -0.166 F 
ENDBRANCH   4  21
BRANCH   1  25
ATOM     25  C   UNL A   1     -23.096   1.372  27.692  0.00  0.00    +0.053 C 
BRANCH  25  26
ATOM     26  C   UNL A   1     -22.814  -0.021  28.163  0.00  0.00    -0.018 A 
ATOM     27  C   UNL A   1     -23.939  -0.916  28.317  0.00  0.00    -0.000 A 
ATOM     28  C   UNL A   1     -24.399  -1.016  29.265  0.00  0.00    +0.071 A 
ATOM     29  C   UNL A   1     -23.654  -1.063  30.513  0.00  0.00    +0.004 A 
ATOM     30  C   UNL A   1     -22.312  -0.622  30.383  0.00  0.00    -0.000 A 
ATOM     31  C   UNL A   1     -21.841  -0.297  29.133  0.00  0.00    -0.004 A 
BRANCH  28  32
ATOM     32  C   UNL A   1     -25.746  -1.559  29.681  0.00  0.00    +0.419 C 
ATOM     33  F   UNL A   1     -25.826  -2.744  29.025  0.00  0.00    -0.166 F 
ATOM     34  F   UNL A   1     -26.804  -0.865  29.346  0.00  0.00    -0.166 F 
ATOM     35  F   UNL A   1     -25.825  -1.833  30.947  0.00  0.00    -0.166 F 
ENDBRANCH  28  32
ENDBRANCH  25  26
ENDBRANCH   1  25
TORSDOF 7
ENDMDL
ENDMDL
