MODEL 3619
MODEL 1
REMARK VINA RESULT:    -6.934      0.000      0.000
REMARK INTER + INTRA:         -10.962
REMARK INTER:                  -9.771
REMARK INTRA:                  -1.191
REMARK UNBOUND:                -1.191
REMARK  Name = No_3619-gen_results/8p0m/2024-11-27-11-27-31/
REMARK  7 active torsions:
REMARK  status: ('A' for Active; 'I' for Inactive)
REMARK    1  A    between atoms: C_2  and  C_11
REMARK    2  A    between atoms: C_3  and  C_4
REMARK    3  A    between atoms: C_6  and  C_14
REMARK    4  A    between atoms: C_11  and  O_13
REMARK    5  A    between atoms: O_13  and  C_23
REMARK    6  A    between atoms: C_19  and  C_20
REMARK    7  A    between atoms: C_23  and  C_24
REMARK                            x       y       z     vdW  Elec       q    Type
REMARK                         _______ _______ _______ _____ _____    ______ ____
ROOT
ATOM      1  C   UNL A   1     -21.858 -19.494   7.091  0.00  0.00    +0.010 A 
ATOM      2  C   UNL A   1     -21.114 -19.335   6.361  0.00  0.00    +0.076 A 
ATOM      3  C   UNL A   1     -21.547 -20.582   8.017  0.00  0.00    +0.072 A 
ATOM      4  C   UNL A   1     -19.831 -19.949   6.049  0.00  0.00    +0.006 A 
ATOM      5  C   UNL A   1     -19.507 -20.990   6.895  0.00  0.00    +0.000 A 
ATOM      6  C   UNL A   1     -20.323 -21.294   7.920  0.00  0.00    +0.004 A 
ENDROOT
BRANCH   5   7
ATOM      7  C   UNL A   1     -18.230 -21.735   6.734  0.00  0.00    +0.000 A 
ATOM      8  C   UNL A   1     -17.812 -22.133   5.762  0.00  0.00    +0.000 A 
ATOM      9  C   UNL A   1     -16.516 -22.856   5.576  0.00  0.00    +0.000 A 
ATOM     10  C   UNL A   1     -15.683 -22.885   6.705  0.00  0.00    +0.007 A 
ATOM     11  C   UNL A   1     -17.398 -21.745   7.947  0.00  0.00    +0.007 A 
ATOM     12  C   UNL A   1     -16.132 -22.305   7.885  0.00  0.00    +0.080 A 
BRANCH  12  13
ATOM     13  C   UNL A   1     -15.228 -22.326   9.082  0.00  0.00    +0.388 C 
ATOM     14  O   UNL A   1     -14.219 -22.286   9.044  0.00  0.00    -0.241 OA
ATOM     15  O   UNL A   1     -15.939 -22.494  10.288  0.00  0.00    -0.241 OA
ENDBRANCH  12  13
ENDBRANCH   5   7
BRANCH   3  16
ATOM     16  C   UNL A   1     -22.384 -20.927   9.188  0.00  0.00    +0.419 C 
ATOM     17  F   UNL A   1     -22.295 -22.081   9.282  0.00  0.00    -0.166 F 
ATOM     18  F   UNL A   1     -21.964 -20.253  10.264  0.00  0.00    -0.166 F 
ATOM     19  F   UNL A   1     -23.696 -20.594   8.922  0.00  0.00    -0.166 F 
ENDBRANCH   3  16
BRANCH   2  20
ATOM     20  C   UNL A   1     -21.326 -18.099   5.335  0.00  0.00    +0.342 C 
ATOM     21  O   UNL A   1     -21.441 -18.343   4.267  0.00  0.00    -0.245 OA
BRANCH  20  22
ATOM     22  O   UNL A   1     -21.393 -16.862   5.821  0.00  0.00    -0.437 OA
BRANCH  22  23
ATOM     23  C   UNL A   1     -22.579 -16.132   5.684  0.00  0.00    +0.280 C 
BRANCH  23  24
ATOM     24  C   UNL A   1     -22.587 -14.967   5.529  0.00  0.00    +0.255 C 
ATOM     25  O   UNL A   1     -21.967 -14.624   4.360  0.00  0.00    -0.284 OA
ENDBRANCH  23  24
ENDBRANCH  22  23
ENDBRANCH  20  22
ENDBRANCH   2  20
TORSDOF 7
ENDMDL
ENDMDL
