REMARK  Name = No_3619-gen_results/8p0m/2024-11-27-11-27-31/
REMARK  7 active torsions:
REMARK  status: ('A' for Active; 'I' for Inactive)
REMARK    1  A    between atoms: C_2  and  C_11
REMARK    2  A    between atoms: C_3  and  C_4
REMARK    3  A    between atoms: C_6  and  C_14
REMARK    4  A    between atoms: C_11  and  O_13
REMARK    5  A    between atoms: O_13  and  C_23
REMARK    6  A    between atoms: C_19  and  C_20
REMARK    7  A    between atoms: C_23  and  C_24
REMARK                            x       y       z     vdW  Elec       q    Type
REMARK                         _______ _______ _______ _____ _____    ______ ____
ROOT
ATOM      1  C   UNL A   1     -28.016  -0.814  28.878  0.00  0.00    +0.010 A 
ATOM      2  C   UNL A   1     -28.469  -0.785  29.829  0.00  0.00    +0.076 A 
ATOM      3  C   UNL A   1     -27.087   0.290  28.638  0.00  0.00    +0.072 A 
ATOM      4  C   UNL A   1     -28.391   0.104  30.980  0.00  0.00    +0.006 A 
ATOM      5  C   UNL A   1     -27.533   1.167  30.787  0.00  0.00    +0.000 A 
ATOM      6  C   UNL A   1     -26.828   1.256  29.645  0.00  0.00    +0.004 A 
ENDROOT
BRANCH   5   7
ATOM      7  C   UNL A   1     -27.320   2.179  31.857  0.00  0.00    +0.000 A 
ATOM      8  C   UNL A   1     -27.086   1.960  32.940  0.00  0.00    +0.000 A 
ATOM      9  C   UNL A   1     -26.838   2.963  34.022  0.00  0.00    +0.000 A 
ATOM     10  C   UNL A   1     -26.730   4.292  33.587  0.00  0.00    +0.007 A 
ATOM     11  C   UNL A   1     -27.224   3.557  31.351  0.00  0.00    +0.007 A 
ATOM     12  C   UNL A   1     -26.907   4.574  32.238  0.00  0.00    +0.080 A 
BRANCH  12  13
ATOM     13  C   UNL A   1     -26.773   5.996  31.779  0.00  0.00    +0.388 C 
ATOM     14  O   UNL A   1     -26.663   6.283  30.816  0.00  0.00    -0.241 OA
ATOM     15  O   UNL A   1     -26.730   6.905  32.855  0.00  0.00    -0.241 OA
ENDBRANCH  12  13
ENDBRANCH   5   7
BRANCH   3  16
ATOM     16  C   UNL A   1     -26.252   0.411  27.422  0.00  0.00    +0.419 C 
ATOM     17  F   UNL A   1     -26.055   1.550  27.314  0.00  0.00    -0.166 F 
ATOM     18  F   UNL A   1     -25.147  -0.330  27.552  0.00  0.00    -0.166 F 
ATOM     19  F   UNL A   1     -26.973  -0.029  26.331  0.00  0.00    -0.166 F 
ENDBRANCH   3  16
BRANCH   2  20
ATOM     20  C   UNL A   1     -29.455  -2.009  30.224  0.00  0.00    +0.342 C 
ATOM     21  O   UNL A   1     -30.488  -1.969  29.842  0.00  0.00    -0.245 OA
BRANCH  20  22
ATOM     22  O   UNL A   1     -28.973  -3.017  30.947  0.00  0.00    -0.437 OA
BRANCH  22  23
ATOM     23  C   UNL A   1     -29.338  -4.330  30.626  0.00  0.00    +0.280 C 
BRANCH  23  24
ATOM     24  C   UNL A   1     -29.638  -4.651  29.536  0.00  0.00    +0.255 C 
ATOM     25  O   UNL A   1     -30.697  -5.515  29.553  0.00  0.00    -0.284 OA
ENDBRANCH  23  24
ENDBRANCH  22  23
ENDBRANCH  20  22
ENDBRANCH   2  20
TORSDOF 7
