MODEL 361
MODEL 1
REMARK VINA RESULT:    -7.529      0.000      0.000
REMARK INTER + INTRA:         -11.188
REMARK INTER:                  -9.729
REMARK INTRA:                  -1.459
REMARK UNBOUND:                -1.459
REMARK  Name = No_361-gen_results/8p0m/2024-11-27-11-27-31/
REMARK  5 active torsions:
REMARK  status: ('A' for Active; 'I' for Inactive)
REMARK    1  A    between atoms: C_3  and  C_8
REMARK    2  A    between atoms: N_10  and  C_11
REMARK    3  A    between atoms: C_12  and  C_19
REMARK    4  A    between atoms: C_22  and  N_24
REMARK    5  A    between atoms: C_28  and  C_29
REMARK                            x       y       z     vdW  Elec       q    Type
REMARK                         _______ _______ _______ _____ _____    ______ ____
ROOT
ATOM      1  C   UNL A   1     -24.905   2.666  27.575  0.00  0.00    +0.067 A 
ATOM      2  C   UNL A   1     -23.984   1.634  27.885  0.00  0.00    +0.034 A 
ATOM      3  C   UNL A   1     -22.861   1.482  27.028  0.00  0.00    +0.003 A 
ATOM      4  C   UNL A   1     -22.693   2.230  25.893  0.00  0.00    +0.000 A 
ATOM      5  C   UNL A   1     -24.663   3.466  26.455  0.00  0.00    +0.018 A 
ATOM      6  C   UNL A   1     -23.530   3.250  25.622  0.00  0.00    +0.002 A 
ENDROOT
BRANCH   2   7
ATOM      7  C   UNL A   1     -24.104   0.671  29.003  0.00  0.00    +0.084 A 
ATOM      8  N   UNL A   1     -24.973  -0.339  29.023  0.00  0.00    -0.230 NA
ATOM      9  C   UNL A   1     -23.395   0.941  30.246  0.00  0.00    +0.019 A 
ATOM     10  C   UNL A   1     -25.067  -1.163  30.065  0.00  0.00    +0.136 A 
ATOM     11  C   UNL A   1     -23.399   0.012  31.293  0.00  0.00    +0.004 A 
ATOM     12  C   UNL A   1     -24.302  -1.041  31.213  0.00  0.00    +0.035 A 
BRANCH  10  13
ATOM     13  N   UNL A   1     -25.959  -2.264  30.044  0.00  0.00    -0.269 N 
ATOM     14  C   UNL A   1     -27.145  -2.155  30.661  0.00  0.00    +0.062 C 
ATOM     15  C   UNL A   1     -27.957  -3.351  30.735  0.00  0.00    -0.008 C 
ATOM     16  C   UNL A   1     -25.659  -3.412  29.433  0.00  0.00    +0.105 C 
ATOM     17  C   UNL A   1     -26.771  -4.417  29.776  0.00  0.00    +0.052 C 
BRANCH  16  18
ATOM     18  C   UNL A   1     -24.660  -3.770  29.023  0.00  0.00    -0.006 C 
ATOM     19  C   UNL A   1     -24.207  -5.101  28.648  0.00  0.00    -0.003 C 
ENDBRANCH  16  18
ENDBRANCH  10  13
ENDBRANCH   2   7
BRANCH   1  22
ATOM     20  C   UNL A   1     -27.326   2.515  28.308  0.00  0.00    +0.148 A 
ATOM     21  N   UNL A   1     -27.965   2.632  29.207  0.00  0.00    -0.225 NA
ATOM     22  N   UNL A   1     -25.964   2.818  28.423  0.00  0.00    -0.289 N 
ATOM     23  C   UNL A   1     -25.785   3.180  29.764  0.00  0.00    +0.102 A 
ATOM     24  C   UNL A   1     -27.111   3.113  30.249  0.00  0.00    +0.119 A 
BRANCH  20  27
ATOM     25  C   UNL A   1     -27.409   0.625  26.580  0.00  0.00    +0.003 A 
ATOM     26  C   UNL A   1     -27.813   0.272  25.673  0.00  0.00    -0.004 A 
ATOM     27  C   UNL A   1     -27.821   1.995  26.910  0.00  0.00    +0.035 A 
ATOM     28  C   UNL A   1     -28.487   2.769  26.053  0.00  0.00    +0.003 A 
ATOM     29  C   UNL A   1     -28.525   0.912  24.594  0.00  0.00    -0.022 A 
ATOM     30  C   UNL A   1     -28.920   0.306  23.367  0.00  0.00    +0.031 C 
ATOM     31  C   UNL A   1     -28.863   2.189  24.919  0.00  0.00    -0.004 A 
ENDBRANCH  20  27
ENDBRANCH   1  22
TORSDOF 5
ENDMDL
ENDMDL
