MODEL 3620
MODEL 1
REMARK VINA RESULT:    -6.849      0.000      0.000
REMARK INTER + INTRA:         -10.684
REMARK INTER:                  -9.252
REMARK INTRA:                  -1.432
REMARK UNBOUND:                -1.432
REMARK  Name = No_3620-gen_results/8p0m/2024-11-27-11-27-31/
REMARK  6 active torsions:
REMARK  status: ('A' for Active; 'I' for Inactive)
REMARK    1  A    between atoms: C_3  and  C_7
REMARK    2  A    between atoms: C_6  and  C_18
REMARK    3  A    between atoms: C_7  and  C_8
REMARK    4  A    between atoms: C_8  and  C_9
REMARK    5  A    between atoms: C_18  and  C_19
REMARK    6  A    between atoms: C_18  and  C_20
REMARK                            x       y       z     vdW  Elec       q    Type
REMARK                         _______ _______ _______ _____ _____    ______ ____
ROOT
ATOM      1  C   UNL A   1     -11.945   1.456  34.171  0.00  0.00    -0.004 A 
ATOM      2  C   UNL A   1     -12.870   1.870  33.881  0.00  0.00    -0.001 A 
ATOM      3  C   UNL A   1     -11.659   1.468  35.578  0.00  0.00    -0.022 A 
ATOM      4  C   UNL A   1     -12.421   2.105  36.472  0.00  0.00    -0.008 A 
ATOM      5  C   UNL A   1     -13.835   2.625  34.668  0.00  0.00    -0.004 A 
ATOM      6  C   UNL A   1     -13.574   2.664  35.968  0.00  0.00    -0.013 A 
ENDROOT
BRANCH   3   7
ATOM      7  C   UNL A   1     -10.372   0.764  36.039  0.00  0.00    +0.026 C 
ATOM      8  C   UNL A   1      -9.253   1.372  35.456  0.00  0.00    +0.005 C 
BRANCH   7   9
ATOM      9  C   UNL A   1     -10.243   0.533  37.489  0.00  0.00    +0.029 C 
ATOM     10  C   UNL A   1      -9.657   1.658  38.208  0.00  0.00    +0.005 C 
BRANCH   9  11
ATOM     11  C   UNL A   1     -10.782  -0.561  38.101  0.00  0.00    +0.005 A 
ATOM     12  C   UNL A   1     -11.086  -1.680  37.346  0.00  0.00    -0.002 A 
ATOM     13  C   UNL A   1     -11.847  -2.772  37.911  0.00  0.00    -0.000 A 
ATOM     14  C   UNL A   1     -12.311  -2.625  39.184  0.00  0.00    +0.002 A 
ATOM     15  C   UNL A   1     -12.122  -1.529  39.911  0.00  0.00    +0.029 A 
ATOM     16  C   UNL A   1     -11.573  -0.482  39.252  0.00  0.00    +0.136 A 
ATOM     17  F   UNL A   1     -12.202   0.663  39.208  0.00  0.00    -0.204 F 
ENDBRANCH   9  11
ENDBRANCH   7   9
ENDBRANCH   3   7
BRANCH   6  18
ATOM     18  C   UNL A   1     -14.505   3.399  36.952  0.00  0.00    +0.109 C 
BRANCH  18  19
ATOM     19  C   UNL A   1     -15.757   3.376  36.788  0.00  0.00    +0.318 C 
ATOM     20  F   UNL A   1     -16.298   4.035  35.889  0.00  0.00    -0.200 F 
ATOM     21  O   UNL A   1     -16.453   3.640  38.007  0.00  0.00    -0.183 OA
ENDBRANCH  18  19
BRANCH  18  22
ATOM     22  C   UNL A   1     -13.872   4.084  38.009  0.00  0.00    -0.017 C 
ATOM     23  C   UNL A   1     -13.291   5.316  37.753  0.00  0.00    -0.004 C 
ENDBRANCH  18  22
ENDBRANCH   6  18
TORSDOF 6
ENDMDL
ENDMDL
