REMARK  Name = outputs/IAG933/test6/raw/output_3620_IAG933_linker_design_.xyz
REMARK  17 active torsions:
REMARK  status: ('A' for Active; 'I' for Inactive)
REMARK    1  A    between atoms: C_1  and  C_2
REMARK    2  A    between atoms: C_1  and  C_8
REMARK    3  A    between atoms: C_1  and  C_30
REMARK    4  A    between atoms: C_13  and  N_31
REMARK    5  A    between atoms: C_14  and  C_15
REMARK    6  A    between atoms: C_21  and  O_22
REMARK    7  A    between atoms: O_22  and  C_23
REMARK    8  A    between atoms: C_23  and  C_24
REMARK    9  A    between atoms: C_28  and  C_39
REMARK   10  A    between atoms: C_30  and  C_40
REMARK   11  A    between atoms: N_31  and  C_38
REMARK   12  A    between atoms: C_34  and  C_40
REMARK   13  A    between atoms: C_34  and  C_41
REMARK   14  A    between atoms: O_36  and  C_38
REMARK   15  A    between atoms: C_38  and  C_41
REMARK   16  A    between atoms: C_39  and  O_42
REMARK   17  A    between atoms: C_40  and  O_42
REMARK                            x       y       z     vdW  Elec       q    Type
REMARK                         _______ _______ _______ _____ _____    ______ ____
ROOT
ATOM      1  C   UNL A   1     -22.480   1.195  28.756  0.00  0.00    +0.194 C 
ATOM      2  F   UNL A   1     -22.052   0.100  29.435  0.00  0.00    -0.234 F 
ENDROOT
BRANCH   1   3
ATOM      3  C   UNL A   1     -23.836   1.407  29.017  0.00  0.00    +0.179 C 
BRANCH   3   4
ATOM      4  C   UNL A   1     -24.741   0.059  29.018  0.00  0.00    +0.187 C 
ATOM      5  O   UNL A   1     -25.980  -0.111  28.117  0.00  0.00    -0.220 OA
BRANCH   4   6
ATOM      6  C   UNL A   1     -24.855  -1.012  30.143  0.00  0.00    +0.071 C 
BRANCH   6   7
ATOM      7  C   UNL A   1     -24.973  -2.505  29.788  0.00  0.00    -0.019 C 
ATOM      8  C   UNL A   1     -23.906  -3.173  29.146  0.00  0.00    -0.004 C 
ATOM      9  C   UNL A   1     -23.989  -4.549  28.853  0.00  0.00    -0.000 C 
ATOM     10  C   UNL A   1     -25.137  -5.280  29.205  0.00  0.00    -0.000 C 
ATOM     11  C   UNL A   1     -26.232  -4.611  29.784  0.00  0.00    -0.000 C 
ATOM     12  C   UNL A   1     -26.155  -3.232  30.065  0.00  0.00    -0.004 C 
ENDBRANCH   6   7
BRANCH   6  13
ATOM     13  C   UNL A   1     -25.387  -0.679  31.571  0.00  0.00    +0.079 C 
ATOM     14  C   UNL A   1     -25.189   0.773  32.028  0.00  0.00    +0.019 C 
ATOM     15  C   UNL A   1     -25.336   0.684  33.544  0.00  0.00    +0.020 C 
ATOM     16  C   UNL A   1     -24.829  -0.715  33.905  0.00  0.00    +0.089 C 
ATOM     17  N   UNL A   1     -24.758  -1.481  32.646  0.00  0.00    -0.219 NA
ENDBRANCH   6  13
ENDBRANCH   4   6
ENDBRANCH   3   4
BRANCH   3  18
ATOM     18  O   UNL A   1     -23.983   2.135  30.257  0.00  0.00    -0.345 OA
BRANCH  18  19
ATOM     19  C   UNL A   1     -23.936   2.970  31.520  0.00  0.00    +0.185 C 
BRANCH  19  20
ATOM     20  C   UNL A   1     -25.196   3.739  31.762  0.00  0.00    +0.088 C 
ATOM     21  C   UNL A   1     -24.949   4.603  33.053  0.00  0.00    +0.052 C 
ATOM     22  N   UNL A   1     -26.283   3.697  31.151  0.00  0.00    -0.155 NA
ENDBRANCH  19  20
ENDBRANCH  18  19
ENDBRANCH   3  18
ENDBRANCH   1   3
BRANCH   1  23
ATOM     23  C   UNL A   1     -22.108   1.544  27.463  0.00  0.00    +0.089 C 
BRANCH  23  24
ATOM     24  C   UNL A   1     -23.299   1.715  26.590  0.00  0.00    +0.234 C 
BRANCH  24  26
ATOM     25  F   UNL A   1     -22.107   2.478  24.996  0.00  0.00    -0.045 F 
ATOM     26  O   UNL A   1     -23.418   2.348  25.539  0.00  0.00    -0.164 OA
ENDBRANCH  24  26
BRANCH  24  27
ATOM     27  N   UNL A   1     -24.385   1.654  26.704  0.00  0.00    -0.182 NA
BRANCH  27  28
ATOM     28  C   UNL A   1     -25.688   1.614  26.461  0.00  0.00    +0.145 C 
ATOM     29  C   UNL A   1     -26.250   2.920  26.395  0.00  0.00    +0.071 C 
ATOM     30  C   UNL A   1     -27.438   3.091  25.645  0.00  0.00    +0.103 C 
ATOM     31  N   UNL A   1     -28.075   2.089  25.003  0.00  0.00    -0.212 NA
ATOM     32  C   UNL A   1     -27.543   0.849  25.079  0.00  0.00    +0.236 C 
ATOM     33  C   UNL A   1     -26.354   0.576  25.777  0.00  0.00    +0.256 C 
ATOM     34  F   UNL A   1     -25.860  -0.681  25.795  0.00  0.00    -0.225 F 
BRANCH  29  35
ATOM     35  C   UNL A   1     -25.642   4.093  27.123  0.00  0.00    +0.264 C 
ATOM     36  N   UNL A   1     -25.614   5.252  26.449  0.00  0.00    -0.200 NA
ATOM     37  C   UNL A   1     -25.026   6.479  26.963  0.00  0.00    +0.139 C 
ATOM     38  O   UNL A   1     -25.143   3.966  28.243  0.00  0.00    -0.269 OA
ENDBRANCH  29  35
BRANCH  32  39
ATOM     39  O   UNL A   1     -28.193  -0.208  24.477  0.00  0.00    -0.459 OA
BRANCH  39  40
ATOM     40  C   UNL A   1     -29.460   0.005  23.866  0.00  0.00    +0.242 C 
BRANCH  40  41
ATOM     41  C   UNL A   1     -30.065  -1.377  23.573  0.00  0.00    +0.229 C 
ATOM     42  O   UNL A   1     -30.729  -1.878  24.721  0.00  0.00    -0.216 OA
ENDBRANCH  40  41
ENDBRANCH  39  40
ENDBRANCH  32  39
ENDBRANCH  27  28
ENDBRANCH  24  27
ENDBRANCH  23  24
ENDBRANCH   1  23
TORSDOF 17
