MODEL 3621
MODEL 1
REMARK VINA RESULT:    -8.239      0.000      0.000
REMARK INTER + INTRA:          -9.400
REMARK INTER:                  -8.720
REMARK INTRA:                  -0.680
REMARK UNBOUND:                -0.680
REMARK  Name = No_3621-gen_results/8p0m/2024-11-27-11-27-31/
REMARK  1 active torsions:
REMARK  status: ('A' for Active; 'I' for Inactive)
REMARK    1  A    between atoms: C_19  and  C_20
REMARK                            x       y       z     vdW  Elec       q    Type
REMARK                         _______ _______ _______ _____ _____    ______ ____
ROOT
ATOM      1  C   UNL A   1     -14.150   2.595  35.152  0.00  0.00    +0.058 A 
ATOM      2  C   UNL A   1     -13.449   2.612  34.365  0.00  0.00    +0.279 A 
ATOM      3  C   UNL A   1     -13.545   2.370  36.470  0.00  0.00    +0.006 A 
ATOM      4  C   UNL A   1     -14.342   2.514  37.704  0.00  0.00    +0.000 A 
ATOM      5  C   UNL A   1     -15.401   3.450  37.696  0.00  0.00    +0.000 A 
ATOM      6  C   UNL A   1     -15.792   4.028  36.443  0.00  0.00    +0.000 A 
ATOM      7  C   UNL A   1     -15.135   3.739  35.319  0.00  0.00    +0.005 A 
ATOM      8  O   UNL A   1     -13.872   2.712  33.044  0.00  0.00    -0.265 OA
ATOM      9  N   UNL A   1     -12.052   2.420  34.279  0.00  0.00    -0.208 NA
ATOM     10  C   UNL A   1     -11.252   2.435  35.348  0.00  0.00    +0.085 A 
ATOM     11  C   UNL A   1     -12.050   2.137  36.583  0.00  0.00    +0.018 A 
ATOM     12  C   UNL A   1     -11.456   1.906  37.839  0.00  0.00    +0.002 A 
ATOM     13  C   UNL A   1     -10.154   1.464  35.290  0.00  0.00    +0.018 A 
ATOM     14  C   UNL A   1      -9.306   1.511  34.611  0.00  0.00    +0.002 A 
ATOM     15  C   UNL A   1      -8.177   0.578  34.481  0.00  0.00    +0.000 A 
ATOM     16  C   UNL A   1      -8.175  -0.388  35.482  0.00  0.00    +0.000 A 
ATOM     17  C   UNL A   1      -9.139  -0.463  36.405  0.00  0.00    +0.000 A 
ATOM     18  C   UNL A   1     -10.206   0.482  36.433  0.00  0.00    +0.002 A 
ATOM     19  C   UNL A   1     -10.863   0.691  37.663  0.00  0.00    +0.000 A 
ENDROOT
BRANCH  19  20
ATOM     20  C   UNL A   1     -10.842  -0.259  38.718  0.00  0.00    +0.000 A 
ATOM     21  C   UNL A   1     -11.796  -1.246  38.736  0.00  0.00    +0.000 A 
ATOM     22  C   UNL A   1     -11.752  -2.251  39.552  0.00  0.00    +0.000 A 
ATOM     23  C   UNL A   1      -9.845  -0.156  39.718  0.00  0.00    +0.000 A 
ATOM     24  C   UNL A   1      -9.883  -1.202  40.777  0.00  0.00    +0.000 A 
ATOM     25  C   UNL A   1     -10.830  -2.159  40.724  0.00  0.00    +0.000 A 
ENDBRANCH  19  20
TORSDOF 1
ENDMDL
ENDMDL
