REMARK  Name = No_3621-gen_results/8p0m/2024-11-27-11-27-31/
REMARK  1 active torsions:
REMARK  status: ('A' for Active; 'I' for Inactive)
REMARK    1  A    between atoms: C_19  and  C_20
REMARK                            x       y       z     vdW  Elec       q    Type
REMARK                         _______ _______ _______ _____ _____    ______ ____
ROOT
ATOM      1  C   UNL A   1     -28.016  -0.814  28.878  0.00  0.00    +0.058 A 
ATOM      2  C   UNL A   1     -28.469  -0.785  29.829  0.00  0.00    +0.279 A 
ATOM      3  C   UNL A   1     -28.182   0.428  28.113  0.00  0.00    +0.006 A 
ATOM      4  C   UNL A   1     -27.450   0.643  26.850  0.00  0.00    +0.000 A 
ATOM      5  C   UNL A   1     -26.181   0.036  26.715  0.00  0.00    +0.000 A 
ATOM      6  C   UNL A   1     -25.780  -0.933  27.694  0.00  0.00    +0.000 A 
ATOM      7  C   UNL A   1     -26.557  -1.213  28.741  0.00  0.00    +0.005 A 
ATOM      8  O   UNL A   1     -28.490  -1.918  30.636  0.00  0.00    -0.265 OA
ATOM      9  N   UNL A   1     -29.247   0.165  30.528  0.00  0.00    -0.208 NA
ATOM     10  C   UNL A   1     -29.339   1.443  30.151  0.00  0.00    +0.085 A 
ATOM     11  C   UNL A   1     -28.994   1.569  28.696  0.00  0.00    +0.018 A 
ATOM     12  C   UNL A   1     -29.175   2.762  27.969  0.00  0.00    +0.002 A 
ATOM     13  C   UNL A   1     -30.669   2.030  30.340  0.00  0.00    +0.018 A 
ATOM     14  C   UNL A   1     -31.134   2.243  31.299  0.00  0.00    +0.002 A 
ATOM     15  C   UNL A   1     -32.460   2.816  31.574  0.00  0.00    +0.000 A 
ATOM     16  C   UNL A   1     -33.093   3.256  30.416  0.00  0.00    +0.000 A 
ATOM     17  C   UNL A   1     -32.551   3.106  29.204  0.00  0.00    +0.000 A 
ATOM     18  C   UNL A   1     -31.262   2.518  29.042  0.00  0.00    +0.002 A 
ATOM     19  C   UNL A   1     -30.533   2.848  27.881  0.00  0.00    +0.000 A 
ENDROOT
BRANCH  19  20
ATOM     20  C   UNL A   1     -31.147   3.340  26.700  0.00  0.00    +0.000 A 
ATOM     21  C   UNL A   1     -31.887   2.476  25.931  0.00  0.00    +0.000 A 
ATOM     22  C   UNL A   1     -32.622   2.870  24.941  0.00  0.00    +0.000 A 
ATOM     23  C   UNL A   1     -30.975   4.701  26.349  0.00  0.00    +0.000 A 
ATOM     24  C   UNL A   1     -31.667   5.140  25.107  0.00  0.00    +0.000 A 
ATOM     25  C   UNL A   1     -32.399   4.248  24.410  0.00  0.00    +0.000 A 
ENDBRANCH  19  20
TORSDOF 1
