REMARK  Name = No_3622-gen_results/8p0m/2024-11-27-11-27-31/
REMARK  3 active torsions:
REMARK  status: ('A' for Active; 'I' for Inactive)
REMARK    1  A    between atoms: C_2  and  C_7
REMARK    2  A    between atoms: C_3  and  C_15
REMARK    3  A    between atoms: C_15  and  C_16
REMARK                            x       y       z     vdW  Elec       q    Type
REMARK                         _______ _______ _______ _____ _____    ______ ____
ROOT
ATOM      1  C   UNL A   1     -28.016  -0.814  28.878  0.00  0.00    +0.001 A 
ATOM      2  C   UNL A   1     -28.469  -0.785  29.829  0.00  0.00    +0.053 A 
ATOM      3  C   UNL A   1     -26.504  -0.778  28.877  0.00  0.00    -0.018 A 
ATOM      4  C   UNL A   1     -25.810  -0.853  30.103  0.00  0.00    -0.004 A 
ATOM      5  C   UNL A   1     -27.991  -0.892  31.226  0.00  0.00    +0.004 A 
ATOM      6  C   UNL A   1     -26.604  -0.868  31.265  0.00  0.00    -0.000 A 
ENDROOT
BRANCH   2   7
ATOM      7  C   UNL A   1     -30.074  -0.836  29.861  0.00  0.00    +0.249 C 
ATOM      8  O   UNL A   1     -30.689  -1.655  30.223  0.00  0.00    -0.270 OA
ATOM      9  N   UNL A   1     -30.614   0.285  29.223  0.00  0.00    -0.276 N 
ATOM     10  C   UNL A   1     -31.642   0.530  28.930  0.00  0.00    +0.094 C 
ATOM     11  C   UNL A   1     -32.222   1.246  28.369  0.00  0.00    +0.022 C 
ATOM     12  C   UNL A   1     -31.347   2.353  27.799  0.00  0.00    +0.004 C 
ATOM     13  C   UNL A   1     -29.964   2.228  27.958  0.00  0.00    +0.022 C 
ATOM     14  C   UNL A   1     -29.535   1.211  28.673  0.00  0.00    +0.094 C 
ENDBRANCH   2   7
BRANCH   3  15
ATOM     15  C   UNL A   1     -25.668  -0.674  27.654  0.00  0.00    +0.052 C 
BRANCH  15  16
ATOM     16  C   UNL A   1     -24.351  -0.275  27.810  0.00  0.00    -0.021 C 
ATOM     17  C   UNL A   1     -23.825   0.431  28.351  0.00  0.00    -0.005 C 
ENDBRANCH  15  16
ENDBRANCH   3  15
TORSDOF 3
