MODEL 3623
MODEL 1
REMARK VINA RESULT:    -4.260      0.000      0.000
REMARK INTER + INTRA:          -4.260
REMARK INTER:                  -4.260
REMARK INTRA:                   0.000
REMARK UNBOUND:                 0.000
REMARK  Name = No_3623-gen_results/8p0m/2024-11-27-11-27-31/
REMARK  0 active torsions:
REMARK  status: ('A' for Active; 'I' for Inactive)
REMARK                            x       y       z     vdW  Elec       q    Type
REMARK                         _______ _______ _______ _____ _____    ______ ____
ROOT
ATOM      1  C   UNL A   1     -25.123  -5.412  29.148  0.00  0.00    +0.000 A 
ATOM      2  C   UNL A   1     -26.053  -4.788  29.605  0.00  0.00    +0.000 A 
ATOM      3  C   UNL A   1     -26.042  -3.418  29.781  0.00  0.00    +0.000 A 
ATOM      4  C   UNL A   1     -24.885  -2.701  29.365  0.00  0.00    +0.000 A 
ATOM      5  C   UNL A   1     -23.945  -3.419  28.706  0.00  0.00    +0.000 A 
ATOM      6  C   UNL A   1     -24.059  -4.724  28.546  0.00  0.00    +0.000 A 
ENDROOT
TORSDOF 0
ENDMDL
ENDMDL
