REMARK  Name = No_3624-gen_results/8p0m/2024-11-27-11-27-31/
REMARK  2 active torsions:
REMARK  status: ('A' for Active; 'I' for Inactive)
REMARK    1  A    between atoms: C_10  and  C_12
REMARK    2  A    between atoms: C_12  and  C_14
REMARK                            x       y       z     vdW  Elec       q    Type
REMARK                         _______ _______ _______ _____ _____    ______ ____
ROOT
ATOM      1  C   UNL A   1     -28.016  -0.814  28.878  0.00  0.00    +0.005 A 
ATOM      2  C   UNL A   1     -27.064  -0.119  28.608  0.00  0.00    +0.046 A 
ATOM      3  C   UNL A   1     -26.972   0.714  27.506  0.00  0.00    +0.006 A 
ATOM      4  C   UNL A   1     -28.105   0.774  26.642  0.00  0.00    +0.012 A 
ATOM      5  C   UNL A   1     -29.201   0.104  27.053  0.00  0.00    +0.058 A 
ATOM      6  C   UNL A   1     -29.210  -0.603  28.185  0.00  0.00    +0.011 A 
ATOM      7 CL   UNL A   1     -30.565   0.243  26.049  0.00  0.00    -0.082 Cl
ATOM      8  C   UNL A   1     -25.611  -0.135  29.236  0.00  0.00    +0.222 A 
ATOM      9  N   UNL A   1     -24.643   0.437  28.823  0.00  0.00    -0.221 NA
ATOM     10  C   UNL A   1     -24.667   1.246  27.691  0.00  0.00    +0.084 A 
ATOM     11  C   UNL A   1     -25.775   1.349  26.987  0.00  0.00    +0.017 A 
ATOM     12  F   UNL A   1     -25.513  -0.882  30.308  0.00  0.00    -0.183 F 
ENDROOT
BRANCH  10  13
ATOM     13  C   UNL A   1     -23.377   1.927  27.359  0.00  0.00    +0.184 C 
ATOM     14 CL   UNL A   1     -23.008   2.534  25.933  0.00  0.00    -0.100 Cl
BRANCH  13  15
ATOM     15  C   UNL A   1     -22.307   2.017  28.380  0.00  0.00    +0.229 C 
ATOM     16  O   UNL A   1     -21.134   2.148  27.897  0.00  0.00    -0.286 OA
ENDBRANCH  13  15
ENDBRANCH  10  13
TORSDOF 2
