MODEL 3624
MODEL 1
REMARK VINA RESULT:    -6.242      0.000      0.000
REMARK INTER + INTRA:          -7.114
REMARK INTER:                  -6.971
REMARK INTRA:                  -0.143
REMARK UNBOUND:                -0.143
REMARK  Name = No_3624-gen_results/8p0m/2024-11-27-11-27-31/
REMARK  2 active torsions:
REMARK  status: ('A' for Active; 'I' for Inactive)
REMARK    1  A    between atoms: C_10  and  C_12
REMARK    2  A    between atoms: C_12  and  C_14
REMARK                            x       y       z     vdW  Elec       q    Type
REMARK                         _______ _______ _______ _____ _____    ______ ____
ROOT
ATOM      1  C   UNL A   1     -26.389  -4.601  29.619  0.00  0.00    +0.005 A 
ATOM      2  C   UNL A   1     -25.581  -3.702  29.615  0.00  0.00    +0.046 A 
ATOM      3  C   UNL A   1     -25.836  -2.398  30.006  0.00  0.00    +0.006 A 
ATOM      4  C   UNL A   1     -27.151  -2.108  30.476  0.00  0.00    +0.012 A 
ATOM      5  C   UNL A   1     -27.980  -3.164  30.608  0.00  0.00    +0.058 A 
ATOM      6  C   UNL A   1     -27.602  -4.401  30.282  0.00  0.00    +0.011 A 
ATOM      7 CL   UNL A   1     -29.520  -2.813  31.236  0.00  0.00    -0.082 Cl
ATOM      8  C   UNL A   1     -24.141  -3.661  28.958  0.00  0.00    +0.222 A 
ATOM      9  N   UNL A   1     -23.443  -2.698  28.814  0.00  0.00    -0.221 NA
ATOM     10  C   UNL A   1     -23.812  -1.426  29.241  0.00  0.00    +0.084 A 
ATOM     11  C   UNL A   1     -25.003  -1.235  29.768  0.00  0.00    +0.017 A 
ATOM     12  F   UNL A   1     -23.729  -4.829  28.529  0.00  0.00    -0.183 F 
ENDROOT
BRANCH  10  13
ATOM     13  C   UNL A   1     -22.788  -0.355  29.031  0.00  0.00    +0.184 C 
ATOM     14 CL   UNL A   1     -21.214  -0.595  28.990  0.00  0.00    -0.100 Cl
BRANCH  13  15
ATOM     15  C   UNL A   1     -23.215   1.058  28.906  0.00  0.00    +0.229 C 
ATOM     16  O   UNL A   1     -23.188   1.711  30.001  0.00  0.00    -0.286 OA
ENDBRANCH  13  15
ENDBRANCH  10  13
TORSDOF 2
ENDMDL
ENDMDL
