MODEL 3625
MODEL 1
REMARK VINA RESULT:    -7.110      0.000      0.000
REMARK INTER + INTRA:          -9.883
REMARK INTER:                  -9.189
REMARK INTRA:                  -0.694
REMARK UNBOUND:                -0.694
REMARK  Name = No_3625-gen_results/8p0m/2024-11-27-11-27-31/
REMARK  5 active torsions:
REMARK  status: ('A' for Active; 'I' for Inactive)
REMARK    1  A    between atoms: C_1  and  C_2
REMARK    2  A    between atoms: C_1  and  C_8
REMARK    3  A    between atoms: C_4  and  C_15
REMARK    4  A    between atoms: C_8  and  C_9
REMARK    5  A    between atoms: C_15  and  C_17
REMARK                            x       y       z     vdW  Elec       q    Type
REMARK                         _______ _______ _______ _____ _____    ______ ____
ROOT
ATOM      1  C   UNL A   1     -22.814  -0.175  28.746  0.00  0.00    -0.022 A 
ATOM      2  C   UNL A   1     -23.777   0.428  27.944  0.00  0.00    -0.007 A 
ATOM      3  C   UNL A   1     -23.526   1.423  26.863  0.00  0.00    -0.006 A 
ATOM      4  C   UNL A   1     -22.187   1.905  26.758  0.00  0.00    -0.003 A 
ATOM      5  C   UNL A   1     -21.237   1.324  27.622  0.00  0.00    -0.001 A 
ATOM      6  C   UNL A   1     -21.517   0.390  28.543  0.00  0.00    -0.004 A 
ENDROOT
BRANCH   3   7
ATOM      7  C   UNL A   1     -24.617   2.042  26.115  0.00  0.00    +0.121 C 
ATOM      8 CL   UNL A   1     -24.673   3.604  25.948  0.00  0.00    -0.109 Cl
BRANCH   7   9
ATOM      9  C   UNL A   1     -25.651   1.219  25.542  0.00  0.00    +0.130 C 
ATOM     10  N   UNL A   1     -25.327   0.144  24.836  0.00  0.00    -0.130 NA
ENDBRANCH   7   9
ENDBRANCH   3   7
BRANCH   1  11
ATOM     11  C   UNL A   1     -23.122  -0.980  29.594  0.00  0.00    +0.031 C 
BRANCH  11  12
ATOM     12  C   UNL A   1     -24.496  -1.579  29.381  0.00  0.00    +0.031 C 
BRANCH  12  13
ATOM     13  C   UNL A   1     -24.680  -2.650  29.306  0.00  0.00    -0.022 A 
ATOM     14  C   UNL A   1     -26.026  -3.276  29.824  0.00  0.00    -0.004 A 
ATOM     15  C   UNL A   1     -26.321  -4.664  29.731  0.00  0.00    -0.000 A 
ATOM     16  C   UNL A   1     -25.284  -5.468  29.114  0.00  0.00    -0.000 A 
ATOM     17  C   UNL A   1     -24.115  -4.938  28.567  0.00  0.00    -0.000 A 
ATOM     18  C   UNL A   1     -23.901  -3.647  28.618  0.00  0.00    -0.004 A 
ENDBRANCH  12  13
ENDBRANCH  11  12
ENDBRANCH   1  11
TORSDOF 5
ENDMDL
ENDMDL
