MODEL 3626
MODEL 1
REMARK VINA RESULT:    -8.241      0.000      0.000
REMARK INTER + INTRA:         -11.761
REMARK INTER:                 -10.167
REMARK INTRA:                  -1.594
REMARK UNBOUND:                -1.594
REMARK  Name = No_3626-gen_results/8p0m/2024-11-27-11-27-31/
REMARK  4 active torsions:
REMARK  status: ('A' for Active; 'I' for Inactive)
REMARK    1  A    between atoms: C_3  and  C_13
REMARK    2  A    between atoms: N_14  and  C_15
REMARK    3  A    between atoms: N_14  and  C_21
REMARK    4  A    between atoms: C_22  and  C_28
REMARK                            x       y       z     vdW  Elec       q    Type
REMARK                         _______ _______ _______ _____ _____    ______ ____
ROOT
ATOM      1  C   UNL A   1     -23.916  -0.230  30.236  0.00  0.00    +0.257 C 
ATOM      2  N   UNL A   1     -24.417  -0.687  29.257  0.00  0.00    -0.234 N 
ATOM      3  O   UNL A   1     -22.845  -0.783  30.681  0.00  0.00    -0.269 OA
ENDROOT
BRANCH   1   6
ATOM      4 CL   UNL A   1     -24.465  -1.192  32.935  0.00  0.00    -0.082 Cl
ATOM      5  C   UNL A   1     -24.823   0.104  32.413  0.00  0.00    +0.062 A 
ATOM      6  C   UNL A   1     -24.712   0.508  31.312  0.00  0.00    +0.065 A 
ATOM      7  C   UNL A   1     -25.118   1.838  30.866  0.00  0.00    +0.013 A 
ATOM      8  C   UNL A   1     -25.648   2.758  31.823  0.00  0.00    +0.087 A 
ATOM      9  C   UNL A   1     -25.770   2.289  33.091  0.00  0.00    -0.010 A 
ATOM     10  C   UNL A   1     -25.403   1.044  33.430  0.00  0.00    +0.008 A 
ATOM     11  C   UNL A   1     -26.010   4.129  31.441  0.00  0.00    +0.413 C 
ATOM     12  N   UNL A   1     -25.375   4.846  30.861  0.00  0.00    +0.197 NA
ATOM     13  N   UNL A   1     -27.264   4.556  31.872  0.00  0.00    -0.027 NA
ATOM     14  C   UNL A   1     -28.009   3.864  32.830  0.00  0.00    +0.256 C 
ATOM     15  C   UNL A   1     -27.331   2.843  33.553  0.00  0.00    +0.082 C 
ENDBRANCH   1   6
BRANCH   2  16
ATOM     16  C   UNL A   1     -24.419  -0.080  28.141  0.00  0.00    +0.058 A 
ATOM     17  C   UNL A   1     -23.346   0.902  27.806  0.00  0.00    +0.015 A 
ATOM     18  C   UNL A   1     -25.283  -0.386  27.066  0.00  0.00    +0.015 A 
ATOM     19  C   UNL A   1     -23.293   1.552  26.560  0.00  0.00    +0.001 A 
ATOM     20  C   UNL A   1     -25.230   0.282  25.826  0.00  0.00    +0.001 A 
ATOM     21  C   UNL A   1     -24.238   1.241  25.587  0.00  0.00    +0.000 A 
ENDBRANCH   2  16
BRANCH   2  22
ATOM     22  C   UNL A   1     -24.922  -2.109  29.319  0.00  0.00    +0.063 A 
ATOM     23  C   UNL A   1     -25.877  -2.670  29.709  0.00  0.00    +0.069 A 
ATOM     24  C   UNL A   1     -23.841  -3.123  28.846  0.00  0.00    +0.015 A 
ATOM     25  C   UNL A   1     -24.103  -4.451  28.755  0.00  0.00    +0.001 A 
ATOM     26  C   UNL A   1     -26.250  -3.999  29.685  0.00  0.00    +0.006 A 
ATOM     27  C   UNL A   1     -25.302  -4.955  29.189  0.00  0.00    +0.000 A 
BRANCH  23  28
ATOM     28  C   UNL A   1     -27.117  -1.892  30.292  0.00  0.00    +0.266 C 
ATOM     29  N   UNL A   1     -27.506  -1.875  31.311  0.00  0.00    -0.200 NA
ATOM     30  C   UNL A   1     -28.644  -1.212  31.743  0.00  0.00    +0.139 C 
ATOM     31  O   UNL A   1     -27.717  -1.237  29.323  0.00  0.00    -0.268 OA
ENDBRANCH  23  28
ENDBRANCH   2  22
TORSDOF 4
ENDMDL
ENDMDL
