MODEL 3627
MODEL 1
REMARK VINA RESULT:    -4.527      0.000      0.000
REMARK INTER + INTRA:          -4.527
REMARK INTER:                  -4.527
REMARK INTRA:                   0.000
REMARK UNBOUND:                 0.000
REMARK  Name = No_3627-gen_results/8p0m/2024-11-27-11-27-31/
REMARK  0 active torsions:
REMARK  status: ('A' for Active; 'I' for Inactive)
REMARK                            x       y       z     vdW  Elec       q    Type
REMARK                         _______ _______ _______ _____ _____    ______ ____
ROOT
ATOM      1  C   UNL A   1     -25.300  -2.621  29.750  0.00  0.00    +0.042 A 
ATOM      2  C   UNL A   1     -26.257  -3.334  29.947  0.00  0.00    +0.003 A 
ATOM      3  C   UNL A   1     -26.225  -4.686  29.622  0.00  0.00    +0.000 A 
ATOM      4  C   UNL A   1     -25.066  -5.270  28.996  0.00  0.00    +0.003 A 
ATOM      5  C   UNL A   1     -24.015  -4.369  28.782  0.00  0.00    +0.042 A 
ATOM      6  C   UNL A   1     -24.102  -3.096  29.093  0.00  0.00    +0.196 A 
ATOM      7  O   UNL A   1     -23.048  -2.280  28.817  0.00  0.00    -0.287 OA
ENDROOT
TORSDOF 0
ENDMDL
ENDMDL
