REMARK  Name = No_3628-gen_results/8p0m/2024-11-27-11-27-31/
REMARK  4 active torsions:
REMARK  status: ('A' for Active; 'I' for Inactive)
REMARK    1  A    between atoms: C_4  and  C_11
REMARK    2  A    between atoms: C_11  and  C_12
REMARK    3  A    between atoms: C_16  and  C_18
REMARK    4  A    between atoms: C_18  and  C_19
REMARK                            x       y       z     vdW  Elec       q    Type
REMARK                         _______ _______ _______ _____ _____    ______ ____
ROOT
ATOM      1  C   UNL A   1     -24.369  -1.088  30.088  0.00  0.00    +0.053 C 
ENDROOT
BRANCH   1   5
ATOM      2  C   UNL A   1     -28.016  -0.814  28.878  0.00  0.00    +0.004 A 
ATOM      3  C   UNL A   1     -28.469  -0.785  29.829  0.00  0.00    +0.050 A 
ATOM      4  C   UNL A   1     -26.546  -0.876  28.850  0.00  0.00    -0.004 A 
ATOM      5  C   UNL A   1     -25.804  -1.032  30.057  0.00  0.00    -0.018 A 
ATOM      6  C   UNL A   1     -27.944  -0.987  31.207  0.00  0.00    -0.017 A 
ATOM      7  C   UNL A   1     -26.582  -1.039  31.223  0.00  0.00    -0.008 A 
ATOM      8  C   UNL A   1     -30.061  -0.737  29.902  0.00  0.00    +0.249 C 
ATOM      9  O   UNL A   1     -30.552  -0.277  29.011  0.00  0.00    -0.270 OA
ATOM     10  N   UNL A   1     -30.743  -1.289  30.994  0.00  0.00    -0.277 N 
ATOM     11  C   UNL A   1     -32.171  -1.260  30.975  0.00  0.00    +0.094 C 
ATOM     12  C   UNL A   1     -32.820  -1.761  31.582  0.00  0.00    +0.022 C 
ATOM     13  C   UNL A   1     -32.285  -2.611  32.674  0.00  0.00    +0.004 C 
ATOM     14  C   UNL A   1     -30.869  -2.743  32.785  0.00  0.00    +0.020 C 
ATOM     15  C   UNL A   1     -30.099  -2.144  31.888  0.00  0.00    +0.080 C 
ATOM     16  C   UNL A   1     -28.660  -2.027  32.098  0.00  0.00    +0.046 C 
ENDBRANCH   1   5
BRANCH   1  17
ATOM     17  C   UNL A   1     -23.581  -0.780  29.076  0.00  0.00    -0.018 A 
ATOM     18  C   UNL A   1     -22.132  -0.686  29.193  0.00  0.00    -0.004 A 
ATOM     19  C   UNL A   1     -21.396  -0.158  28.141  0.00  0.00    -0.001 A 
ATOM     20  C   UNL A   1     -22.034   0.862  27.331  0.00  0.00    -0.004 A 
ATOM     21  C   UNL A   1     -23.461   1.012  27.368  0.00  0.00    -0.019 A 
ATOM     22  C   UNL A   1     -24.173   0.295  28.216  0.00  0.00    -0.008 A 
BRANCH  21  23
ATOM     23  C   UNL A   1     -23.990   2.018  26.445  0.00  0.00    +0.038 C 
ATOM     24  C   UNL A   1     -24.025   3.330  27.240  0.00  0.00    +0.009 C 
ATOM     25  C   UNL A   1     -22.994   2.207  25.225  0.00  0.00    +0.009 C 
BRANCH  23  26
ATOM     26  C   UNL A   1     -25.257   1.744  25.941  0.00  0.00    -0.019 A 
ATOM     27  C   UNL A   1     -26.331   2.498  26.302  0.00  0.00    -0.004 A 
ATOM     28  C   UNL A   1     -27.578   2.310  25.636  0.00  0.00    -0.000 A 
ATOM     29  C   UNL A   1     -27.717   1.161  24.830  0.00  0.00    -0.000 A 
ATOM     30  C   UNL A   1     -26.691   0.311  24.615  0.00  0.00    -0.000 A 
ATOM     31  C   UNL A   1     -25.404   0.594  25.146  0.00  0.00    -0.004 A 
ENDBRANCH  23  26
ENDBRANCH  21  23
ENDBRANCH   1  17
TORSDOF 4
