MODEL 3629
MODEL 1
REMARK VINA RESULT:    -7.550      0.000      0.000
REMARK INTER + INTRA:          -8.955
REMARK INTER:                  -8.432
REMARK INTRA:                  -0.523
REMARK UNBOUND:                -0.523
REMARK  Name = No_3629-gen_results/8p0m/2024-11-27-11-27-31/
REMARK  2 active torsions:
REMARK  status: ('A' for Active; 'I' for Inactive)
REMARK    1  A    between atoms: C_1  and  C_2
REMARK    2  A    between atoms: C_9  and  C_17
REMARK                            x       y       z     vdW  Elec       q    Type
REMARK                         _______ _______ _______ _____ _____    ______ ____
ROOT
ATOM      1  C   UNL A   1     -25.272   1.207  25.655  0.00  0.00    +0.002 A 
ATOM      2  C   UNL A   1     -26.060   2.316  25.892  0.00  0.00    +0.000 A 
ATOM      3  C   UNL A   1     -27.379   2.552  25.335  0.00  0.00    +0.004 A 
ATOM      4  C   UNL A   1     -27.931   1.588  24.463  0.00  0.00    +0.051 A 
ATOM      5  C   UNL A   1     -27.125   0.419  24.218  0.00  0.00    -0.016 A 
ATOM      6  C   UNL A   1     -25.892   0.200  24.786  0.00  0.00    -0.004 A 
ATOM      7  C   UNL A   1     -29.227   1.733  23.842  0.00  0.00    +0.265 C 
ATOM      8  N   UNL A   1     -29.836   0.633  23.330  0.00  0.00    -0.201 NA
ATOM      9  O   UNL A   1     -29.714   2.861  23.656  0.00  0.00    -0.268 OA
ATOM     10  C   UNL A   1     -29.526  -0.682  23.563  0.00  0.00    +0.120 C 
ATOM     11  C   UNL A   1     -28.116  -0.901  23.926  0.00  0.00    +0.050 C 
ENDROOT
BRANCH   1  12
ATOM     12  C   UNL A   1     -24.205   1.017  26.190  0.00  0.00    +0.028 A 
ATOM     13  C   UNL A   1     -24.275   0.214  27.422  0.00  0.00    +0.009 A 
ATOM     14  C   UNL A   1     -23.080   0.118  28.175  0.00  0.00    +0.080 A 
ATOM     15  C   UNL A   1     -22.013   0.969  27.895  0.00  0.00    +0.009 A 
ATOM     16  C   UNL A   1     -22.064   1.957  26.955  0.00  0.00    +0.030 A 
ATOM     17  C   UNL A   1     -23.187   2.066  26.165  0.00  0.00    +0.140 A 
ATOM     18  F   UNL A   1     -23.297   3.049  25.334  0.00  0.00    -0.204 F 
BRANCH  14  19
ATOM     19  C   UNL A   1     -22.949  -0.941  29.193  0.00  0.00    +0.388 C 
ATOM     20  O   UNL A   1     -22.956  -2.046  28.943  0.00  0.00    -0.241 OA
ATOM     21  O   UNL A   1     -22.428  -0.467  30.368  0.00  0.00    -0.241 OA
ENDBRANCH  14  19
ENDBRANCH   1  12
TORSDOF 2
ENDMDL
ENDMDL
