MODEL 362
MODEL 1
REMARK VINA RESULT:    -5.313      0.000      0.000
REMARK INTER + INTRA:          -5.689
REMARK INTER:                  -5.623
REMARK INTRA:                  -0.066
REMARK UNBOUND:                -0.066
REMARK  Name = No_362-gen_results/8p0m/2024-11-27-11-27-31/
REMARK  1 active torsions:
REMARK  status: ('A' for Active; 'I' for Inactive)
REMARK    1  A    between atoms: C_2  and  C_7
REMARK                            x       y       z     vdW  Elec       q    Type
REMARK                         _______ _______ _______ _____ _____    ______ ____
ROOT
ATOM      1  C   UNL A   1     -23.985  -3.713  28.782  0.00  0.00    +0.005 A 
ATOM      2  C   UNL A   1     -24.390  -2.805  29.131  0.00  0.00    +0.055 A 
ATOM      3  C   UNL A   1     -24.782  -4.926  29.024  0.00  0.00    +0.000 A 
ATOM      4  C   UNL A   1     -26.093  -4.834  29.576  0.00  0.00    +0.000 A 
ATOM      5  C   UNL A   1     -25.726  -2.434  29.672  0.00  0.00    +0.005 A 
ATOM      6  C   UNL A   1     -26.491  -3.535  29.920  0.00  0.00    +0.000 A 
ENDROOT
BRANCH   2   7
ATOM      7  C   UNL A   1     -23.566  -1.465  28.871  0.00  0.00    +0.265 C 
ATOM      8  O   UNL A   1     -24.079  -0.728  28.207  0.00  0.00    -0.268 OA
ATOM      9  N   UNL A   1     -22.210  -1.411  29.169  0.00  0.00    -0.200 NA
ATOM     10  C   UNL A   1     -21.500  -0.200  28.870  0.00  0.00    +0.139 C 
ENDBRANCH   2   7
TORSDOF 1
ENDMDL
ENDMDL
