MODEL 3631
MODEL 1
REMARK VINA RESULT:    -5.842      0.000      0.000
REMARK INTER + INTRA:          -6.522
REMARK INTER:                  -6.867
REMARK INTRA:                   0.344
REMARK UNBOUND:                 0.344
REMARK  Name = No_3631-gen_results/8p0m/2024-11-27-11-27-31/
REMARK  3 active torsions:
REMARK  status: ('A' for Active; 'I' for Inactive)
REMARK    1  A    between atoms: C_3  and  C_4
REMARK    2  A    between atoms: C_4  and  N_9
REMARK    3  A    between atoms: C_15  and  C_16
REMARK                            x       y       z     vdW  Elec       q    Type
REMARK                         _______ _______ _______ _____ _____    ______ ____
ROOT
ATOM      1  O   UNL A   1     -27.206   2.391  27.380  0.00  0.00    -0.273 OA
ATOM      2  C   UNL A   1     -26.130   1.783  27.354  0.00  0.00    +0.243 C 
ATOM      3  C   UNL A   1     -25.014   2.006  27.323  0.00  0.00    +0.100 C 
ATOM      4  N   UNL A   1     -26.296   0.218  27.517  0.00  0.00    -0.205 NA
ATOM      5  C   UNL A   1     -25.502  -0.515  27.801  0.00  0.00    +0.116 C 
ATOM      6  C   UNL A   1     -23.764   1.031  27.438  0.00  0.00    +0.034 C 
ATOM      7  C   UNL A   1     -24.143  -0.270  27.701  0.00  0.00    +0.035 C 
ATOM      8  C   UNL A   1     -22.362   1.397  27.407  0.00  0.00    -0.026 C 
ATOM      9  C   UNL A   1     -21.383   0.739  28.173  0.00  0.00    -0.004 C 
ATOM     10  C   UNL A   1     -21.811  -0.081  29.187  0.00  0.00    +0.007 C 
ATOM     11  C   UNL A   1     -22.937  -0.840  29.335  0.00  0.00    +0.039 C 
ATOM     12  C   UNL A   1     -23.834  -0.661  28.564  0.00  0.00    +0.057 C 
ATOM     13 CL   UNL A   1     -23.216  -1.327  31.231  0.00  0.00    -0.087 Cl
ENDROOT
BRANCH  12  14
ATOM     14  C   UNL A   1     -24.375  -2.048  29.143  0.00  0.00    -0.021 C 
ATOM     15  C   UNL A   1     -24.172  -3.094  28.931  0.00  0.00    -0.005 C 
ENDBRANCH  12  14
BRANCH   3  16
ATOM     16  C   UNL A   1     -24.431   3.224  27.022  0.00  0.00    +0.098 C 
BRANCH  16  17
ATOM     17  N   UNL A   1     -24.587   4.391  27.660  0.00  0.00    -0.216 NA
ATOM     18  C   UNL A   1     -25.069   5.510  27.061  0.00  0.00    +0.107 C 
ENDBRANCH  16  17
ENDBRANCH   3  16
TORSDOF 3
ENDMDL
ENDMDL
