REMARK  Name = outputs/IAG933/test6/raw/output_3632_IAG933_linker_design_.xyz
REMARK  7 active torsions:
REMARK  status: ('A' for Active; 'I' for Inactive)
REMARK    1  A    between atoms: C_1  and  C_2
REMARK    2  A    between atoms: C_1  and  C_8
REMARK    3  A    between atoms: C_9  and  C_35
REMARK    4  A    between atoms: C_21  and  O_22
REMARK    5  A    between atoms: O_22  and  C_23
REMARK    6  A    between atoms: C_23  and  C_24
REMARK    7  A    between atoms: C_38  and  C_41
REMARK                            x       y       z     vdW  Elec       q    Type
REMARK                         _______ _______ _______ _____ _____    ______ ____
ROOT
ATOM      1  C   UNL A   1     -25.688   1.614  26.461  0.00  0.00    +0.092 C 
ATOM      2  C   UNL A   1     -26.250   2.920  26.395  0.00  0.00    +0.079 C 
ATOM      3  C   UNL A   1     -25.642   4.093  27.123  0.00  0.00    +0.222 C 
ATOM      4  N   UNL A   1     -25.614   5.252  26.449  0.00  0.00    -0.236 NA
ATOM      5  C   UNL A   1     -25.026   6.479  26.963  0.00  0.00    +0.155 C 
ATOM      6  O   UNL A   1     -25.143   3.966  28.243  0.00  0.00    -0.464 OA
ATOM      7  C   UNL A   1     -27.438   3.091  25.645  0.00  0.00    +0.107 C 
ATOM      8  N   UNL A   1     -28.075   2.089  25.003  0.00  0.00    -0.208 NA
ATOM      9  C   UNL A   1     -27.543   0.849  25.079  0.00  0.00    +0.253 C 
ATOM     10  C   UNL A   1     -26.354   0.576  25.777  0.00  0.00    +0.197 C 
ATOM     11  F   UNL A   1     -25.860  -0.681  25.795  0.00  0.00    -0.199 F 
ATOM     12  C   UNL A   1     -24.450   1.202  27.168  0.00  0.00    +0.252 C 
ATOM     13  C   UNL A   1     -23.887   2.012  30.017  0.00  0.00    +0.026 C 
ATOM     14  O   UNL A   1     -27.201   1.337  30.623  0.00  0.00    -0.225 OA
ATOM     15  C   UNL A   1     -21.326   1.038  27.259  0.00  0.00    +0.023 C 
ATOM     16  C   UNL A   1     -22.306   1.999  26.450  0.00  0.00    +0.094 C 
ATOM     17  C   UNL A   1     -26.018   2.100  31.290  0.00  0.00    +0.134 C 
ATOM     18  C   UNL A   1     -26.894   4.206  30.309  0.00  0.00    +0.049 C 
ATOM     19  C   UNL A   1     -25.534   3.736  29.638  0.00  0.00    +0.170 C 
ATOM     20  C   UNL A   1     -26.650   3.599  31.679  0.00  0.00    +0.059 C 
ATOM     21  C   UNL A   1     -25.100   2.542  30.070  0.00  0.00    +0.070 C 
ATOM     22  O   UNL A   1     -24.505   0.148  27.843  0.00  0.00    -0.270 OA
ATOM     23  C   UNL A   1     -23.033   2.039  28.744  0.00  0.00    +0.076 C 
ATOM     24  N   UNL A   1     -23.448   2.193  27.286  0.00  0.00    -0.278 N 
ATOM     25  C   UNL A   1     -21.864   0.976  28.678  0.00  0.00    +0.022 C 
ENDROOT
BRANCH  17  27
ATOM     26  C   UNL A   1     -25.387  -0.679  31.571  0.00  0.00    +0.080 C 
ATOM     27  C   UNL A   1     -25.189   0.773  32.028  0.00  0.00    +0.046 C 
ATOM     28  C   UNL A   1     -25.336   0.684  33.544  0.00  0.00    +0.023 C 
ATOM     29  C   UNL A   1     -24.829  -0.715  33.905  0.00  0.00    +0.089 C 
ATOM     30  N   UNL A   1     -24.758  -1.481  32.646  0.00  0.00    -0.219 NA
BRANCH  26  31
ATOM     31  C   UNL A   1     -24.855  -1.012  30.143  0.00  0.00    +0.044 C 
BRANCH  31  32
ATOM     32  C   UNL A   1     -24.973  -2.505  29.788  0.00  0.00    -0.021 C 
ATOM     33  C   UNL A   1     -23.906  -3.173  29.146  0.00  0.00    -0.004 C 
ATOM     34  C   UNL A   1     -23.989  -4.549  28.853  0.00  0.00    -0.000 C 
ATOM     35  C   UNL A   1     -25.137  -5.280  29.205  0.00  0.00    -0.000 C 
ATOM     36  C   UNL A   1     -26.232  -4.611  29.784  0.00  0.00    -0.000 C 
ATOM     37  C   UNL A   1     -26.155  -3.232  30.065  0.00  0.00    -0.004 C 
ENDBRANCH  31  32
ENDBRANCH  26  31
ENDBRANCH  17  27
BRANCH  20  40
ATOM     38  C   UNL A   1     -24.439   4.832  32.168  0.00  0.00    +0.032 C 
ATOM     39  C   UNL A   1     -24.066   5.887  33.225  0.00  0.00    +0.035 C 
ATOM     40  C   UNL A   1     -25.656   4.425  32.460  0.00  0.00    +0.118 C 
ATOM     41  C   UNL A   1     -25.355   5.853  34.148  0.00  0.00    +0.142 C 
ATOM     42  O   UNL A   1     -25.943   4.615  33.716  0.00  0.00    -0.356 OA
ENDBRANCH  20  40
BRANCH   9  43
ATOM     43  O   UNL A   1     -28.193  -0.208  24.477  0.00  0.00    -0.456 OA
BRANCH  43  44
ATOM     44  C   UNL A   1     -29.460   0.005  23.866  0.00  0.00    +0.243 C 
BRANCH  44  45
ATOM     45  C   UNL A   1     -30.065  -1.377  23.573  0.00  0.00    +0.229 C 
ATOM     46  O   UNL A   1     -30.729  -1.878  24.721  0.00  0.00    -0.216 OA
ENDBRANCH  44  45
ENDBRANCH  43  44
ENDBRANCH   9  43
TORSDOF 7
