MODEL 3633
MODEL 1
REMARK VINA RESULT:    -4.415      0.000      0.000
REMARK INTER + INTRA:          -4.415
REMARK INTER:                  -4.415
REMARK INTRA:                   0.000
REMARK UNBOUND:                 0.000
REMARK  Name = No_3633-gen_results/8p0m/2024-11-27-11-27-31/
REMARK  0 active torsions:
REMARK  status: ('A' for Active; 'I' for Inactive)
REMARK                            x       y       z     vdW  Elec       q    Type
REMARK                         _______ _______ _______ _____ _____    ______ ____
ROOT
ATOM      1  C   UNL A   1      -9.182  -9.211  19.981  0.00  0.00    +0.011 A 
ATOM      2  C   UNL A   1      -8.343  -9.791  19.716  0.00  0.00    +0.058 A 
ATOM      3  C   UNL A   1     -10.337  -9.255  19.005  0.00  0.00    +0.001 A 
ATOM      4  C   UNL A   1     -10.286 -10.148  17.914  0.00  0.00    +0.000 A 
ATOM      5  C   UNL A   1      -8.052 -10.810  18.681  0.00  0.00    +0.011 A 
ATOM      6  C   UNL A   1      -9.094 -10.883  17.769  0.00  0.00    +0.001 A 
ATOM      7 CL   UNL A   1      -6.950  -9.748  20.896  0.00  0.00    -0.082 Cl
ENDROOT
TORSDOF 0
ENDMDL
ENDMDL
