MODEL 3634
MODEL 1
REMARK VINA RESULT:    -5.810      0.000      0.000
REMARK INTER + INTRA:          -6.240
REMARK INTER:                  -6.150
REMARK INTRA:                  -0.090
REMARK UNBOUND:                -0.090
REMARK  Name = No_3634-gen_results/8p0m/2024-11-27-11-27-31/
REMARK  1 active torsions:
REMARK  status: ('A' for Active; 'I' for Inactive)
REMARK    1  A    between atoms: C_4  and  C_7
REMARK                            x       y       z     vdW  Elec       q    Type
REMARK                         _______ _______ _______ _____ _____    ______ ____
ROOT
ATOM      1  C   UNL A   1     -26.552  -3.791  29.868  0.00  0.00    +0.000 A 
ATOM      2  C   UNL A   1     -26.159  -4.744  29.647  0.00  0.00    +0.000 A 
ATOM      3  C   UNL A   1     -25.649  -2.646  29.673  0.00  0.00    +0.008 A 
ATOM      4  C   UNL A   1     -24.365  -2.827  29.080  0.00  0.00    +0.088 A 
ATOM      5  C   UNL A   1     -24.015  -4.122  28.788  0.00  0.00    +0.008 A 
ATOM      6  C   UNL A   1     -24.874  -5.139  29.012  0.00  0.00    +0.000 A 
ENDROOT
BRANCH   4   7
ATOM      7  C   UNL A   1     -23.477  -1.699  28.868  0.00  0.00    +0.371 C 
ATOM      8  N   UNL A   1     -22.453  -1.623  29.206  0.00  0.00    -0.051 NA
ATOM      9  N   UNL A   1     -23.965  -0.582  28.205  0.00  0.00    -0.031 NA
ATOM     10  C   UNL A   1     -22.919   0.374  28.271  0.00  0.00    +0.267 C 
ATOM     11  C   UNL A   1     -22.028  -0.260  29.009  0.00  0.00    +0.340 C 
ENDBRANCH   4   7
TORSDOF 1
ENDMDL
ENDMDL
