MODEL 3635
MODEL 1
REMARK VINA RESULT:    -5.923      0.000      0.000
REMARK INTER + INTRA:          -6.864
REMARK INTER:                  -6.616
REMARK INTRA:                  -0.248
REMARK UNBOUND:                -0.248
REMARK  Name = No_3635-gen_results/8p0m/2024-11-27-11-27-31/
REMARK  2 active torsions:
REMARK  status: ('A' for Active; 'I' for Inactive)
REMARK    1  A    between atoms: C_2  and  C_11
REMARK    2  A    between atoms: C_4  and  C_7
REMARK                            x       y       z     vdW  Elec       q    Type
REMARK                         _______ _______ _______ _____ _____    ______ ____
ROOT
ATOM      1  C   UNL A   1     -23.072  -1.339  29.129  0.00  0.00    +0.004 A 
ATOM      2  C   UNL A   1     -23.994  -1.603  28.692  0.00  0.00    +0.055 A 
ATOM      3  C   UNL A   1     -22.441  -0.072  28.597  0.00  0.00    +0.004 A 
ATOM      4  C   UNL A   1     -23.161   0.731  27.687  0.00  0.00    +0.071 A 
ATOM      5  C   UNL A   1     -24.952  -0.944  27.776  0.00  0.00    +0.004 A 
ATOM      6  C   UNL A   1     -24.408   0.229  27.271  0.00  0.00    +0.004 A 
ENDROOT
BRANCH   4   7
ATOM      7  C   UNL A   1     -22.610   1.923  27.140  0.00  0.00    +0.419 C 
ATOM      8  F   UNL A   1     -22.552   1.914  25.921  0.00  0.00    -0.166 F 
ATOM      9  F   UNL A   1     -23.427   3.003  27.431  0.00  0.00    -0.166 F 
ATOM     10  F   UNL A   1     -21.396   2.240  27.677  0.00  0.00    -0.166 F 
ENDBRANCH   4   7
BRANCH   2  11
ATOM     11  C   UNL A   1     -24.656  -2.974  29.243  0.00  0.00    +0.265 C 
ATOM     12  O   UNL A   1     -25.326  -2.775  30.141  0.00  0.00    -0.268 OA
ATOM     13  N   UNL A   1     -24.366  -4.173  28.720  0.00  0.00    -0.200 NA
ATOM     14  C   UNL A   1     -24.976  -5.358  29.264  0.00  0.00    +0.139 C 
ENDBRANCH   2  11
TORSDOF 2
ENDMDL
ENDMDL
