MODEL 3636
MODEL 1
REMARK VINA RESULT:    -3.717      0.000      0.000
REMARK INTER + INTRA:          -4.276
REMARK INTER:                  -4.151
REMARK INTRA:                  -0.125
REMARK UNBOUND:                -0.125
REMARK  Name = No_3636-gen_results/8p0m/2024-11-27-11-27-31/
REMARK  2 active torsions:
REMARK  status: ('A' for Active; 'I' for Inactive)
REMARK    1  A    between atoms: C_3  and  C_4
REMARK    2  A    between atoms: C_5  and  C_6
REMARK                            x       y       z     vdW  Elec       q    Type
REMARK                         _______ _______ _______ _____ _____    ______ ____
ROOT
ATOM      1  C   UNL A   1     -23.772  -2.721  29.051  0.00  0.00    -0.001 C 
ATOM      2  C   UNL A   1     -24.066  -4.038  28.586  0.00  0.00    +0.012 C 
ENDROOT
BRANCH   1   5
ATOM      3 CL   UNL A   1     -22.845  -0.757  30.813  0.00  0.00    -0.081 Cl
ATOM      4  C   UNL A   1     -24.009  -1.400  31.107  0.00  0.00    +0.068 C 
ATOM      5  C   UNL A   1     -24.489  -2.372  30.286  0.00  0.00    +0.012 C 
ENDBRANCH   1   5
BRANCH   2   6
ATOM      6  C   UNL A   1     -24.860  -4.864  29.126  0.00  0.00    +0.220 C 
ATOM      7  F   UNL A   1     -24.925  -6.096  28.633  0.00  0.00    -0.229 F 
ENDBRANCH   2   6
TORSDOF 2
ENDMDL
ENDMDL
