REMARK  Name = outputs/IAG933/test6/raw/output_3637_IAG933_linker_design_.xyz
REMARK  14 active torsions:
REMARK  status: ('A' for Active; 'I' for Inactive)
REMARK    1  A    between atoms: C_1  and  C_2
REMARK    2  A    between atoms: C_1  and  C_8
REMARK    3  A    between atoms: C_9  and  C_38
REMARK    4  A    between atoms: C_13  and  C_29
REMARK    5  A    between atoms: C_14  and  C_15
REMARK    6  A    between atoms: C_21  and  O_22
REMARK    7  A    between atoms: O_22  and  C_23
REMARK    8  A    between atoms: C_23  and  C_24
REMARK    9  A    between atoms: C_29  and  N_31
REMARK   10  A    between atoms: C_29  and  C_39
REMARK   11  A    between atoms: N_30  and  C_35
REMARK   12  A    between atoms: N_30  and  C_37
REMARK   13  A    between atoms: N_31  and  C_40
REMARK   14  A    between atoms: C_37  and  C_39
REMARK                            x       y       z     vdW  Elec       q    Type
REMARK                         _______ _______ _______ _____ _____    ______ ____
ROOT
ATOM      1  C   UNL A   1     -24.271   2.363  30.015  0.00  0.00    +0.090 C 
ENDROOT
BRANCH   1   2
ATOM      2  N   UNL A   1     -24.685   3.195  30.880  0.00  0.00    -0.219 NA
BRANCH   2   6
ATOM      3  C   UNL A   1     -27.807   1.376  30.952  0.00  0.00    +0.153 C 
ATOM      4  C   UNL A   1     -28.180   3.897  30.467  0.00  0.00    +0.004 C 
ATOM      5  C   UNL A   1     -28.729   2.570  31.063  0.00  0.00    +0.033 C 
ATOM      6  C   UNL A   1     -25.963   3.069  31.236  0.00  0.00    +0.075 C 
ATOM      7  O   UNL A   1     -28.102   0.794  29.648  0.00  0.00    -0.223 OA
ATOM      8  C   UNL A   1     -26.299   1.604  31.399  0.00  0.00    +0.048 C 
ATOM      9  C   UNL A   1     -26.930   4.220  31.313  0.00  0.00    +0.018 C 
BRANCH   8  11
ATOM     10  C   UNL A   1     -25.387  -0.679  31.571  0.00  0.00    +0.077 C 
ATOM     11  C   UNL A   1     -25.189   0.773  32.028  0.00  0.00    +0.022 C 
ATOM     12  C   UNL A   1     -25.336   0.684  33.544  0.00  0.00    +0.020 C 
ATOM     13  C   UNL A   1     -24.829  -0.715  33.905  0.00  0.00    +0.089 C 
ATOM     14  N   UNL A   1     -24.758  -1.481  32.646  0.00  0.00    -0.219 NA
BRANCH  10  15
ATOM     15  C   UNL A   1     -24.855  -1.012  30.143  0.00  0.00    +0.044 C 
BRANCH  15  16
ATOM     16  C   UNL A   1     -24.973  -2.505  29.788  0.00  0.00    -0.021 C 
ATOM     17  C   UNL A   1     -23.906  -3.173  29.146  0.00  0.00    -0.004 C 
ATOM     18  C   UNL A   1     -23.989  -4.549  28.853  0.00  0.00    -0.000 C 
ATOM     19  C   UNL A   1     -25.137  -5.280  29.205  0.00  0.00    -0.000 C 
ATOM     20  C   UNL A   1     -26.232  -4.611  29.784  0.00  0.00    -0.000 C 
ATOM     21  C   UNL A   1     -26.155  -3.232  30.065  0.00  0.00    -0.004 C 
ENDBRANCH  15  16
ENDBRANCH  10  15
ENDBRANCH   8  11
ENDBRANCH   2   6
ENDBRANCH   1   2
BRANCH   1  22
ATOM     22  C   UNL A   1     -24.700   1.513  28.779  0.00  0.00    +0.042 C 
BRANCH  22  23
ATOM     23  C   UNL A   1     -24.579   1.221  27.170  0.00  0.00    +0.116 C 
BRANCH  23  24
ATOM     24  C   UNL A   1     -25.688   1.614  26.461  0.00  0.00    +0.033 C 
ATOM     25  C   UNL A   1     -26.250   2.920  26.395  0.00  0.00    +0.074 C 
ATOM     26  C   UNL A   1     -27.438   3.091  25.645  0.00  0.00    +0.106 C 
ATOM     27  N   UNL A   1     -28.075   2.089  25.003  0.00  0.00    -0.208 NA
ATOM     28  C   UNL A   1     -27.543   0.849  25.079  0.00  0.00    +0.253 C 
ATOM     29  C   UNL A   1     -26.354   0.576  25.777  0.00  0.00    +0.190 C 
ATOM     30  F   UNL A   1     -25.860  -0.681  25.795  0.00  0.00    -0.200 F 
BRANCH  25  31
ATOM     31  C   UNL A   1     -25.642   4.093  27.123  0.00  0.00    +0.266 C 
ATOM     32  N   UNL A   1     -25.614   5.252  26.449  0.00  0.00    -0.200 NA
ATOM     33  C   UNL A   1     -25.026   6.479  26.963  0.00  0.00    +0.139 C 
ATOM     34  O   UNL A   1     -25.143   3.966  28.243  0.00  0.00    -0.268 OA
ENDBRANCH  25  31
BRANCH  28  35
ATOM     35  O   UNL A   1     -28.193  -0.208  24.477  0.00  0.00    -0.456 OA
BRANCH  35  36
ATOM     36  C   UNL A   1     -29.460   0.005  23.866  0.00  0.00    +0.243 C 
BRANCH  36  37
ATOM     37  C   UNL A   1     -30.065  -1.377  23.573  0.00  0.00    +0.229 C 
ATOM     38  O   UNL A   1     -30.729  -1.878  24.721  0.00  0.00    -0.216 OA
ENDBRANCH  36  37
ENDBRANCH  35  36
ENDBRANCH  28  35
ENDBRANCH  23  24
BRANCH  23  39
ATOM     39  N   UNL A   1     -23.217   1.624  26.791  0.00  0.00    -0.096 NA
ATOM     40  O   UNL A   1     -23.192   2.032  25.495  0.00  0.00    -0.115 OA
BRANCH  39  42
ATOM     41  F   UNL A   1     -21.027   1.585  26.880  0.00  0.00    -0.212 F 
ATOM     42  C   UNL A   1     -22.163   1.807  27.437  0.00  0.00    +0.297 C 
ENDBRANCH  39  42
ENDBRANCH  23  39
ENDBRANCH  22  23
ENDBRANCH   1  22
TORSDOF 14
