MODEL 363
MODEL 1
REMARK VINA RESULT:    -6.044      0.000      0.000
REMARK INTER + INTRA:          -7.641
REMARK INTER:                  -7.103
REMARK INTRA:                  -0.538
REMARK UNBOUND:                -0.538
REMARK  Name = No_363-gen_results/8p0m/2024-11-27-11-27-31/
REMARK  3 active torsions:
REMARK  status: ('A' for Active; 'I' for Inactive)
REMARK    1  A    between atoms: C_3  and  C_7
REMARK    2  A    between atoms: C_7  and  C_8
REMARK    3  A    between atoms: C_9  and  C_10
REMARK                            x       y       z     vdW  Elec       q    Type
REMARK                         _______ _______ _______ _____ _____    ______ ____
ROOT
ATOM      1  C   UNL A   1     -26.086  -3.426  29.670  0.00  0.00    -0.004 A 
ATOM      2  C   UNL A   1     -26.084  -4.479  29.627  0.00  0.00    -0.000 A 
ATOM      3  C   UNL A   1     -24.985  -2.741  29.112  0.00  0.00    -0.018 A 
ATOM      4  C   UNL A   1     -23.923  -3.411  28.536  0.00  0.00    -0.004 A 
ATOM      5  C   UNL A   1     -24.004  -4.794  28.515  0.00  0.00    -0.000 A 
ATOM      6  C   UNL A   1     -25.117  -5.418  29.039  0.00  0.00    -0.000 A 
ENDROOT
BRANCH   3   7
ATOM      7  C   UNL A   1     -25.091  -1.274  29.093  0.00  0.00    +0.052 C 
BRANCH   7   8
ATOM      8  C   UNL A   1     -25.252  -0.655  27.785  0.00  0.00    -0.021 C 
ATOM      9  C   UNL A   1     -24.420   0.046  27.295  0.00  0.00    -0.005 C 
BRANCH   9  10
ATOM     10  C   UNL A   1     -23.188   0.582  27.886  0.00  0.00    -0.005 C 
ATOM     11  C   UNL A   1     -22.587   1.794  27.430  0.00  0.00    -0.026 C 
ATOM     12  C   UNL A   1     -23.004   2.183  26.137  0.00  0.00    +0.031 C 
ENDBRANCH   9  10
ENDBRANCH   7   8
ENDBRANCH   3   7
TORSDOF 3
ENDMDL
ENDMDL
