REMARK  Name = outputs/IAG933/test6/raw/output_364_IAG933_linker_design_.xyz
REMARK  10 active torsions:
REMARK  status: ('A' for Active; 'I' for Inactive)
REMARK    1  A    between atoms: C_1  and  C_2
REMARK    2  A    between atoms: C_1  and  C_8
REMARK    3  A    between atoms: C_1  and  C_34
REMARK    4  A    between atoms: C_13  and  C_35
REMARK    5  A    between atoms: C_14  and  C_15
REMARK    6  A    between atoms: C_21  and  O_22
REMARK    7  A    between atoms: O_22  and  C_23
REMARK    8  A    between atoms: C_23  and  C_24
REMARK    9  A    between atoms: C_31  and  C_34
REMARK   10  A    between atoms: C_34  and  N_38
REMARK                            x       y       z     vdW  Elec       q    Type
REMARK                         _______ _______ _______ _____ _____    ______ ____
ROOT
ATOM      1  S   UNL A   1     -21.756   1.822  27.165  0.00  0.00    -0.086 S 
ATOM      2  C   UNL A   1     -23.180   2.058  26.186  0.00  0.00    +0.031 C 
ATOM      3  C   UNL A   1     -23.934   0.792  28.090  0.00  0.00    +0.028 C 
ATOM      4  C   UNL A   1     -24.286   1.454  26.896  0.00  0.00    -0.008 C 
ATOM      5  C   UNL A   1     -22.495   0.866  28.306  0.00  0.00    +0.035 C 
ENDROOT
BRANCH   4   6
ATOM      6  C   UNL A   1     -25.688   1.614  26.461  0.00  0.00    +0.093 C 
ATOM      7  C   UNL A   1     -26.250   2.920  26.395  0.00  0.00    +0.059 C 
ATOM      8  C   UNL A   1     -27.438   3.091  25.645  0.00  0.00    +0.102 C 
ATOM      9  N   UNL A   1     -28.075   2.089  25.003  0.00  0.00    -0.212 NA
ATOM     10  C   UNL A   1     -27.543   0.849  25.079  0.00  0.00    +0.234 C 
ATOM     11  C   UNL A   1     -26.354   0.576  25.777  0.00  0.00    +0.244 C 
ATOM     12  F   UNL A   1     -25.860  -0.681  25.795  0.00  0.00    -0.227 F 
BRANCH   7  13
ATOM     13  C   UNL A   1     -25.642   4.093  27.123  0.00  0.00    +0.263 C 
ATOM     14  N   UNL A   1     -25.614   5.252  26.449  0.00  0.00    -0.200 NA
ATOM     15  C   UNL A   1     -25.026   6.479  26.963  0.00  0.00    +0.139 C 
ATOM     16  O   UNL A   1     -25.143   3.966  28.243  0.00  0.00    -0.269 OA
ENDBRANCH   7  13
BRANCH  10  17
ATOM     17  O   UNL A   1     -28.193  -0.208  24.477  0.00  0.00    -0.459 OA
BRANCH  17  18
ATOM     18  C   UNL A   1     -29.460   0.005  23.866  0.00  0.00    +0.242 C 
BRANCH  18  19
ATOM     19  C   UNL A   1     -30.065  -1.377  23.573  0.00  0.00    +0.229 C 
ATOM     20  O   UNL A   1     -30.729  -1.878  24.721  0.00  0.00    -0.216 OA
ENDBRANCH  18  19
ENDBRANCH  17  18
ENDBRANCH  10  17
ENDBRANCH   4   6
BRANCH   3  21
ATOM     21  C   UNL A   1     -24.855   0.121  29.040  0.00  0.00    +0.232 C 
BRANCH  21  27
ATOM     22  N   UNL A   1     -27.792   0.214  30.355  0.00  0.00    -0.066 NA
ATOM     23  C   UNL A   1     -29.635  -0.605  30.724  0.00  0.00    +0.017 C 
ATOM     24  C   UNL A   1     -28.134   1.427  30.556  0.00  0.00    +0.263 C 
ATOM     25  C   UNL A   1     -28.034  -0.148  29.161  0.00  0.00    +0.332 C 
ATOM     26  C   UNL A   1     -29.155   0.730  31.398  0.00  0.00    +0.059 C 
ATOM     27  N   UNL A   1     -26.471  -0.172  28.302  0.00  0.00    -0.035 NA
ATOM     28  C   UNL A   1     -29.328  -0.554  29.246  0.00  0.00    +0.121 C 
ENDBRANCH  21  27
BRANCH  21  29
ATOM     29  C   UNL A   1     -24.855  -1.012  30.143  0.00  0.00    +0.090 C 
BRANCH  29  30
ATOM     30  C   UNL A   1     -24.973  -2.505  29.788  0.00  0.00    -0.017 C 
ATOM     31  C   UNL A   1     -23.906  -3.173  29.146  0.00  0.00    -0.004 C 
ATOM     32  C   UNL A   1     -23.989  -4.549  28.853  0.00  0.00    -0.000 C 
ATOM     33  C   UNL A   1     -25.137  -5.280  29.205  0.00  0.00    -0.000 C 
ATOM     34  C   UNL A   1     -26.232  -4.611  29.784  0.00  0.00    -0.000 C 
ATOM     35  C   UNL A   1     -26.155  -3.232  30.065  0.00  0.00    -0.004 C 
ENDBRANCH  29  30
BRANCH  29  36
ATOM     36  C   UNL A   1     -25.387  -0.679  31.571  0.00  0.00    +0.081 C 
ATOM     37  C   UNL A   1     -25.189   0.773  32.028  0.00  0.00    +0.019 C 
ATOM     38  C   UNL A   1     -25.336   0.684  33.544  0.00  0.00    +0.020 C 
ATOM     39  C   UNL A   1     -24.829  -0.715  33.905  0.00  0.00    +0.089 C 
ATOM     40  N   UNL A   1     -24.758  -1.481  32.646  0.00  0.00    -0.219 NA
ENDBRANCH  29  36
ENDBRANCH  21  29
ENDBRANCH   3  21
TORSDOF 10
