REMARK  Name = outputs/IAG933/test6/raw/output_3641_IAG933_linker_design_.xyz
REMARK  11 active torsions:
REMARK  status: ('A' for Active; 'I' for Inactive)
REMARK    1  A    between atoms: C_1  and  C_2
REMARK    2  A    between atoms: C_1  and  C_8
REMARK    3  A    between atoms: C_1  and  N_28
REMARK    4  A    between atoms: C_13  and  N_30
REMARK    5  A    between atoms: C_14  and  C_15
REMARK    6  A    between atoms: C_21  and  O_22
REMARK    7  A    between atoms: O_22  and  C_23
REMARK    8  A    between atoms: C_23  and  C_24
REMARK    9  A    between atoms: N_30  and  C_33
REMARK   10  A    between atoms: N_30  and  C_39
REMARK   11  A    between atoms: C_33  and  C_36
REMARK                            x       y       z     vdW  Elec       q    Type
REMARK                         _______ _______ _______ _____ _____    ______ ____
ROOT
ATOM      1  N   UNL A   1     -24.679   1.395  27.504  0.00  0.00    -0.258 N 
ENDROOT
BRANCH   1   2
ATOM      2  C   UNL A   1     -25.688   1.614  26.461  0.00  0.00    +0.147 C 
ATOM      3  C   UNL A   1     -26.250   2.920  26.395  0.00  0.00    +0.073 C 
ATOM      4  C   UNL A   1     -27.438   3.091  25.645  0.00  0.00    +0.104 C 
ATOM      5  N   UNL A   1     -28.075   2.089  25.003  0.00  0.00    -0.212 NA
ATOM      6  C   UNL A   1     -27.543   0.849  25.079  0.00  0.00    +0.236 C 
ATOM      7  C   UNL A   1     -26.354   0.576  25.777  0.00  0.00    +0.258 C 
ATOM      8  F   UNL A   1     -25.860  -0.681  25.795  0.00  0.00    -0.225 F 
BRANCH   3   9
ATOM      9  C   UNL A   1     -25.642   4.093  27.123  0.00  0.00    +0.264 C 
ATOM     10  N   UNL A   1     -25.614   5.252  26.449  0.00  0.00    -0.200 NA
ATOM     11  C   UNL A   1     -25.026   6.479  26.963  0.00  0.00    +0.139 C 
ATOM     12  O   UNL A   1     -25.143   3.966  28.243  0.00  0.00    -0.269 OA
ENDBRANCH   3   9
BRANCH   6  13
ATOM     13  O   UNL A   1     -28.193  -0.208  24.477  0.00  0.00    -0.459 OA
BRANCH  13  14
ATOM     14  C   UNL A   1     -29.460   0.005  23.866  0.00  0.00    +0.242 C 
BRANCH  14  15
ATOM     15  C   UNL A   1     -30.065  -1.377  23.573  0.00  0.00    +0.229 C 
ATOM     16  O   UNL A   1     -30.729  -1.878  24.721  0.00  0.00    -0.216 OA
ENDBRANCH  14  15
ENDBRANCH  13  14
ENDBRANCH   6  13
ENDBRANCH   1   2
BRANCH   1  21
ATOM     17  N   UNL A   1     -25.298   0.062  29.360  0.00  0.00    -0.211 NA
ATOM     18  O   UNL A   1     -25.477   2.260  29.600  0.00  0.00    -0.184 OA
ATOM     19  N   UNL A   1     -27.060  -0.463  28.687  0.00  0.00    -0.109 NA
ATOM     20  C   UNL A   1     -26.056  -0.068  28.455  0.00  0.00    +0.216 C 
ATOM     21  C   UNL A   1     -25.266   1.117  28.990  0.00  0.00    +0.270 C 
BRANCH  17  22
ATOM     22  C   UNL A   1     -24.855  -1.012  30.143  0.00  0.00    +0.101 C 
BRANCH  22  23
ATOM     23  C   UNL A   1     -24.973  -2.505  29.788  0.00  0.00    -0.006 C 
ATOM     24  C   UNL A   1     -23.906  -3.173  29.146  0.00  0.00    -0.003 C 
ATOM     25  C   UNL A   1     -23.989  -4.549  28.853  0.00  0.00    -0.000 C 
ATOM     26  C   UNL A   1     -25.137  -5.280  29.205  0.00  0.00    -0.000 C 
ATOM     27  C   UNL A   1     -26.232  -4.611  29.784  0.00  0.00    -0.000 C 
ATOM     28  C   UNL A   1     -26.155  -3.232  30.065  0.00  0.00    -0.003 C 
ENDBRANCH  22  23
BRANCH  22  29
ATOM     29  C   UNL A   1     -25.387  -0.679  31.571  0.00  0.00    +0.092 C 
ATOM     30  C   UNL A   1     -25.189   0.773  32.028  0.00  0.00    +0.021 C 
ATOM     31  C   UNL A   1     -25.336   0.684  33.544  0.00  0.00    +0.020 C 
ATOM     32  C   UNL A   1     -24.829  -0.715  33.905  0.00  0.00    +0.089 C 
ATOM     33  N   UNL A   1     -24.758  -1.481  32.646  0.00  0.00    -0.218 NA
ENDBRANCH  22  29
ENDBRANCH  17  22
ENDBRANCH   1  21
BRANCH   1  34
ATOM     34  C   UNL A   1     -23.364   1.193  27.303  0.00  0.00    +0.171 C 
ATOM     35  C   UNL A   1     -23.012   2.044  26.115  0.00  0.00    +0.149 C 
ATOM     36  O   UNL A   1     -22.712   2.471  25.082  0.00  0.00    -0.230 OA
BRANCH  34  39
ATOM     37  F   UNL A   1     -22.254   0.292  29.209  0.00  0.00    -0.191 F 
ATOM     38  F   UNL A   1     -21.117   1.505  27.773  0.00  0.00    -0.191 F 
ATOM     39  C   UNL A   1     -22.283   1.065  28.167  0.00  0.00    +0.364 C 
ENDBRANCH  34  39
ENDBRANCH   1  34
TORSDOF 11
