MODEL 3641
MODEL 1
REMARK VINA RESULT:    -4.527      0.000      0.000
REMARK INTER + INTRA:          -4.527
REMARK INTER:                  -4.527
REMARK INTRA:                   0.000
REMARK UNBOUND:                 0.000
REMARK  Name = No_3641-gen_results/8p0m/2024-11-27-11-27-31/
REMARK  0 active torsions:
REMARK  status: ('A' for Active; 'I' for Inactive)
REMARK                            x       y       z     vdW  Elec       q    Type
REMARK                         _______ _______ _______ _____ _____    ______ ____
ROOT
ATOM      1  C   UNL A   1     -25.844  -3.037  29.586  0.00  0.00    +0.018 A 
ATOM      2  C   UNL A   1     -26.117  -4.052  29.659  0.00  0.00    +0.058 A 
ATOM      3  C   UNL A   1     -24.571  -2.734  29.055  0.00  0.00    +0.035 A 
ATOM      4  C   UNL A   1     -23.872  -3.525  28.598  0.00  0.00    +0.007 A 
ATOM      5  C   UNL A   1     -25.402  -5.234  29.179  0.00  0.00    +0.011 A 
ATOM      6  C   UNL A   1     -24.204  -4.927  28.625  0.00  0.00    +0.001 A 
ATOM      7 BR   UNL A   1     -24.077  -0.857  28.936  0.00  0.00    -0.049 Br
ATOM      8 CL   UNL A   1     -27.747  -4.560  30.292  0.00  0.00    -0.082 Cl
ENDROOT
TORSDOF 0
ENDMDL
ENDMDL
