MODEL 3642
MODEL 1
REMARK VINA RESULT:    -6.855      0.000      0.000
REMARK INTER + INTRA:         -10.027
REMARK INTER:                  -8.859
REMARK INTRA:                  -1.168
REMARK UNBOUND:                -1.168
REMARK  Name = No_3642-gen_results/8p0m/2024-11-27-11-27-31/
REMARK  5 active torsions:
REMARK  status: ('A' for Active; 'I' for Inactive)
REMARK    1  A    between atoms: C_3  and  C_7
REMARK    2  A    between atoms: C_7  and  C_9
REMARK    3  A    between atoms: C_9  and  C_10
REMARK    4  A    between atoms: C_15  and  O_16
REMARK    5  A    between atoms: O_16  and  C_17
REMARK                            x       y       z     vdW  Elec       q    Type
REMARK                         _______ _______ _______ _____ _____    ______ ____
ROOT
ATOM      1  C   UNL A   1     -23.332  -2.034  28.915  0.00  0.00    +0.050 C 
ENDROOT
BRANCH   1   2
ATOM      2  C   UNL A   1     -24.369  -2.861  29.109  0.00  0.00    +0.014 A 
ATOM      3  C   UNL A   1     -24.108  -4.239  28.757  0.00  0.00    -0.001 A 
ATOM      4  C   UNL A   1     -25.107  -5.172  29.089  0.00  0.00    -0.000 A 
ATOM      5  C   UNL A   1     -26.293  -4.749  29.700  0.00  0.00    +0.003 A 
ATOM      6  C   UNL A   1     -26.499  -3.456  30.047  0.00  0.00    +0.037 A 
ATOM      7  C   UNL A   1     -25.549  -2.542  29.820  0.00  0.00    +0.141 A 
BRANCH   7   8
ATOM      8  O   UNL A   1     -26.454  -1.771  29.069  0.00  0.00    -0.451 OA
BRANCH   8   9
ATOM      9  C   UNL A   1     -27.238  -0.821  29.315  0.00  0.00    +0.180 C 
ATOM     10  C   UNL A   1     -26.761   0.135  30.292  0.00  0.00    +0.044 C 
ENDBRANCH   8   9
ENDBRANCH   7   8
ENDBRANCH   1   2
BRANCH   1  11
ATOM     11  C   UNL A   1     -23.410  -0.567  29.471  0.00  0.00    +0.106 C 
ATOM     12 CL   UNL A   1     -22.716  -0.481  30.720  0.00  0.00    -0.110 Cl
BRANCH  11  15
ATOM     13  C   UNL A   1     -24.358   0.443  27.313  0.00  0.00    -0.003 A 
ATOM     14  C   UNL A   1     -24.213   1.110  26.510  0.00  0.00    -0.000 A 
ATOM     15  C   UNL A   1     -23.314   0.310  28.255  0.00  0.00    -0.007 A 
ATOM     16  C   UNL A   1     -22.130   1.011  28.138  0.00  0.00    -0.003 A 
ATOM     17  C   UNL A   1     -23.065   1.969  26.158  0.00  0.00    -0.000 A 
ATOM     18  C   UNL A   1     -22.042   1.870  27.035  0.00  0.00    -0.000 A 
ENDBRANCH  11  15
ENDBRANCH   1  11
TORSDOF 5
ENDMDL
ENDMDL
