REMARK  Name = No_3642-gen_results/8p0m/2024-11-27-11-27-31/
REMARK  5 active torsions:
REMARK  status: ('A' for Active; 'I' for Inactive)
REMARK    1  A    between atoms: C_3  and  C_7
REMARK    2  A    between atoms: C_7  and  C_9
REMARK    3  A    between atoms: C_9  and  C_10
REMARK    4  A    between atoms: C_15  and  O_16
REMARK    5  A    between atoms: O_16  and  C_17
REMARK                            x       y       z     vdW  Elec       q    Type
REMARK                         _______ _______ _______ _____ _____    ______ ____
ROOT
ATOM      1  C   UNL A   1     -27.482   0.056  26.131  0.00  0.00    +0.050 C 
ENDROOT
BRANCH   1   2
ATOM      2  C   UNL A   1     -28.721   0.527  26.331  0.00  0.00    +0.014 A 
ATOM      3  C   UNL A   1     -29.616   0.349  25.209  0.00  0.00    -0.001 A 
ATOM      4  C   UNL A   1     -30.966   0.682  25.424  0.00  0.00    -0.000 A 
ATOM      5  C   UNL A   1     -31.380   1.184  26.663  0.00  0.00    +0.003 A 
ATOM      6  C   UNL A   1     -30.527   1.312  27.707  0.00  0.00    +0.037 A 
ATOM      7  C   UNL A   1     -29.248   0.940  27.576  0.00  0.00    +0.141 A 
BRANCH   7   8
ATOM      8  O   UNL A   1     -28.824   2.226  27.956  0.00  0.00    -0.451 OA
BRANCH   8   9
ATOM      9  C   UNL A   1     -29.250   3.113  28.737  0.00  0.00    +0.180 C 
ATOM     10  C   UNL A   1     -28.506   4.354  28.726  0.00  0.00    +0.044 C 
ENDBRANCH   8   9
ENDBRANCH   7   8
ENDBRANCH   1   2
BRANCH   1  11
ATOM     11  C   UNL A   1     -26.388   0.291  27.233  0.00  0.00    +0.106 C 
ATOM     12 CL   UNL A   1     -25.425   1.243  26.770  0.00  0.00    -0.110 Cl
BRANCH  11  15
ATOM     13  C   UNL A   1     -28.016  -0.814  28.878  0.00  0.00    -0.003 A 
ATOM     14  C   UNL A   1     -28.469  -0.785  29.829  0.00  0.00    -0.000 A 
ATOM     15  C   UNL A   1     -27.136   0.236  28.535  0.00  0.00    -0.007 A 
ATOM     16  C   UNL A   1     -26.875   1.282  29.398  0.00  0.00    -0.003 A 
ATOM     17  C   UNL A   1     -28.361   0.199  30.924  0.00  0.00    -0.000 A 
ATOM     18  C   UNL A   1     -27.528   1.223  30.636  0.00  0.00    -0.000 A 
ENDBRANCH  11  15
ENDBRANCH   1  11
TORSDOF 5
