MODEL 3643
MODEL 1
REMARK VINA RESULT:    -9.661      0.000      0.000
REMARK INTER + INTRA:         -10.777
REMARK INTER:                 -10.790
REMARK INTRA:                   0.014
REMARK UNBOUND:                 0.014
REMARK  Name = No_3643-gen_results/8p0m/2024-11-27-11-27-31/
REMARK  2 active torsions:
REMARK  status: ('A' for Active; 'I' for Inactive)
REMARK    1  A    between atoms: C_5  and  C_11
REMARK    2  A    between atoms: N_16  and  C_17
REMARK                            x       y       z     vdW  Elec       q    Type
REMARK                         _______ _______ _______ _____ _____    ______ ____
ROOT
ATOM      1  C   UNL A   1     -22.436  -0.324  30.335  0.00  0.00    +0.032 C 
ATOM      2  C   UNL A   1     -22.823   0.023  29.243  0.00  0.00    +0.023 C 
ATOM      3  C   UNL A   1     -23.917  -0.333  28.632  0.00  0.00    +0.078 C 
ATOM      4  C   UNL A   1     -24.361   0.120  27.291  0.00  0.00    +0.029 C 
ATOM      5  C   UNL A   1     -23.526   1.071  26.637  0.00  0.00    +0.097 C 
ATOM      6  C   UNL A   1     -22.404   1.494  27.302  0.00  0.00    +0.009 C 
ATOM      7  C   UNL A   1     -22.042   1.066  28.534  0.00  0.00    +0.002 C 
ATOM      8  C   UNL A   1     -23.546  -0.528  31.367  0.00  0.00    +0.019 A 
ATOM      9  C   UNL A   1     -23.394  -0.890  32.411  0.00  0.00    +0.133 A 
ATOM     10  C   UNL A   1     -24.387  -1.059  33.440  0.00  0.00    +0.005 A 
ATOM     11  C   UNL A   1     -24.214  -1.464  34.721  0.00  0.00    +0.033 C 
ATOM     12  C   UNL A   1     -25.811  -0.694  33.034  0.00  0.00    -0.001 A 
ATOM     13  C   UNL A   1     -25.968  -0.228  31.748  0.00  0.00    +0.014 A 
ATOM     14  C   UNL A   1     -24.917  -0.115  30.916  0.00  0.00    +0.050 A 
ATOM     15  N   UNL A   1     -25.084  -0.570  29.485  0.00  0.00    -0.289 N 
ATOM     16  F   UNL A   1     -22.189  -1.191  32.917  0.00  0.00    -0.205 F 
ENDROOT
BRANCH  15  17
ATOM     17  C   UNL A   1     -25.427  -1.986  29.351  0.00  0.00    +0.051 A 
ATOM     18  C   UNL A   1     -26.212  -2.642  29.948  0.00  0.00    +0.015 A 
ATOM     19  C   UNL A   1     -26.443  -3.986  29.705  0.00  0.00    +0.001 A 
ATOM     20  C   UNL A   1     -24.121  -2.801  29.063  0.00  0.00    +0.015 A 
ATOM     21  C   UNL A   1     -24.240  -4.149  28.673  0.00  0.00    +0.001 A 
ATOM     22  C   UNL A   1     -25.347  -4.791  29.328  0.00  0.00    +0.000 A 
ENDBRANCH  15  17
BRANCH   5  23
ATOM     23  C   UNL A   1     -23.842   1.553  25.314  0.00  0.00    +0.398 C 
ATOM     24  F   UNL A   1     -24.189   0.691  24.513  0.00  0.00    -0.170 F 
ATOM     25  F   UNL A   1     -24.744   2.571  25.290  0.00  0.00    -0.170 F 
ATOM     26  F   UNL A   1     -22.705   2.179  24.734  0.00  0.00    -0.170 F 
ENDBRANCH   5  23
TORSDOF 2
ENDMDL
ENDMDL
