MODEL 3644
MODEL 1
REMARK VINA RESULT:    -5.298      0.000      0.000
REMARK INTER + INTRA:          -5.779
REMARK INTER:                  -5.607
REMARK INTRA:                  -0.172
REMARK UNBOUND:                -0.172
REMARK  Name = No_3644-gen_results/8p0m/2024-11-27-11-27-31/
REMARK  1 active torsions:
REMARK  status: ('A' for Active; 'I' for Inactive)
REMARK    1  A    between atoms: C_5  and  C_7
REMARK                            x       y       z     vdW  Elec       q    Type
REMARK                         _______ _______ _______ _____ _____    ______ ____
ROOT
ATOM      1  C   UNL A   1     -24.644  -5.117  28.960  0.00  0.00    -0.000 A 
ATOM      2  C   UNL A   1     -25.771  -5.020  29.387  0.00  0.00    -0.000 A 
ATOM      3  C   UNL A   1     -26.313  -3.838  29.853  0.00  0.00    -0.000 A 
ATOM      4  C   UNL A   1     -25.510  -2.665  29.788  0.00  0.00    +0.004 A 
ATOM      5  C   UNL A   1     -24.324  -2.790  29.148  0.00  0.00    +0.071 A 
ATOM      6  C   UNL A   1     -23.902  -3.955  28.696  0.00  0.00    +0.004 A 
ENDROOT
BRANCH   5   7
ATOM      7  C   UNL A   1     -23.518  -1.554  29.064  0.00  0.00    +0.419 C 
ATOM      8  F   UNL A   1     -22.357  -1.743  28.870  0.00  0.00    -0.166 F 
ATOM      9  F   UNL A   1     -23.638  -0.931  30.305  0.00  0.00    -0.166 F 
ATOM     10  F   UNL A   1     -24.034  -0.680  28.173  0.00  0.00    -0.166 F 
ENDBRANCH   5   7
TORSDOF 1
ENDMDL
ENDMDL
