MODEL 3645
MODEL 1
REMARK VINA RESULT:    -6.023      0.000      0.000
REMARK INTER + INTRA:          -7.423
REMARK INTER:                  -7.080
REMARK INTRA:                  -0.344
REMARK UNBOUND:                -0.344
REMARK  Name = No_3645-gen_results/8p0m/2024-11-27-11-27-31/
REMARK  3 active torsions:
REMARK  status: ('A' for Active; 'I' for Inactive)
REMARK    1  A    between atoms: C_1  and  C_2
REMARK    2  A    between atoms: C_5  and  C_10
REMARK    3  A    between atoms: C_10  and  C_11
REMARK                            x       y       z     vdW  Elec       q    Type
REMARK                         _______ _______ _______ _____ _____    ______ ____
ROOT
ATOM      1  C   UNL A   1     -22.786   0.871  28.001  0.00  0.00    +0.044 A 
ATOM      2  C   UNL A   1     -23.974   0.295  27.564  0.00  0.00    +0.001 A 
ATOM      3  C   UNL A   1     -24.546  -1.001  28.027  0.00  0.00    +0.003 A 
ATOM      4  C   UNL A   1     -23.712  -1.783  28.880  0.00  0.00    +0.039 A 
ATOM      5  C   UNL A   1     -22.484  -1.206  29.263  0.00  0.00    +0.003 A 
ATOM      6  C   UNL A   1     -22.047  -0.006  28.853  0.00  0.00    +0.001 A 
ENDROOT
BRANCH   1   7
ATOM      7  C   UNL A   1     -22.412   1.936  27.568  0.00  0.00    +0.341 C 
ATOM      8  F   UNL A   1     -22.911   2.208  26.488  0.00  0.00    -0.193 F 
ATOM      9  F   UNL A   1     -20.988   1.931  27.381  0.00  0.00    -0.193 F 
ENDBRANCH   1   7
BRANCH   4  10
ATOM     10  C   UNL A   1     -24.247  -3.055  29.296  0.00  0.00    +0.197 C 
ATOM     11  O   UNL A   1     -23.602  -4.094  28.810  0.00  0.00    -0.286 OA
BRANCH  10  12
ATOM     12  C   UNL A   1     -25.478  -3.122  29.764  0.00  0.00    +0.061 C 
ATOM     13  C   UNL A   1     -26.216  -4.397  29.643  0.00  0.00    +0.109 C 
ATOM     14  N   UNL A   1     -27.545  -4.373  29.854  0.00  0.00    -0.127 NA
ENDBRANCH  10  12
ENDBRANCH   4  10
TORSDOF 3
ENDMDL
ENDMDL
