REMARK  Name = No_3645-gen_results/8p0m/2024-11-27-11-27-31/
REMARK  3 active torsions:
REMARK  status: ('A' for Active; 'I' for Inactive)
REMARK    1  A    between atoms: C_1  and  C_2
REMARK    2  A    between atoms: C_5  and  C_10
REMARK    3  A    between atoms: C_10  and  C_11
REMARK                            x       y       z     vdW  Elec       q    Type
REMARK                         _______ _______ _______ _____ _____    ______ ____
ROOT
ATOM      1  C   UNL A   1     -27.064  -0.119  28.608  0.00  0.00    +0.044 A 
ATOM      2  C   UNL A   1     -25.792  -0.430  29.076  0.00  0.00    +0.001 A 
ATOM      3  C   UNL A   1     -24.546   0.349  28.823  0.00  0.00    +0.003 A 
ATOM      4  C   UNL A   1     -24.659   1.420  27.888  0.00  0.00    +0.039 A 
ATOM      5  C   UNL A   1     -25.947   1.681  27.379  0.00  0.00    +0.003 A 
ATOM      6  C   UNL A   1     -27.044   0.974  27.687  0.00  0.00    +0.001 A 
ENDROOT
BRANCH   1   7
ATOM      7  C   UNL A   1     -28.016  -0.814  28.878  0.00  0.00    +0.341 C 
ATOM      8  F   UNL A   1     -29.002  -0.542  28.214  0.00  0.00    -0.193 F 
ATOM      9  F   UNL A   1     -28.382  -0.651  30.257  0.00  0.00    -0.193 F 
ENDBRANCH   1   7
BRANCH   4  10
ATOM     10  C   UNL A   1     -23.446   2.149  27.612  0.00  0.00    +0.197 C 
ATOM     11  O   UNL A   1     -23.637   3.416  27.311  0.00  0.00    -0.286 OA
BRANCH  10  12
ATOM     12  C   UNL A   1     -22.346   1.490  27.304  0.00  0.00    +0.061 C 
ATOM     13  C   UNL A   1     -21.664   0.713  28.361  0.00  0.00    +0.109 C 
ATOM     14  N   UNL A   1     -20.410   0.291  28.117  0.00  0.00    -0.127 NA
ENDBRANCH  10  12
ENDBRANCH   4  10
TORSDOF 3
