REMARK  Name = No_3646-gen_results/8p0m/2024-11-27-11-27-31/
REMARK  3 active torsions:
REMARK  status: ('A' for Active; 'I' for Inactive)
REMARK    1  A    between atoms: C_1  and  C_2
REMARK    2  A    between atoms: C_1  and  C_8
REMARK    3  A    between atoms: C_5  and  C_11
REMARK                            x       y       z     vdW  Elec       q    Type
REMARK                         _______ _______ _______ _____ _____    ______ ____
ROOT
ATOM      1  C   UNL A   1     -27.064  -0.119  28.608  0.00  0.00    -0.011 A 
ATOM      2  C   UNL A   1     -25.765  -0.390  29.036  0.00  0.00    -0.004 A 
ATOM      3  C   UNL A   1     -24.552   0.406  28.765  0.00  0.00    +0.001 A 
ATOM      4  C   UNL A   1     -24.696   1.448  27.799  0.00  0.00    +0.021 A 
ATOM      5  C   UNL A   1     -25.976   1.725  27.308  0.00  0.00    +0.001 A 
ATOM      6  C   UNL A   1     -27.072   1.013  27.654  0.00  0.00    -0.004 A 
ENDROOT
BRANCH   4   7
ATOM      7  C   UNL A   1     -23.498   2.221  27.490  0.00  0.00    +0.122 C 
ATOM      8  N   UNL A   1     -22.535   1.920  27.254  0.00  0.00    -0.146 NA
ENDBRANCH   4   7
BRANCH   1   9
ATOM      9  C   UNL A   1     -28.016  -0.814  28.878  0.00  0.00    +0.140 C 
BRANCH   9  10
ATOM     10  C   UNL A   1     -29.226  -0.068  29.315  0.00  0.00    +0.369 C 
ATOM     11  O   UNL A   1     -30.351  -0.680  29.079  0.00  0.00    -0.245 OA
ATOM     12  O   UNL A   1     -29.221   1.018  29.868  0.00  0.00    -0.245 OA
ENDBRANCH   9  10
ENDBRANCH   1   9
TORSDOF 3
