MODEL 3648
MODEL 1
REMARK VINA RESULT:    -5.355      0.000      0.000
REMARK INTER + INTRA:          -5.707
REMARK INTER:                  -5.668
REMARK INTRA:                  -0.039
REMARK UNBOUND:                -0.039
REMARK  Name = No_3648-gen_results/8p0m/2024-11-27-11-27-31/
REMARK  1 active torsions:
REMARK  status: ('A' for Active; 'I' for Inactive)
REMARK    1  A    between atoms: C_1  and  C_7
REMARK                            x       y       z     vdW  Elec       q    Type
REMARK                         _______ _______ _______ _____ _____    ______ ____
ROOT
ATOM      1  C   UNL A   1      -9.484 -10.094  18.238  0.00  0.00    +0.080 A 
ATOM      2  C   UNL A   1      -8.404 -10.503  18.597  0.00  0.00    +0.007 A 
ATOM      3  C   UNL A   1      -7.819 -10.163  19.801  0.00  0.00    +0.000 A 
ATOM      4  C   UNL A   1      -8.549  -9.316  20.682  0.00  0.00    +0.000 A 
ATOM      5  C   UNL A   1      -9.818  -9.025  20.312  0.00  0.00    +0.000 A 
ATOM      6  C   UNL A   1     -10.311  -9.428  19.156  0.00  0.00    +0.007 A 
ENDROOT
BRANCH   1   7
ATOM      7  C   UNL A   1     -10.052 -10.527  16.909  0.00  0.00    +0.388 C 
ATOM      8  O   UNL A   1      -9.614 -10.915  16.055  0.00  0.00    -0.241 OA
ATOM      9  O   UNL A   1     -11.473 -10.509  16.998  0.00  0.00    -0.241 OA
ENDBRANCH   1   7
TORSDOF 1
ENDMDL
ENDMDL
