MODEL 3649
MODEL 1
REMARK VINA RESULT:    -7.619      0.000      0.000
REMARK INTER + INTRA:         -10.685
REMARK INTER:                 -10.292
REMARK INTRA:                  -0.393
REMARK UNBOUND:                -0.393
REMARK  Name = No_3649-gen_results/8p0m/2024-11-27-11-27-31/
REMARK  6 active torsions:
REMARK  status: ('A' for Active; 'I' for Inactive)
REMARK    1  A    between atoms: C_2  and  O_7
REMARK    2  A    between atoms: O_7  and  C_8
REMARK    3  A    between atoms: C_9  and  C_17
REMARK    4  A    between atoms: C_12  and  C_20
REMARK    5  A    between atoms: C_20  and  N_21
REMARK    6  A    between atoms: C_22  and  C_23
REMARK                            x       y       z     vdW  Elec       q    Type
REMARK                         _______ _______ _______ _____ _____    ______ ____
ROOT
ATOM      1  C   UNL A   1     -24.748   0.836  26.170  0.00  0.00    +0.151 A 
ATOM      2  C   UNL A   1     -23.957   1.746  26.458  0.00  0.00    +0.115 A 
ATOM      3  C   UNL A   1     -23.388   1.818  27.802  0.00  0.00    +0.021 A 
ATOM      4  C   UNL A   1     -23.792   0.832  28.733  0.00  0.00    +0.056 A 
ATOM      5  C   UNL A   1     -24.680  -0.138  28.321  0.00  0.00    +0.016 A 
ATOM      6  C   UNL A   1     -25.167  -0.212  27.078  0.00  0.00    +0.036 A 
ATOM      7 CL   UNL A   1     -23.186   0.946  30.314  0.00  0.00    -0.083 Cl
ENDROOT
BRANCH   2   8
ATOM      8  C   UNL A   1     -23.474   2.768  25.530  0.00  0.00    +0.391 C 
ATOM      9  O   UNL A   1     -22.482   2.582  24.935  0.00  0.00    -0.240 OA
ATOM     10  O   UNL A   1     -24.077   3.936  25.516  0.00  0.00    -0.240 OA
ENDBRANCH   2   8
BRANCH   1  11
ATOM     11  O   UNL A   1     -25.200   0.801  24.919  0.00  0.00    -0.453 OA
BRANCH  11  13
ATOM     12  C   UNL A   1     -27.012  -0.161  24.280  0.00  0.00    +0.049 A 
ATOM     13  C   UNL A   1     -26.644   0.757  24.646  0.00  0.00    +0.146 A 
ATOM     14  C   UNL A   1     -28.498  -0.201  24.002  0.00  0.00    +0.067 A 
ATOM     15  C   UNL A   1     -29.252   0.987  24.104  0.00  0.00    +0.045 A 
ATOM     16  C   UNL A   1     -27.194   2.122  24.806  0.00  0.00    +0.038 A 
ATOM     17  C   UNL A   1     -28.558   2.126  24.553  0.00  0.00    +0.011 A 
ATOM     18 CL   UNL A   1     -29.331  -1.620  23.501  0.00  0.00    -0.082 Cl
ATOM     19 BR   UNL A   1     -31.049   1.071  23.686  0.00  0.00    -0.048 Br
ENDBRANCH  11  13
ENDBRANCH   1  11
BRANCH   5  20
ATOM     20  C   UNL A   1     -25.130  -1.200  29.354  0.00  0.00    +0.153 C 
BRANCH  20  21
ATOM     21  N   UNL A   1     -25.120  -2.375  28.993  0.00  0.00    -0.264 NA
ATOM     22  C   UNL A   1     -23.997  -3.148  29.081  0.00  0.00    +0.093 C 
BRANCH  22  23
ATOM     23  C   UNL A   1     -23.989  -4.523  28.558  0.00  0.00    +0.016 C 
ATOM     24  C   UNL A   1     -25.006  -5.372  28.957  0.00  0.00    -0.024 C 
ATOM     25  C   UNL A   1     -26.038  -4.905  29.685  0.00  0.00    +0.031 C 
ENDBRANCH  22  23
ENDBRANCH  20  21
ENDBRANCH   5  20
TORSDOF 6
ENDMDL
ENDMDL
