REMARK  Name = No_3649-gen_results/8p0m/2024-11-27-11-27-31/
REMARK  6 active torsions:
REMARK  status: ('A' for Active; 'I' for Inactive)
REMARK    1  A    between atoms: C_2  and  O_7
REMARK    2  A    between atoms: O_7  and  C_8
REMARK    3  A    between atoms: C_9  and  C_17
REMARK    4  A    between atoms: C_12  and  C_20
REMARK    5  A    between atoms: C_20  and  N_21
REMARK    6  A    between atoms: C_22  and  C_23
REMARK                            x       y       z     vdW  Elec       q    Type
REMARK                         _______ _______ _______ _____ _____    ______ ____
ROOT
ATOM      1  C   UNL A   1     -30.639   0.234  30.252  0.00  0.00    +0.151 A 
ATOM      2  C   UNL A   1     -31.590   0.594  29.543  0.00  0.00    +0.115 A 
ATOM      3  C   UNL A   1     -32.373   1.769  29.918  0.00  0.00    +0.021 A 
ATOM      4  C   UNL A   1     -32.010   2.441  31.109  0.00  0.00    +0.056 A 
ATOM      5  C   UNL A   1     -30.940   1.962  31.835  0.00  0.00    +0.016 A 
ATOM      6  C   UNL A   1     -30.210   0.905  31.462  0.00  0.00    +0.036 A 
ATOM      7 CL   UNL A   1     -32.955   3.767  31.585  0.00  0.00    -0.083 Cl
ENDROOT
BRANCH   2   8
ATOM      8  C   UNL A   1     -31.988  -0.035  28.284  0.00  0.00    +0.391 C 
ATOM      9  O   UNL A   1     -32.821  -0.859  28.291  0.00  0.00    -0.240 OA
ATOM     10  O   UNL A   1     -31.282   0.223  27.205  0.00  0.00    -0.240 OA
ENDBRANCH   2   8
BRANCH   1  11
ATOM     11  O   UNL A   1     -29.939  -0.819  29.836  0.00  0.00    -0.453 OA
BRANCH  11  13
ATOM     12  C   UNL A   1     -28.016  -0.814  28.878  0.00  0.00    +0.049 A 
ATOM     13  C   UNL A   1     -28.469  -0.785  29.829  0.00  0.00    +0.146 A 
ATOM     14  C   UNL A   1     -26.504  -0.778  28.877  0.00  0.00    +0.067 A 
ATOM     15  C   UNL A   1     -25.810  -0.853  30.103  0.00  0.00    +0.045 A 
ATOM     16  C   UNL A   1     -27.991  -0.892  31.226  0.00  0.00    +0.038 A 
ATOM     17  C   UNL A   1     -26.604  -0.868  31.265  0.00  0.00    +0.011 A 
ATOM     18 CL   UNL A   1     -25.558  -0.710  27.442  0.00  0.00    -0.082 Cl
ATOM     19 BR   UNL A   1     -23.968  -0.922  30.208  0.00  0.00    -0.048 Br
ENDBRANCH  11  13
ENDBRANCH   1  11
BRANCH   5  20
ATOM     20  C   UNL A   1     -30.564   2.693  33.146  0.00  0.00    +0.153 C 
BRANCH  20  21
ATOM     21  N   UNL A   1     -29.681   2.189  33.838  0.00  0.00    -0.264 NA
ATOM     22  C   UNL A   1     -29.351   2.690  35.065  0.00  0.00    +0.093 C 
BRANCH  22  23
ATOM     23  C   UNL A   1     -28.230   2.124  35.831  0.00  0.00    +0.016 C 
ATOM     24  C   UNL A   1     -27.491   1.113  35.242  0.00  0.00    -0.024 C 
ATOM     25  C   UNL A   1     -27.710   0.766  33.960  0.00  0.00    +0.031 C 
ENDBRANCH  22  23
ENDBRANCH  20  21
ENDBRANCH   5  20
TORSDOF 6
