MODEL 364
MODEL 1
REMARK VINA RESULT:    -5.924      0.000      0.000
REMARK INTER + INTRA:          -6.503
REMARK INTER:                  -6.270
REMARK INTRA:                  -0.233
REMARK UNBOUND:                -0.233
REMARK  Name = No_364-gen_results/8p0m/2024-11-27-11-27-31/
REMARK  1 active torsions:
REMARK  status: ('A' for Active; 'I' for Inactive)
REMARK    1  A    between atoms: C_4  and  C_6
REMARK                            x       y       z     vdW  Elec       q    Type
REMARK                         _______ _______ _______ _____ _____    ______ ____
ROOT
ATOM      1  C   UNL A   1     -24.367  -2.811  28.895  0.00  0.00    +0.014 A 
ATOM      2  C   UNL A   1     -23.861  -3.904  28.714  0.00  0.00    +0.001 A 
ATOM      3  C   UNL A   1     -24.243  -5.057  28.571  0.00  0.00    +0.000 A 
ATOM      4  C   UNL A   1     -25.106  -5.608  29.108  0.00  0.00    +0.000 A 
ATOM      5  C   UNL A   1     -26.107  -4.555  29.608  0.00  0.00    +0.000 A 
ATOM      6  C   UNL A   1     -25.715  -3.132  29.619  0.00  0.00    +0.001 A 
ENDROOT
BRANCH   1  10
ATOM      7  C   UNL A   1     -22.218  -0.233  29.709  0.00  0.00    +0.094 C 
ATOM      8  N   UNL A   1     -22.625  -0.959  29.092  0.00  0.00    -0.248 NA
ATOM      9  C   UNL A   1     -22.988   0.030  30.924  0.00  0.00    +0.001 C 
ATOM     10  C   UNL A   1     -23.696  -1.701  29.542  0.00  0.00    +0.063 C 
ATOM     11  C   UNL A   1     -23.921  -1.072  30.744  0.00  0.00    +0.073 C 
ENDBRANCH   1  10
TORSDOF 1
ENDMDL
ENDMDL
