MODEL 3650
MODEL 1
REMARK VINA RESULT:    -7.234      0.000      0.000
REMARK INTER + INTRA:          -7.941
REMARK INTER:                  -7.657
REMARK INTRA:                  -0.284
REMARK UNBOUND:                -0.284
REMARK  Name = No_3650-gen_results/8p0m/2024-11-27-11-27-31/
REMARK  1 active torsions:
REMARK  status: ('A' for Active; 'I' for Inactive)
REMARK    1  A    between atoms: C_10  and  C_14
REMARK                            x       y       z     vdW  Elec       q    Type
REMARK                         _______ _______ _______ _____ _____    ______ ____
ROOT
ATOM      1  O   UNL A   1     -23.148   0.063  27.809  0.00  0.00    -0.270 OA
ATOM      2  C   UNL A   1     -24.065   0.771  28.238  0.00  0.00    +0.256 C 
ATOM      3  C   UNL A   1     -24.554   1.666  28.037  0.00  0.00    +0.061 A 
ATOM      4  N   UNL A   1     -24.667   0.096  29.487  0.00  0.00    -0.223 N 
ATOM      5  C   UNL A   1     -24.372   2.414  26.811  0.00  0.00    +0.064 A 
ATOM      6  C   UNL A   1     -24.727   3.739  26.591  0.00  0.00    +0.042 A 
ATOM      7  C   UNL A   1     -25.607   4.400  27.551  0.00  0.00    +0.147 A 
ATOM      8  C   UNL A   1     -25.887   3.732  28.731  0.00  0.00    +0.058 A 
ATOM      9  C   UNL A   1     -25.412   2.513  28.997  0.00  0.00    -0.007 A 
ATOM     10  C   UNL A   1     -24.062  -1.221  29.973  0.00  0.00    +0.255 C 
ATOM     11 BR   UNL A   1     -26.938   4.643  30.019  0.00  0.00    -0.047 Br
ATOM     12  C   UNL A   1     -25.654   0.656  30.324  0.00  0.00    +0.106 C 
ATOM     13  C   UNL A   1     -25.908   1.835  30.135  0.00  0.00    +0.049 C 
ATOM     14  O   UNL A   1     -23.283  -1.097  30.865  0.00  0.00    -0.270 OA
ATOM     15 CL   UNL A   1     -23.412   1.724  25.586  0.00  0.00    -0.082 Cl
ATOM     16  F   UNL A   1     -26.026   5.650  27.298  0.00  0.00    -0.204 F 
ENDROOT
BRANCH  10  17
ATOM     17  C   UNL A   1     -24.611  -2.408  29.405  0.00  0.00    +0.054 A 
ATOM     18  C   UNL A   1     -25.746  -2.903  30.063  0.00  0.00    +0.004 A 
ATOM     19  C   UNL A   1     -26.238  -4.136  29.722  0.00  0.00    +0.000 A 
ATOM     20  C   UNL A   1     -25.594  -4.876  29.391  0.00  0.00    +0.000 A 
ATOM     21  C   UNL A   1     -24.309  -4.611  28.624  0.00  0.00    +0.000 A 
ATOM     22  C   UNL A   1     -23.791  -3.333  28.696  0.00  0.00    +0.004 A 
ENDBRANCH  10  17
TORSDOF 1
ENDMDL
ENDMDL
