REMARK  Name = No_3650-gen_results/8p0m/2024-11-27-11-27-31/
REMARK  1 active torsions:
REMARK  status: ('A' for Active; 'I' for Inactive)
REMARK    1  A    between atoms: C_10  and  C_14
REMARK                            x       y       z     vdW  Elec       q    Type
REMARK                         _______ _______ _______ _____ _____    ______ ____
ROOT
ATOM      1  O   UNL A   1     -28.123  -1.335  28.487  0.00  0.00    -0.270 OA
ATOM      2  C   UNL A   1     -27.064  -0.824  28.869  0.00  0.00    +0.256 C 
ATOM      3  C   UNL A   1     -26.402  -0.062  28.622  0.00  0.00    +0.061 A 
ATOM      4  N   UNL A   1     -26.572  -1.584  30.117  0.00  0.00    -0.223 N 
ATOM      5  C   UNL A   1     -26.698   0.964  27.645  0.00  0.00    +0.064 A 
ATOM      6  C   UNL A   1     -25.783   1.813  27.035  0.00  0.00    +0.042 A 
ATOM      7  C   UNL A   1     -24.435   1.909  27.589  0.00  0.00    +0.147 A 
ATOM      8  C   UNL A   1     -24.081   1.004  28.575  0.00  0.00    +0.058 A 
ATOM      9  C   UNL A   1     -24.928   0.087  29.048  0.00  0.00    -0.007 A 
ATOM     10  C   UNL A   1     -27.391  -2.771  30.624  0.00  0.00    +0.255 C 
ATOM     11 BR   UNL A   1     -22.295   1.062  29.209  0.00  0.00    -0.047 Br
ATOM     12  C   UNL A   1     -25.340  -1.373  30.770  0.00  0.00    +0.106 C 
ATOM     13  C   UNL A   1     -24.541  -0.660  30.185  0.00  0.00    +0.049 C 
ATOM     14  O   UNL A   1     -26.982  -3.831  30.267  0.00  0.00    -0.270 OA
ATOM     15 CL   UNL A   1     -28.259   0.997  26.965  0.00  0.00    -0.082 Cl
ATOM     16  F   UNL A   1     -23.575   2.794  27.061  0.00  0.00    -0.204 F 
ENDROOT
BRANCH  10  17
ATOM     17  C   UNL A   1     -28.424  -2.464  31.558  0.00  0.00    +0.054 A 
ATOM     18  C   UNL A   1     -29.433  -3.432  31.657  0.00  0.00    +0.004 A 
ATOM     19  C   UNL A   1     -30.565  -3.153  32.377  0.00  0.00    +0.000 A 
ATOM     20  C   UNL A   1     -30.916  -2.181  32.432  0.00  0.00    +0.000 A 
ATOM     21  C   UNL A   1     -30.029  -0.948  32.382  0.00  0.00    +0.000 A 
ATOM     22  C   UNL A   1     -28.758  -1.114  31.869  0.00  0.00    +0.004 A 
ENDBRANCH  10  17
TORSDOF 1
