MODEL 3651
MODEL 1
REMARK VINA RESULT:    -5.711      0.000      0.000
REMARK INTER + INTRA:          -7.011
REMARK INTER:                  -6.713
REMARK INTRA:                  -0.298
REMARK UNBOUND:                -0.298
REMARK  Name = No_3651-gen_results/8p0m/2024-11-27-11-27-31/
REMARK  3 active torsions:
REMARK  status: ('A' for Active; 'I' for Inactive)
REMARK    1  A    between atoms: C_3  and  C_4
REMARK    2  A    between atoms: N_8  and  C_10
REMARK    3  A    between atoms: C_11  and  C_12
REMARK                            x       y       z     vdW  Elec       q    Type
REMARK                         _______ _______ _______ _____ _____    ______ ____
ROOT
ATOM      1  C   UNL A   1     -24.187  -1.286  29.163  0.00  0.00    +0.279 C 
ATOM      2  N   UNL A   1     -24.233  -0.428  28.577  0.00  0.00    -0.206 NA
ATOM      3  O   UNL A   1     -23.354  -1.093  30.342  0.00  0.00    -0.265 OA
ENDROOT
BRANCH   1   6
ATOM      4  C   UNL A   1     -23.847  -3.769  28.612  0.00  0.00    +0.005 A 
ATOM      5  C   UNL A   1     -24.231  -4.747  28.705  0.00  0.00    +0.000 A 
ATOM      6  C   UNL A   1     -24.627  -2.705  29.116  0.00  0.00    +0.058 A 
ATOM      7  C   UNL A   1     -25.494  -5.245  29.277  0.00  0.00    +0.000 A 
ATOM      8  C   UNL A   1     -26.319  -4.246  29.793  0.00  0.00    +0.000 A 
ATOM      9  C   UNL A   1     -25.892  -2.957  29.771  0.00  0.00    +0.005 A 
ENDBRANCH   1   6
BRANCH   2  10
ATOM     10  C   UNL A   1     -25.077  -0.464  27.316  0.00  0.00    +0.102 C 
ATOM     11  C   UNL A   1     -24.703   0.442  26.262  0.00  0.00    +0.021 C 
BRANCH  11  12
ATOM     12  C   UNL A   1     -23.902   1.553  26.652  0.00  0.00    +0.002 C 
ATOM     13  C   UNL A   1     -23.058   2.185  25.728  0.00  0.00    +0.000 C 
ENDBRANCH  11  12
ENDBRANCH   2  10
TORSDOF 3
ENDMDL
ENDMDL
