REMARK  Name = No_3651-gen_results/8p0m/2024-11-27-11-27-31/
REMARK  3 active torsions:
REMARK  status: ('A' for Active; 'I' for Inactive)
REMARK    1  A    between atoms: C_3  and  C_4
REMARK    2  A    between atoms: N_8  and  C_10
REMARK    3  A    between atoms: C_11  and  C_12
REMARK                            x       y       z     vdW  Elec       q    Type
REMARK                         _______ _______ _______ _____ _____    ______ ____
ROOT
ATOM      1  C   UNL A   1     -26.335   0.290  27.284  0.00  0.00    +0.279 C 
ATOM      2  N   UNL A   1     -25.358   0.480  26.983  0.00  0.00    -0.206 NA
ATOM      3  O   UNL A   1     -27.231   0.130  26.148  0.00  0.00    -0.265 OA
ENDROOT
BRANCH   1   6
ATOM      4  C   UNL A   1     -28.016  -0.814  28.878  0.00  0.00    +0.005 A 
ATOM      5  C   UNL A   1     -28.469  -0.785  29.829  0.00  0.00    +0.000 A 
ATOM      6  C   UNL A   1     -27.136   0.236  28.535  0.00  0.00    +0.058 A 
ATOM      7  C   UNL A   1     -28.369   0.196  30.924  0.00  0.00    +0.000 A 
ATOM      8  C   UNL A   1     -27.516   1.266  30.654  0.00  0.00    +0.000 A 
ATOM      9  C   UNL A   1     -26.841   1.294  29.476  0.00  0.00    +0.005 A 
ENDBRANCH   1   6
BRANCH   2  10
ATOM     10  C   UNL A   1     -24.297   0.657  28.054  0.00  0.00    +0.102 C 
ATOM     11  C   UNL A   1     -23.329   1.700  27.839  0.00  0.00    +0.021 C 
BRANCH  11  12
ATOM     12  C   UNL A   1     -23.183   2.145  26.494  0.00  0.00    +0.002 C 
ATOM     13  C   UNL A   1     -24.178   1.881  25.543  0.00  0.00    +0.000 C 
ENDBRANCH  11  12
ENDBRANCH   2  10
TORSDOF 3
