MODEL 3652
MODEL 1
REMARK VINA RESULT:    -6.677      0.000      0.000
REMARK INTER + INTRA:          -7.957
REMARK INTER:                  -7.458
REMARK INTRA:                  -0.499
REMARK UNBOUND:                -0.499
REMARK  Name = No_3652-gen_results/8p0m/2024-11-27-11-27-31/
REMARK  2 active torsions:
REMARK  status: ('A' for Active; 'I' for Inactive)
REMARK    1  A    between atoms: C_4  and  C_7
REMARK    2  A    between atoms: C_7  and  C_8
REMARK                            x       y       z     vdW  Elec       q    Type
REMARK                         _______ _______ _______ _____ _____    ______ ____
ROOT
ATOM      1  C   UNL A   1     -26.159  -2.388  30.256  0.00  0.00    +0.041 A 
ATOM      2  C   UNL A   1     -25.927  -3.322  29.827  0.00  0.00    +0.060 A 
ATOM      3  C   UNL A   1     -25.121  -1.348  30.171  0.00  0.00    +0.144 A 
ATOM      4  C   UNL A   1     -23.931  -1.572  29.418  0.00  0.00    +0.066 A 
ATOM      5  C   UNL A   1     -24.813  -3.788  28.957  0.00  0.00    +0.012 A 
ATOM      6  C   UNL A   1     -23.825  -2.854  28.862  0.00  0.00    +0.006 A 
ATOM      7 CL   UNL A   1     -27.231  -4.628  29.953  0.00  0.00    -0.082 Cl
ATOM      8  F   UNL A   1     -25.219  -0.149  30.746  0.00  0.00    -0.204 F 
ENDROOT
BRANCH   4   9
ATOM      9  C   UNL A   1     -22.900  -0.595  29.295  0.00  0.00    +0.198 C 
ATOM     10  O   UNL A   1     -21.970  -0.592  30.094  0.00  0.00    -0.286 OA
BRANCH   9  11
ATOM     11  C   UNL A   1     -23.032   0.292  28.219  0.00  0.00    +0.039 A 
ATOM     12  C   UNL A   1     -22.012   1.235  27.907  0.00  0.00    +0.003 A 
ATOM     13  C   UNL A   1     -22.086   2.026  26.790  0.00  0.00    +0.000 A 
ATOM     14  C   UNL A   1     -24.214   0.379  27.407  0.00  0.00    +0.003 A 
ATOM     15  C   UNL A   1     -24.272   1.071  26.215  0.00  0.00    +0.000 A 
ATOM     16  C   UNL A   1     -23.190   1.954  25.883  0.00  0.00    +0.000 A 
ENDBRANCH   9  11
ENDBRANCH   4   9
TORSDOF 2
ENDMDL
ENDMDL
