REMARK  Name = No_3652-gen_results/8p0m/2024-11-27-11-27-31/
REMARK  2 active torsions:
REMARK  status: ('A' for Active; 'I' for Inactive)
REMARK    1  A    between atoms: C_4  and  C_7
REMARK    2  A    between atoms: C_7  and  C_8
REMARK                            x       y       z     vdW  Elec       q    Type
REMARK                         _______ _______ _______ _____ _____    ______ ____
ROOT
ATOM      1  C   UNL A   1     -28.016  -0.814  28.878  0.00  0.00    +0.041 A 
ATOM      2  C   UNL A   1     -28.469  -0.785  29.829  0.00  0.00    +0.060 A 
ATOM      3  C   UNL A   1     -26.546  -0.876  28.850  0.00  0.00    +0.144 A 
ATOM      4  C   UNL A   1     -25.804  -1.032  30.057  0.00  0.00    +0.066 A 
ATOM      5  C   UNL A   1     -27.944  -0.987  31.207  0.00  0.00    +0.012 A 
ATOM      6  C   UNL A   1     -26.582  -1.039  31.223  0.00  0.00    +0.006 A 
ATOM      7 CL   UNL A   1     -30.316  -0.690  29.855  0.00  0.00    -0.082 Cl
ATOM      8  F   UNL A   1     -25.820  -0.821  27.733  0.00  0.00    -0.204 F 
ENDROOT
BRANCH   4   9
ATOM      9  C   UNL A   1     -24.381  -1.108  30.085  0.00  0.00    +0.198 C 
ATOM     10  O   UNL A   1     -23.836  -2.186  30.290  0.00  0.00    -0.286 OA
BRANCH   9  11
ATOM     11  C   UNL A   1     -23.706   0.096  29.844  0.00  0.00    +0.039 A 
ATOM     12  C   UNL A   1     -22.428   0.116  29.217  0.00  0.00    +0.003 A 
ATOM     13  C   UNL A   1     -21.815   1.294  28.877  0.00  0.00    +0.000 A 
ATOM     14  C   UNL A   1     -24.197   1.377  30.271  0.00  0.00    +0.003 A 
ATOM     15  C   UNL A   1     -23.670   2.578  29.843  0.00  0.00    +0.000 A 
ATOM     16  C   UNL A   1     -22.420   2.564  29.139  0.00  0.00    +0.000 A 
ENDBRANCH   9  11
ENDBRANCH   4   9
TORSDOF 2
