MODEL 3653
MODEL 1
REMARK VINA RESULT:    -7.786      0.000      0.000
REMARK INTER + INTRA:         -11.357
REMARK INTER:                 -10.516
REMARK INTRA:                  -0.840
REMARK UNBOUND:                -0.840
REMARK  Name = No_3653-gen_results/8p0m/2024-11-27-11-27-31/
REMARK  6 active torsions:
REMARK  status: ('A' for Active; 'I' for Inactive)
REMARK    1  A    between atoms: C_2  and  C_7
REMARK    2  A    between atoms: N_9  and  C_11
REMARK    3  A    between atoms: C_15  and  C_24
REMARK    4  A    between atoms: C_19  and  C_21
REMARK    5  A    between atoms: C_25  and  C_26
REMARK    6  A    between atoms: C_27  and  C_28
REMARK                            x       y       z     vdW  Elec       q    Type
REMARK                         _______ _______ _______ _____ _____    ______ ____
ROOT
ATOM      1  C   UNL A   1     -22.523  -0.772  28.915  0.00  0.00    +0.253 C 
ATOM      2  O   UNL A   1     -21.519  -0.906  29.307  0.00  0.00    -0.270 OA
ATOM      3  N   UNL A   1     -22.888   0.334  28.141  0.00  0.00    -0.253 N 
ATOM      4  C   UNL A   1     -21.909   1.331  27.881  0.00  0.00    +0.120 C 
ENDROOT
BRANCH   1   6
ATOM      5  C   UNL A   1     -24.508  -1.280  29.918  0.00  0.00    +0.004 A 
ATOM      6  C   UNL A   1     -23.807  -1.681  29.241  0.00  0.00    +0.054 A 
ATOM      7  C   UNL A   1     -25.700  -2.162  30.217  0.00  0.00    +0.000 A 
ATOM      8  C   UNL A   1     -25.732  -3.477  29.708  0.00  0.00    +0.000 A 
ATOM      9  C   UNL A   1     -23.590  -3.002  28.610  0.00  0.00    +0.004 A 
ATOM     10  C   UNL A   1     -24.664  -3.843  28.868  0.00  0.00    +0.000 A 
ATOM     11  C   UNL A   1     -26.852  -1.776  31.045  0.00  0.00    +0.000 A 
ATOM     12  C   UNL A   1     -27.984  -2.543  31.029  0.00  0.00    +0.008 A 
ATOM     13  C   UNL A   1     -27.937  -3.879  30.494  0.00  0.00    +0.098 A 
ATOM     14  C   UNL A   1     -26.879  -4.292  29.800  0.00  0.00    +0.008 A 
BRANCH  13  15
ATOM     15  C   UNL A   1     -29.167  -4.691  30.672  0.00  0.00    +0.477 C 
ATOM     16  N   UNL A   1     -29.338  -5.675  31.393  0.00  0.00    +0.205 NA
ATOM     17  N   UNL A   1     -30.202  -4.379  29.769  0.00  0.00    +0.205 NA
ENDBRANCH  13  15
ENDBRANCH   1   6
BRANCH   3  18
ATOM     18  C   UNL A   1     -24.206   0.546  27.561  0.00  0.00    +0.054 A 
ATOM     19  C   UNL A   1     -24.945   1.553  28.288  0.00  0.00    +0.015 A 
ATOM     20  C   UNL A   1     -26.050   1.836  27.732  0.00  0.00    +0.001 A 
ATOM     21  C   UNL A   1     -26.625   1.259  26.536  0.00  0.00    +0.000 A 
ATOM     22  C   UNL A   1     -25.855   0.296  25.942  0.00  0.00    +0.001 A 
ATOM     23  C   UNL A   1     -24.594  -0.015  26.426  0.00  0.00    +0.015 A 
BRANCH  22  24
ATOM     24  C   UNL A   1     -26.413  -0.304  24.708  0.00  0.00    +0.000 C 
ATOM     25  C   UNL A   1     -27.709  -0.239  24.385  0.00  0.00    +0.000 C 
BRANCH  25  26
ATOM     26  C   UNL A   1     -28.610   0.437  23.858  0.00  0.00    +0.000 C 
ATOM     27  C   UNL A   1     -29.830   0.131  23.316  0.00  0.00    +0.000 C 
BRANCH  27  28
ATOM     28  C   UNL A   1     -30.221  -1.246  23.587  0.00  0.00    +0.000 C 
ATOM     29  C   UNL A   1     -31.493  -1.601  23.810  0.00  0.00    +0.000 C 
ENDBRANCH  27  28
ENDBRANCH  25  26
ENDBRANCH  22  24
ENDBRANCH   3  18
TORSDOF 6
ENDMDL
ENDMDL
