REMARK  Name = outputs/IAG933/test6/raw/output_3653_IAG933_linker_design_.xyz
REMARK  10 active torsions:
REMARK  status: ('A' for Active; 'I' for Inactive)
REMARK    1  A    between atoms: C_1  and  C_2
REMARK    2  A    between atoms: C_1  and  C_8
REMARK    3  A    between atoms: C_1  and  N_40
REMARK    4  A    between atoms: C_13  and  C_33
REMARK    5  A    between atoms: C_14  and  C_15
REMARK    6  A    between atoms: C_21  and  O_22
REMARK    7  A    between atoms: O_22  and  C_23
REMARK    8  A    between atoms: C_23  and  C_24
REMARK    9  A    between atoms: C_28  and  O_29
REMARK   10  A    between atoms: C_37  and  N_40
REMARK                            x       y       z     vdW  Elec       q    Type
REMARK                         _______ _______ _______ _____ _____    ______ ____
ROOT
ATOM      1  C   UNL A   1     -23.391   1.512  26.055  0.00  0.00    +0.217 A 
ATOM      2  C   UNL A   1     -21.955   1.293  27.776  0.00  0.00    +0.076 A 
ATOM      3  F   UNL A   1     -19.733   1.980  27.677  0.00  0.00    -0.232 F 
ATOM      4  O   UNL A   1     -22.556  -0.133  29.646  0.00  0.00    -0.474 OA
ATOM      5  C   UNL A   1     -24.496   1.314  26.934  0.00  0.00    +0.064 A 
ATOM      6  C   UNL A   1     -20.368  -0.116  28.516  0.00  0.00    +0.087 C 
ATOM      7  C   UNL A   1     -22.945   0.589  28.560  0.00  0.00    +0.157 A 
ATOM      8  F   UNL A   1     -21.088   2.051  25.616  0.00  0.00    -0.201 F 
ATOM      9  C   UNL A   1     -24.287   0.587  28.211  0.00  0.00    +0.122 A 
ATOM     10  C   UNL A   1     -21.190  -0.761  29.429  0.00  0.00    +0.209 C 
ATOM     11  C   UNL A   1     -22.067   1.919  26.529  0.00  0.00    +0.180 A 
ATOM     12  C   UNL A   1     -20.524   1.072  28.135  0.00  0.00    +0.192 C 
ENDROOT
BRANCH   5  13
ATOM     13  C   UNL A   1     -25.688   1.614  26.461  0.00  0.00    +0.043 C 
ATOM     14  C   UNL A   1     -26.250   2.920  26.395  0.00  0.00    +0.077 C 
ATOM     15  C   UNL A   1     -27.438   3.091  25.645  0.00  0.00    +0.107 C 
ATOM     16  N   UNL A   1     -28.075   2.089  25.003  0.00  0.00    -0.208 NA
ATOM     17  C   UNL A   1     -27.543   0.849  25.079  0.00  0.00    +0.253 C 
ATOM     18  C   UNL A   1     -26.354   0.576  25.777  0.00  0.00    +0.193 C 
ATOM     19  F   UNL A   1     -25.860  -0.681  25.795  0.00  0.00    -0.199 F 
BRANCH  14  20
ATOM     20  C   UNL A   1     -25.642   4.093  27.123  0.00  0.00    +0.266 C 
ATOM     21  N   UNL A   1     -25.614   5.252  26.449  0.00  0.00    -0.200 NA
ATOM     22  C   UNL A   1     -25.026   6.479  26.963  0.00  0.00    +0.139 C 
ATOM     23  O   UNL A   1     -25.143   3.966  28.243  0.00  0.00    -0.268 OA
ENDBRANCH  14  20
BRANCH  17  24
ATOM     24  O   UNL A   1     -28.193  -0.208  24.477  0.00  0.00    -0.456 OA
BRANCH  24  25
ATOM     25  C   UNL A   1     -29.460   0.005  23.866  0.00  0.00    +0.243 C 
BRANCH  25  26
ATOM     26  C   UNL A   1     -30.065  -1.377  23.573  0.00  0.00    +0.229 C 
ATOM     27  O   UNL A   1     -30.729  -1.878  24.721  0.00  0.00    -0.216 OA
ENDBRANCH  25  26
ENDBRANCH  24  25
ENDBRANCH  17  24
ENDBRANCH   5  13
BRANCH   1  28
ATOM     28  O   UNL A   1     -23.254   1.294  24.617  0.00  0.00    -0.290 OA
ATOM     29  F   UNL A   1     -23.512   2.438  24.863  0.00  0.00    +0.014 F 
ENDBRANCH   1  28
BRANCH   9  31
ATOM     30  O   UNL A   1     -26.137   0.748  29.356  0.00  0.00    -0.084 OA
ATOM     31  N   UNL A   1     -25.148  -0.078  29.088  0.00  0.00    -0.200 N 
BRANCH  31  32
ATOM     32  C   UNL A   1     -24.855  -1.012  30.143  0.00  0.00    +0.151 C 
BRANCH  32  33
ATOM     33  C   UNL A   1     -24.973  -2.505  29.788  0.00  0.00    +0.002 C 
ATOM     34  C   UNL A   1     -23.906  -3.173  29.146  0.00  0.00    -0.002 C 
ATOM     35  C   UNL A   1     -23.989  -4.549  28.853  0.00  0.00    -0.000 C 
ATOM     36  C   UNL A   1     -25.137  -5.280  29.205  0.00  0.00    -0.000 C 
ATOM     37  C   UNL A   1     -26.232  -4.611  29.784  0.00  0.00    -0.000 C 
ATOM     38  C   UNL A   1     -26.155  -3.232  30.065  0.00  0.00    -0.002 C 
ENDBRANCH  32  33
BRANCH  32  39
ATOM     39  C   UNL A   1     -25.387  -0.679  31.571  0.00  0.00    +0.100 C 
ATOM     40  C   UNL A   1     -25.189   0.773  32.028  0.00  0.00    +0.021 C 
ATOM     41  C   UNL A   1     -25.336   0.684  33.544  0.00  0.00    +0.020 C 
ATOM     42  C   UNL A   1     -24.829  -0.715  33.905  0.00  0.00    +0.089 C 
ATOM     43  N   UNL A   1     -24.758  -1.481  32.646  0.00  0.00    -0.217 NA
ENDBRANCH  32  39
ENDBRANCH  31  32
ENDBRANCH   9  31
TORSDOF 10
