REMARK  Name = outputs/IAG933/test6/raw/output_3654_IAG933_linker_design_.xyz
REMARK  9 active torsions:
REMARK  status: ('A' for Active; 'I' for Inactive)
REMARK    1  A    between atoms: C_1  and  C_2
REMARK    2  A    between atoms: C_1  and  C_8
REMARK    3  A    between atoms: C_13  and  C_33
REMARK    4  A    between atoms: C_14  and  C_15
REMARK    5  A    between atoms: C_21  and  O_22
REMARK    6  A    between atoms: O_22  and  C_23
REMARK    7  A    between atoms: C_23  and  C_24
REMARK    8  A    between atoms: N_29  and  C_39
REMARK    9  A    between atoms: C_37  and  C_39
REMARK                            x       y       z     vdW  Elec       q    Type
REMARK                         _______ _______ _______ _____ _____    ______ ____
ROOT
ATOM      1  C   UNL A   1     -24.855  -1.012  30.143  0.00  0.00    +0.091 C 
ATOM      2  O   UNL A   1     -22.239   2.119  25.131  0.00  0.00    -0.065 OA
ATOM      3  N   UNL A   1     -25.383  -0.076  29.248  0.00  0.00    -0.270 NA
ATOM      4  O   UNL A   1     -21.515   1.670  26.023  0.00  0.00    -0.191 OA
ATOM      5  C   UNL A   1     -24.112   1.568  28.311  0.00  0.00    +0.049 C 
ATOM      6  C   UNL A   1     -23.590   1.638  27.150  0.00  0.00    +0.159 C 
ATOM      7  C   UNL A   1     -25.146   1.502  27.538  0.00  0.00    +0.042 C 
ATOM      8  C   UNL A   1     -23.971   0.076  28.861  0.00  0.00    +0.065 C 
ATOM      9  C   UNL A   1     -22.220   1.338  27.176  0.00  0.00    +0.183 C 
ATOM     10  C   UNL A   1     -21.589   0.762  28.312  0.00  0.00    +0.037 C 
ATOM     11  C   UNL A   1     -22.477   0.125  29.390  0.00  0.00    +0.019 C 
ATOM     12  O   UNL A   1     -23.420   2.497  25.756  0.00  0.00    -0.194 OA
ENDROOT
BRANCH   7  13
ATOM     13  C   UNL A   1     -25.688   1.614  26.461  0.00  0.00    +0.073 C 
ATOM     14  C   UNL A   1     -26.250   2.920  26.395  0.00  0.00    +0.055 C 
ATOM     15  C   UNL A   1     -27.438   3.091  25.645  0.00  0.00    +0.102 C 
ATOM     16  N   UNL A   1     -28.075   2.089  25.003  0.00  0.00    -0.212 NA
ATOM     17  C   UNL A   1     -27.543   0.849  25.079  0.00  0.00    +0.234 C 
ATOM     18  C   UNL A   1     -26.354   0.576  25.777  0.00  0.00    +0.240 C 
ATOM     19  F   UNL A   1     -25.860  -0.681  25.795  0.00  0.00    -0.227 F 
BRANCH  14  20
ATOM     20  C   UNL A   1     -25.642   4.093  27.123  0.00  0.00    +0.262 C 
ATOM     21  N   UNL A   1     -25.614   5.252  26.449  0.00  0.00    -0.200 NA
ATOM     22  C   UNL A   1     -25.026   6.479  26.963  0.00  0.00    +0.139 C 
ATOM     23  O   UNL A   1     -25.143   3.966  28.243  0.00  0.00    -0.269 OA
ENDBRANCH  14  20
BRANCH  17  24
ATOM     24  O   UNL A   1     -28.193  -0.208  24.477  0.00  0.00    -0.459 OA
BRANCH  24  25
ATOM     25  C   UNL A   1     -29.460   0.005  23.866  0.00  0.00    +0.242 C 
BRANCH  25  26
ATOM     26  C   UNL A   1     -30.065  -1.377  23.573  0.00  0.00    +0.229 C 
ATOM     27  O   UNL A   1     -30.729  -1.878  24.721  0.00  0.00    -0.216 OA
ENDBRANCH  25  26
ENDBRANCH  24  25
ENDBRANCH  17  24
ENDBRANCH   7  13
BRANCH   1  28
ATOM     28  C   UNL A   1     -24.973  -2.505  29.788  0.00  0.00    -0.007 C 
ATOM     29  C   UNL A   1     -23.906  -3.173  29.146  0.00  0.00    -0.003 C 
ATOM     30  C   UNL A   1     -23.989  -4.549  28.853  0.00  0.00    -0.000 C 
ATOM     31  C   UNL A   1     -25.137  -5.280  29.205  0.00  0.00    -0.000 C 
ATOM     32  C   UNL A   1     -26.232  -4.611  29.784  0.00  0.00    -0.000 C 
ATOM     33  C   UNL A   1     -26.155  -3.232  30.065  0.00  0.00    -0.003 C 
ENDBRANCH   1  28
BRANCH   1  34
ATOM     34  C   UNL A   1     -25.387  -0.679  31.571  0.00  0.00    +0.091 C 
ATOM     35  C   UNL A   1     -25.189   0.773  32.028  0.00  0.00    +0.021 C 
ATOM     36  C   UNL A   1     -25.336   0.684  33.544  0.00  0.00    +0.020 C 
ATOM     37  C   UNL A   1     -24.829  -0.715  33.905  0.00  0.00    +0.089 C 
ATOM     38  N   UNL A   1     -24.758  -1.481  32.646  0.00  0.00    -0.218 NA
ENDBRANCH   1  34
BRANCH   3  39
ATOM     39  C   UNL A   1     -26.736  -0.374  28.822  0.00  0.00    +0.072 C 
BRANCH  39  41
ATOM     40  C   UNL A   1     -29.073  -0.473  29.599  0.00  0.00    +0.002 C 
ATOM     41  C   UNL A   1     -27.997   0.132  28.828  0.00  0.00    +0.017 C 
ENDBRANCH  39  41
ENDBRANCH   3  39
TORSDOF 9
