MODEL 3654
MODEL 1
REMARK VINA RESULT:    -4.954      0.000      0.000
REMARK INTER + INTRA:          -5.355
REMARK INTER:                  -5.243
REMARK INTRA:                  -0.112
REMARK UNBOUND:                -0.112
REMARK  Name = No_3654-gen_results/8p0m/2024-11-27-11-27-31/
REMARK  1 active torsions:
REMARK  status: ('A' for Active; 'I' for Inactive)
REMARK    1  A    between atoms: C_2  and  C_3
REMARK                            x       y       z     vdW  Elec       q    Type
REMARK                         _______ _______ _______ _____ _____    ______ ____
ROOT
ATOM      1  C   UNL A   1     -24.380  -2.590  29.259  0.00  0.00    +0.044 A 
ATOM      2  C   UNL A   1     -24.073  -3.989  28.878  0.00  0.00    +0.001 A 
ATOM      3  C   UNL A   1     -24.900  -5.165  29.002  0.00  0.00    -0.000 A 
ATOM      4  C   UNL A   1     -26.186  -4.877  29.576  0.00  0.00    -0.000 A 
ATOM      5  C   UNL A   1     -26.540  -3.628  29.934  0.00  0.00    -0.000 A 
ATOM      6  C   UNL A   1     -25.743  -2.556  29.738  0.00  0.00    +0.001 A 
ENDROOT
BRANCH   1   8
ATOM      7  F   UNL A   1     -22.489  -1.829  28.955  0.00  0.00    -0.193 F 
ATOM      8  C   UNL A   1     -23.603  -1.584  29.055  0.00  0.00    +0.341 C 
ATOM      9  F   UNL A   1     -24.117  -0.922  27.946  0.00  0.00    -0.193 F 
ENDBRANCH   1   8
TORSDOF 1
ENDMDL
ENDMDL
