MODEL 3655
MODEL 1
REMARK VINA RESULT:    -6.711      0.000      0.000
REMARK INTER + INTRA:          -9.034
REMARK INTER:                  -8.673
REMARK INTRA:                  -0.361
REMARK UNBOUND:                -0.361
REMARK  Name = No_3655-gen_results/8p0m/2024-11-27-11-27-31/
REMARK  5 active torsions:
REMARK  status: ('A' for Active; 'I' for Inactive)
REMARK    1  A    between atoms: C_3  and  C_8
REMARK    2  A    between atoms: N_4  and  C_11
REMARK    3  A    between atoms: C_8  and  C_10
REMARK    4  A    between atoms: C_10  and  C_12
REMARK    5  A    between atoms: C_11  and  C_18
REMARK                            x       y       z     vdW  Elec       q    Type
REMARK                         _______ _______ _______ _____ _____    ______ ____
ROOT
ATOM      1  O   UNL A   1     -25.177   0.700  28.509  0.00  0.00    -0.275 OA
ATOM      2  C   UNL A   1     -23.960   0.723  28.287  0.00  0.00    +0.226 C 
ATOM      3  C   UNL A   1     -23.085   0.225  28.545  0.00  0.00    +0.088 C 
ATOM      4  N   UNL A   1     -23.658   1.880  27.314  0.00  0.00    -0.270 N 
ATOM      5  C   UNL A   1     -21.611   0.460  28.370  0.00  0.00    +0.012 C 
ATOM      6  C   UNL A   1     -21.403   1.510  27.399  0.00  0.00    +0.022 C 
ATOM      7  C   UNL A   1     -22.445   2.224  26.965  0.00  0.00    +0.094 C 
ENDROOT
BRANCH   3   8
ATOM      8  C   UNL A   1     -23.173  -0.966  29.577  0.00  0.00    +0.070 C 
ATOM      9 BR   UNL A   1     -23.246  -0.666  30.862  0.00  0.00    -0.081 Br
BRANCH   8  10
ATOM     10  C   UNL A   1     -23.264  -2.279  28.966  0.00  0.00    +0.038 C 
BRANCH  10  11
ATOM     11  C   UNL A   1     -24.556  -2.913  29.183  0.00  0.00    -0.021 A 
ATOM     12  C   UNL A   1     -25.460  -2.479  29.583  0.00  0.00    -0.004 A 
ATOM     13  C   UNL A   1     -24.299  -4.423  28.912  0.00  0.00    -0.004 A 
ATOM     14  C   UNL A   1     -26.679  -3.338  29.992  0.00  0.00    -0.000 A 
ATOM     15  C   UNL A   1     -26.624  -4.704  29.760  0.00  0.00    -0.000 A 
ATOM     16  C   UNL A   1     -25.410  -5.157  29.287  0.00  0.00    -0.000 A 
ENDBRANCH  10  11
ENDBRANCH   8  10
ENDBRANCH   3   8
BRANCH   4  17
ATOM     17  C   UNL A   1     -24.846   2.653  26.836  0.00  0.00    +0.208 C 
BRANCH  17  18
ATOM     18  C   UNL A   1     -24.960   3.944  27.348  0.00  0.00    +0.385 C 
ATOM     19  O   UNL A   1     -25.211   4.920  26.584  0.00  0.00    -0.244 OA
ATOM     20  O   UNL A   1     -25.022   4.094  28.584  0.00  0.00    -0.244 OA
ENDBRANCH  17  18
ENDBRANCH   4  17
TORSDOF 5
ENDMDL
ENDMDL
