MODEL 3656
MODEL 1
REMARK VINA RESULT:    -4.536      0.000      0.000
REMARK INTER + INTRA:          -4.536
REMARK INTER:                  -4.536
REMARK INTRA:                   0.000
REMARK UNBOUND:                 0.000
REMARK  Name = No_3656-gen_results/8p0m/2024-11-27-11-27-31/
REMARK  0 active torsions:
REMARK  status: ('A' for Active; 'I' for Inactive)
REMARK                            x       y       z     vdW  Elec       q    Type
REMARK                         _______ _______ _______ _____ _____    ______ ____
ROOT
ATOM      1  C   UNL A   1     -24.000  -4.383  28.666  0.00  0.00    +0.030 A 
ATOM      2  C   UNL A   1     -24.889  -4.905  28.883  0.00  0.00    +0.140 A 
ATOM      3  C   UNL A   1     -24.014  -2.908  29.001  0.00  0.00    +0.002 A 
ATOM      4  C   UNL A   1     -25.118  -2.368  29.694  0.00  0.00    +0.000 A 
ATOM      5  C   UNL A   1     -26.138  -4.597  29.615  0.00  0.00    +0.030 A 
ATOM      6  C   UNL A   1     -26.185  -3.250  29.946  0.00  0.00    +0.002 A 
ATOM      7  F   UNL A   1     -24.864  -6.323  28.571  0.00  0.00    -0.204 F 
ENDROOT
TORSDOF 0
ENDMDL
ENDMDL
