MODEL 3657
MODEL 1
REMARK VINA RESULT:    -5.895      0.000      0.000
REMARK INTER + INTRA:          -7.155
REMARK INTER:                  -6.928
REMARK INTRA:                  -0.227
REMARK UNBOUND:                -0.227
REMARK  Name = No_3657-gen_results/8p0m/2024-11-27-11-27-31/
REMARK  3 active torsions:
REMARK  status: ('A' for Active; 'I' for Inactive)
REMARK    1  A    between atoms: C_3  and  C_10
REMARK    2  A    between atoms: C_5  and  C_6
REMARK    3  A    between atoms: C_11  and  C_12
REMARK                            x       y       z     vdW  Elec       q    Type
REMARK                         _______ _______ _______ _____ _____    ______ ____
ROOT
ATOM      1  C   UNL A   1     -29.811  -9.933  31.809  0.00  0.00    +0.000 A 
ATOM      2  C   UNL A   1     -29.875 -10.346  30.674  0.00  0.00    +0.000 A 
ATOM      3  C   UNL A   1     -29.084 -11.352  30.146  0.00  0.00    +0.000 A 
ATOM      4  C   UNL A   1     -28.142 -11.965  31.023  0.00  0.00    +0.007 A 
ATOM      5  C   UNL A   1     -28.200 -11.600  32.314  0.00  0.00    +0.080 A 
ATOM      6  C   UNL A   1     -28.986 -10.603  32.718  0.00  0.00    +0.007 A 
ENDROOT
BRANCH   5   7
ATOM      7  C   UNL A   1     -27.314 -12.281  33.190  0.00  0.00    +0.388 C 
ATOM      8  O   UNL A   1     -26.458 -12.915  32.783  0.00  0.00    -0.241 OA
ATOM      9  O   UNL A   1     -27.540 -12.304  34.531  0.00  0.00    -0.241 OA
ENDBRANCH   5   7
BRANCH   3  10
ATOM     10  C   UNL A   1     -29.109 -11.682  28.650  0.00  0.00    +0.002 C 
ATOM     11  C   UNL A   1     -30.017 -11.112  27.856  0.00  0.00    +0.022 C 
BRANCH  11  12
ATOM     12  C   UNL A   1     -30.022 -11.515  26.436  0.00  0.00    +0.122 C 
ATOM     13  N   UNL A   1     -29.682 -12.821  26.278  0.00  0.00    -0.146 NA
ENDBRANCH  11  12
ENDBRANCH   3  10
TORSDOF 3
ENDMDL
ENDMDL
