MODEL 3658
MODEL 1
REMARK VINA RESULT:    -4.311      0.000      0.000
REMARK INTER + INTRA:          -4.311
REMARK INTER:                  -4.311
REMARK INTRA:                   0.000
REMARK UNBOUND:                 0.000
REMARK  Name = No_3658-gen_results/8p0m/2024-11-27-11-27-31/
REMARK  0 active torsions:
REMARK  status: ('A' for Active; 'I' for Inactive)
REMARK                            x       y       z     vdW  Elec       q    Type
REMARK                         _______ _______ _______ _____ _____    ______ ____
ROOT
ATOM      1  C   UNL A   1     -24.186  -4.815  28.608  0.00  0.00    +0.000 A 
ATOM      2  C   UNL A   1     -25.054  -5.242  29.024  0.00  0.00    +0.000 A 
ATOM      3  C   UNL A   1     -24.041  -3.383  28.899  0.00  0.00    +0.000 A 
ATOM      4  C   UNL A   1     -25.008  -2.668  29.474  0.00  0.00    +0.000 A 
ATOM      5  C   UNL A   1     -26.226  -4.682  29.653  0.00  0.00    +0.000 A 
ATOM      6  C   UNL A   1     -26.083  -3.348  29.893  0.00  0.00    +0.000 A 
ENDROOT
TORSDOF 0
ENDMDL
ENDMDL
