REMARK  Name = outputs/IAG933/test6/raw/output_3659_IAG933_linker_design_.xyz
REMARK  13 active torsions:
REMARK  status: ('A' for Active; 'I' for Inactive)
REMARK    1  A    between atoms: C_1  and  C_2
REMARK    2  A    between atoms: C_1  and  C_8
REMARK    3  A    between atoms: C_9  and  C_40
REMARK    4  A    between atoms: C_13  and  C_32
REMARK    5  A    between atoms: C_14  and  C_15
REMARK    6  A    between atoms: C_21  and  O_22
REMARK    7  A    between atoms: O_22  and  C_23
REMARK    8  A    between atoms: C_23  and  C_24
REMARK    9  A    between atoms: N_29  and  C_32
REMARK   10  A    between atoms: C_32  and  N_38
REMARK   11  A    between atoms: S_37  and  N_38
REMARK   12  A    between atoms: S_37  and  C_40
REMARK   13  A    between atoms: C_40  and  C_42
REMARK                            x       y       z     vdW  Elec       q    Type
REMARK                         _______ _______ _______ _____ _____    ______ ____
ROOT
ATOM      1  C   UNL A   1     -25.138   1.073  27.772  0.00  0.00    +0.183 C 
ENDROOT
BRANCH   1   2
ATOM      2  C   UNL A   1     -25.688   1.614  26.461  0.00  0.00    +0.107 C 
ATOM      3  C   UNL A   1     -26.250   2.920  26.395  0.00  0.00    +0.058 C 
ATOM      4  C   UNL A   1     -27.438   3.091  25.645  0.00  0.00    +0.102 C 
ATOM      5  N   UNL A   1     -28.075   2.089  25.003  0.00  0.00    -0.212 NA
ATOM      6  C   UNL A   1     -27.543   0.849  25.079  0.00  0.00    +0.234 C 
ATOM      7  C   UNL A   1     -26.354   0.576  25.777  0.00  0.00    +0.243 C 
ATOM      8  F   UNL A   1     -25.860  -0.681  25.795  0.00  0.00    -0.227 F 
BRANCH   3   9
ATOM      9  C   UNL A   1     -25.642   4.093  27.123  0.00  0.00    +0.263 C 
ATOM     10  N   UNL A   1     -25.614   5.252  26.449  0.00  0.00    -0.200 NA
ATOM     11  C   UNL A   1     -25.026   6.479  26.963  0.00  0.00    +0.139 C 
ATOM     12  O   UNL A   1     -25.143   3.966  28.243  0.00  0.00    -0.269 OA
ENDBRANCH   3   9
BRANCH   6  13
ATOM     13  O   UNL A   1     -28.193  -0.208  24.477  0.00  0.00    -0.459 OA
BRANCH  13  14
ATOM     14  C   UNL A   1     -29.460   0.005  23.866  0.00  0.00    +0.242 C 
BRANCH  14  15
ATOM     15  C   UNL A   1     -30.065  -1.377  23.573  0.00  0.00    +0.229 C 
ATOM     16  O   UNL A   1     -30.729  -1.878  24.721  0.00  0.00    -0.216 OA
ENDBRANCH  14  15
ENDBRANCH  13  14
ENDBRANCH   6  13
ENDBRANCH   1   2
BRANCH   1  17
ATOM     17  N   UNL A   1     -23.767   1.397  27.433  0.00  0.00    -0.268 N 
ATOM     18  F   UNL A   1     -20.384   1.640  27.914  0.00  0.00    -0.203 F 
ATOM     19  C   UNL A   1     -22.002   2.045  26.156  0.00  0.00    +0.047 C 
ATOM     20  C   UNL A   1     -22.778   1.449  28.403  0.00  0.00    +0.097 C 
ATOM     21  C   UNL A   1     -23.329   1.663  26.017  0.00  0.00    +0.069 C 
ATOM     22  C   UNL A   1     -21.663   1.883  27.571  0.00  0.00    +0.156 C 
ENDBRANCH   1  17
BRANCH   1  23
ATOM     23  N   UNL A   1     -25.701   1.161  29.000  0.00  0.00    -0.062 NA
BRANCH  23  26
ATOM     24  O   UNL A   1     -27.672   2.592  29.803  0.00  0.00    -0.156 OA
ATOM     25  O   UNL A   1     -27.602   0.212  30.372  0.00  0.00    -0.156 OA
ATOM     26  S   UNL A   1     -26.862   1.461  30.180  0.00  0.00    +0.060 S 
BRANCH  26  27
ATOM     27  C   UNL A   1     -25.880   1.938  31.468  0.00  0.00    +0.179 C 
BRANCH  27  29
ATOM     28  C   UNL A   1     -25.387  -0.679  31.571  0.00  0.00    +0.079 C 
ATOM     29  C   UNL A   1     -25.189   0.773  32.028  0.00  0.00    +0.044 C 
ATOM     30  C   UNL A   1     -25.336   0.684  33.544  0.00  0.00    +0.022 C 
ATOM     31  C   UNL A   1     -24.829  -0.715  33.905  0.00  0.00    +0.089 C 
ATOM     32  N   UNL A   1     -24.758  -1.481  32.646  0.00  0.00    -0.219 NA
BRANCH  28  33
ATOM     33  C   UNL A   1     -24.855  -1.012  30.143  0.00  0.00    +0.044 C 
BRANCH  33  34
ATOM     34  C   UNL A   1     -24.973  -2.505  29.788  0.00  0.00    -0.021 C 
ATOM     35  C   UNL A   1     -23.906  -3.173  29.146  0.00  0.00    -0.004 C 
ATOM     36  C   UNL A   1     -23.989  -4.549  28.853  0.00  0.00    -0.000 C 
ATOM     37  C   UNL A   1     -25.137  -5.280  29.205  0.00  0.00    -0.000 C 
ATOM     38  C   UNL A   1     -26.232  -4.611  29.784  0.00  0.00    -0.000 C 
ATOM     39  C   UNL A   1     -26.155  -3.232  30.065  0.00  0.00    -0.004 C 
ENDBRANCH  33  34
ENDBRANCH  28  33
ENDBRANCH  27  29
BRANCH  27  42
ATOM     40  O   UNL A   1     -23.986   3.245  31.392  0.00  0.00    -0.221 OA
ATOM     41  C   UNL A   1     -25.958   4.493  31.755  0.00  0.00    +0.037 C 
ATOM     42  C   UNL A   1     -25.270   3.173  31.480  0.00  0.00    +0.175 C 
ENDBRANCH  27  42
ENDBRANCH  26  27
ENDBRANCH  23  26
ENDBRANCH   1  23
TORSDOF 13
