MODEL 3659
MODEL 1
REMARK VINA RESULT:    -6.912      0.000      0.000
REMARK INTER + INTRA:          -8.436
REMARK INTER:                  -7.720
REMARK INTRA:                  -0.715
REMARK UNBOUND:                -0.715
REMARK  Name = No_3659-gen_results/8p0m/2024-11-27-11-27-31/
REMARK  2 active torsions:
REMARK  status: ('A' for Active; 'I' for Inactive)
REMARK    1  A    between atoms: C_3  and  C_4
REMARK    2  A    between atoms: C_11  and  C_13
REMARK                            x       y       z     vdW  Elec       q    Type
REMARK                         _______ _______ _______ _____ _____    ______ ____
ROOT
ATOM      1  C   UNL A   1     -24.455  -1.257  29.293  0.00  0.00    +0.045 C 
ATOM      2  C   UNL A   1     -23.092  -0.943  29.352  0.00  0.00    -0.022 C 
ATOM      3  C   UNL A   1     -22.596   0.160  28.837  0.00  0.00    -0.004 C 
ATOM      4  C   UNL A   1     -23.065   0.751  27.757  0.00  0.00    +0.002 C 
ATOM      5  C   UNL A   1     -24.259   0.281  27.137  0.00  0.00    +0.058 C 
ATOM      6  C   UNL A   1     -25.304  -0.160  29.391  0.00  0.00    +0.014 C 
ATOM      7  C   UNL A   1     -25.405  -0.067  27.812  0.00  0.00    +0.034 C 
ENDROOT
BRANCH   1  10
ATOM      8  C   UNL A   1     -26.134  -3.216  29.755  0.00  0.00    -0.004 A 
ATOM      9  C   UNL A   1     -26.216  -4.267  29.747  0.00  0.00    -0.000 A 
ATOM     10  C   UNL A   1     -24.872  -2.650  29.252  0.00  0.00    -0.018 A 
ATOM     11  C   UNL A   1     -25.371  -5.315  29.126  0.00  0.00    -0.000 A 
ATOM     12  C   UNL A   1     -24.159  -4.858  28.620  0.00  0.00    -0.000 A 
ATOM     13  C   UNL A   1     -23.859  -3.512  28.632  0.00  0.00    -0.004 A 
ENDBRANCH   1  10
BRANCH   5  14
ATOM     14  C   UNL A   1     -24.526   0.695  25.713  0.00  0.00    +0.384 C 
ATOM     15  O   UNL A   1     -23.832   1.606  25.242  0.00  0.00    -0.241 OA
ATOM     16  O   UNL A   1     -25.287  -0.027  24.974  0.00  0.00    -0.241 OA
ENDBRANCH   5  14
TORSDOF 2
ENDMDL
ENDMDL
