MODEL 365
MODEL 1
REMARK VINA RESULT:    -6.999      0.000      0.000
REMARK INTER + INTRA:         -10.157
REMARK INTER:                  -9.045
REMARK INTRA:                  -1.112
REMARK UNBOUND:                -1.112
REMARK  Name = No_365-gen_results/8p0m/2024-11-27-11-27-31/
REMARK  5 active torsions:
REMARK  status: ('A' for Active; 'I' for Inactive)
REMARK    1  A    between atoms: C_3  and  C_7
REMARK    2  A    between atoms: C_7  and  C_15
REMARK    3  A    between atoms: C_8  and  C_9
REMARK    4  A    between atoms: C_15  and  N_16
REMARK    5  A    between atoms: N_16  and  C_17
REMARK                            x       y       z     vdW  Elec       q    Type
REMARK                         _______ _______ _______ _____ _____    ______ ____
ROOT
ATOM      1  C   UNL A   1     -24.335  -0.188  29.455  0.00  0.00    -0.001 C 
ATOM      2  C   UNL A   1     -24.658  -1.016  28.630  0.00  0.00    -0.003 C 
ENDROOT
BRANCH   1   5
ATOM      3  C   UNL A   1     -22.972  -1.057  31.443  0.00  0.00    -0.000 A 
ATOM      4  C   UNL A   1     -22.934  -1.233  32.482  0.00  0.00    -0.000 A 
ATOM      5  C   UNL A   1     -24.164  -0.519  30.910  0.00  0.00    -0.002 A 
ATOM      6  C   UNL A   1     -25.258  -0.237  31.704  0.00  0.00    -0.000 A 
ATOM      7  C   UNL A   1     -23.943  -1.022  33.538  0.00  0.00    -0.000 A 
ATOM      8  C   UNL A   1     -25.101  -0.508  33.069  0.00  0.00    -0.000 A 
ENDBRANCH   1   5
BRANCH   2   9
ATOM      9  C   UNL A   1     -24.944  -2.369  28.992  0.00  0.00    -0.000 A 
ATOM     10  C   UNL A   1     -23.989  -3.389  28.545  0.00  0.00    -0.000 A 
ATOM     11  C   UNL A   1     -24.259  -4.725  28.831  0.00  0.00    -0.000 A 
ATOM     12  C   UNL A   1     -25.475  -5.095  29.417  0.00  0.00    -0.000 A 
ATOM     13  C   UNL A   1     -26.385  -4.106  29.762  0.00  0.00    -0.000 A 
ATOM     14  C   UNL A   1     -26.165  -2.820  29.516  0.00  0.00    -0.000 A 
ENDBRANCH   2   9
BRANCH   1  15
ATOM     15  C   UNL A   1     -23.959   1.200  29.216  0.00  0.00    +0.138 C 
BRANCH  15  16
ATOM     16  N   UNL A   1     -23.976   1.787  28.108  0.00  0.00    -0.237 NA
BRANCH  16  17
ATOM     17  C   UNL A   1     -22.981   1.975  27.208  0.00  0.00    +0.044 C 
ATOM     18  C   UNL A   1     -23.285   2.386  25.937  0.00  0.00    +0.013 C 
ATOM     19  C   UNL A   1     -21.642   1.640  27.557  0.00  0.00    +0.049 C 
ENDBRANCH  16  17
ENDBRANCH  15  16
ENDBRANCH   1  15
TORSDOF 5
ENDMDL
ENDMDL
