REMARK  Name = outputs/IAG933/test6/raw/output_366_IAG933_linker_design_.xyz
REMARK  14 active torsions:
REMARK  status: ('A' for Active; 'I' for Inactive)
REMARK    1  A    between atoms: C_1  and  C_2
REMARK    2  A    between atoms: C_1  and  C_8
REMARK    3  A    between atoms: C_9  and  C_35
REMARK    4  A    between atoms: C_13  and  N_36
REMARK    5  A    between atoms: C_14  and  C_15
REMARK    6  A    between atoms: C_21  and  O_22
REMARK    7  A    between atoms: O_22  and  C_23
REMARK    8  A    between atoms: C_23  and  C_24
REMARK    9  A    between atoms: C_30  and  N_36
REMARK   10  A    between atoms: O_32  and  C_35
REMARK   11  A    between atoms: O_32  and  C_41
REMARK   12  A    between atoms: C_33  and  C_39
REMARK   13  A    between atoms: C_34  and  C_41
REMARK   14  A    between atoms: C_35  and  C_39
REMARK                            x       y       z     vdW  Elec       q    Type
REMARK                         _______ _______ _______ _____ _____    ______ ____
ROOT
ATOM      1  C   UNL A   1     -23.382   1.493  26.953  0.00  0.00    +0.102 C 
ATOM      2  C   UNL A   1     -22.653   2.818  24.812  0.00  0.00    +0.074 C 
ATOM      3  C   UNL A   1     -22.828   1.171  28.036  0.00  0.00    +0.063 C 
ATOM      4  C   UNL A   1     -21.407   1.328  27.792  0.00  0.00    +0.179 C 
ATOM      5  C   UNL A   1     -22.390   2.093  26.087  0.00  0.00    +0.138 C 
ATOM      6  O   UNL A   1     -21.174   1.962  26.570  0.00  0.00    -0.454 OA
ENDROOT
BRANCH   1   7
ATOM      7  N   UNL A   1     -24.634   1.239  27.000  0.00  0.00    -0.207 NA
BRANCH   7   8
ATOM      8  C   UNL A   1     -25.688   1.614  26.461  0.00  0.00    +0.108 C 
ATOM      9  C   UNL A   1     -26.250   2.920  26.395  0.00  0.00    +0.092 C 
ATOM     10  C   UNL A   1     -27.438   3.091  25.645  0.00  0.00    +0.108 C 
ATOM     11  N   UNL A   1     -28.075   2.089  25.003  0.00  0.00    -0.208 NA
ATOM     12  C   UNL A   1     -27.543   0.849  25.079  0.00  0.00    +0.255 C 
ATOM     13  C   UNL A   1     -26.354   0.576  25.777  0.00  0.00    +0.208 C 
ATOM     14  F   UNL A   1     -25.860  -0.681  25.795  0.00  0.00    -0.198 F 
BRANCH   9  15
ATOM     15  C   UNL A   1     -25.642   4.093  27.123  0.00  0.00    +0.268 C 
ATOM     16  N   UNL A   1     -25.614   5.252  26.449  0.00  0.00    -0.200 NA
ATOM     17  C   UNL A   1     -25.026   6.479  26.963  0.00  0.00    +0.139 C 
ATOM     18  O   UNL A   1     -25.143   3.966  28.243  0.00  0.00    -0.268 OA
ENDBRANCH   9  15
BRANCH  12  19
ATOM     19  O   UNL A   1     -28.193  -0.208  24.477  0.00  0.00    -0.456 OA
BRANCH  19  20
ATOM     20  C   UNL A   1     -29.460   0.005  23.866  0.00  0.00    +0.243 C 
BRANCH  20  21
ATOM     21  C   UNL A   1     -30.065  -1.377  23.573  0.00  0.00    +0.229 C 
ATOM     22  O   UNL A   1     -30.729  -1.878  24.721  0.00  0.00    -0.216 OA
ENDBRANCH  20  21
ENDBRANCH  19  20
ENDBRANCH  12  19
ENDBRANCH   7   8
ENDBRANCH   1   7
BRANCH   3  23
ATOM     23  C   UNL A   1     -23.394   1.172  29.152  0.00  0.00    +0.173 C 
BRANCH  23  24
ATOM     24  O   UNL A   1     -23.291   1.233  30.446  0.00  0.00    -0.351 OA
BRANCH  24  25
ATOM     25  C   UNL A   1     -24.178   1.574  31.573  0.00  0.00    +0.120 C 
BRANCH  25  27
ATOM     26  C   UNL A   1     -25.387  -0.679  31.571  0.00  0.00    +0.080 C 
ATOM     27  C   UNL A   1     -25.189   0.773  32.028  0.00  0.00    +0.045 C 
ATOM     28  C   UNL A   1     -25.336   0.684  33.544  0.00  0.00    +0.023 C 
ATOM     29  C   UNL A   1     -24.829  -0.715  33.905  0.00  0.00    +0.089 C 
ATOM     30  N   UNL A   1     -24.758  -1.481  32.646  0.00  0.00    -0.219 NA
BRANCH  26  31
ATOM     31  C   UNL A   1     -24.855  -1.012  30.143  0.00  0.00    +0.044 C 
BRANCH  31  32
ATOM     32  C   UNL A   1     -24.973  -2.505  29.788  0.00  0.00    -0.021 C 
ATOM     33  C   UNL A   1     -23.906  -3.173  29.146  0.00  0.00    -0.004 C 
ATOM     34  C   UNL A   1     -23.989  -4.549  28.853  0.00  0.00    -0.000 C 
ATOM     35  C   UNL A   1     -25.137  -5.280  29.205  0.00  0.00    -0.000 C 
ATOM     36  C   UNL A   1     -26.232  -4.611  29.784  0.00  0.00    -0.000 C 
ATOM     37  C   UNL A   1     -26.155  -3.232  30.065  0.00  0.00    -0.004 C 
ENDBRANCH  31  32
ENDBRANCH  26  31
ENDBRANCH  25  27
BRANCH  25  38
ATOM     38  C   UNL A   1     -24.689   2.832  31.148  0.00  0.00    +0.070 C 
BRANCH  38  41
ATOM     39  C   UNL A   1     -25.736   5.768  33.180  0.00  0.00    +0.080 C 
ATOM     40  C   UNL A   1     -24.399   5.472  33.513  0.00  0.00    +0.154 C 
ATOM     41  C   UNL A   1     -24.883   3.806  32.099  0.00  0.00    +0.165 C 
ATOM     42  S   UNL A   1     -26.441   4.375  32.534  0.00  0.00    -0.110 S 
ATOM     43  C   UNL A   1     -26.404   7.078  33.038  0.00  0.00    +0.014 C 
ATOM     44  O   UNL A   1     -23.934   4.286  32.923  0.00  0.00    -0.344 OA
ENDBRANCH  38  41
ENDBRANCH  25  38
ENDBRANCH  24  25
ENDBRANCH  23  24
ENDBRANCH   3  23
TORSDOF 14
