MODEL 3660
MODEL 1
REMARK VINA RESULT:    -3.940      0.000      0.000
REMARK INTER + INTRA:          -4.170
REMARK INTER:                  -4.170
REMARK INTRA:                   0.000
REMARK UNBOUND:                 0.000
REMARK  Name = No_3660-gen_results/8p0m/2024-11-27-11-27-31/
REMARK  1 active torsions:
REMARK  status: ('A' for Active; 'I' for Inactive)
REMARK    1  A    between atoms: C_2  and  C_4
REMARK                            x       y       z     vdW  Elec       q    Type
REMARK                         _______ _______ _______ _____ _____    ______ ____
ROOT
ATOM      1 CL   UNL A   1      -9.976  -9.512  18.943  0.00  0.00    -0.071 Cl
ATOM      2  C   UNL A   1      -9.320  -9.394  19.966  0.00  0.00    +0.306 C 
ATOM      3  F   UNL A   1      -9.966  -9.314  21.072  0.00  0.00    -0.213 F 
ENDROOT
BRANCH   2   4
ATOM      4  C   UNL A   1      -7.903  -9.367  20.061  0.00  0.00    +0.366 C 
ATOM      5  F   UNL A   1      -7.438  -9.984  20.860  0.00  0.00    -0.194 F 
ATOM      6  F   UNL A   1      -7.445  -8.160  19.968  0.00  0.00    -0.194 F 
ENDBRANCH   2   4
TORSDOF 1
ENDMDL
ENDMDL
