MODEL 3661
MODEL 1
REMARK VINA RESULT:    -6.820      0.000      0.000
REMARK INTER + INTRA:          -4.411
REMARK INTER:                  -7.418
REMARK INTRA:                   3.007
REMARK UNBOUND:                 3.007
REMARK  Name = No_3661-gen_results/8p0m/2024-11-27-11-27-31/
REMARK  4 active torsions:
REMARK  status: ('A' for Active; 'I' for Inactive)
REMARK    1  A    between atoms: C_3  and  C_15
REMARK    2  A    between atoms: C_4  and  C_7
REMARK    3  A    between atoms: C_15  and  O_17
REMARK    4  A    between atoms: O_17  and  C_18
REMARK                            x       y       z     vdW  Elec       q    Type
REMARK                         _______ _______ _______ _____ _____    ______ ____
ROOT
ATOM      1  C   UNL A   1     -24.257   1.581  25.805  0.00  0.00    -0.022 C 
ATOM      2  C   UNL A   1     -23.371   2.064  25.501  0.00  0.00    -0.005 C 
ATOM      3  C   UNL A   1     -24.166   0.732  27.003  0.00  0.00    +0.069 C 
ATOM      4  C   UNL A   1     -22.968   0.694  27.776  0.00  0.00    +0.094 C 
ATOM      5  C   UNL A   1     -21.914   1.424  27.288  0.00  0.00    -0.011 C 
ATOM      6  C   UNL A   1     -22.045   2.167  26.168  0.00  0.00    -0.004 C 
ATOM      7 CL   UNL A   1     -23.141   1.218  28.621  0.00  0.00    -0.111 Cl
ENDROOT
BRANCH   4   8
ATOM      8  C   UNL A   1     -22.866  -0.118  28.962  0.00  0.00    +0.045 C 
ATOM      9  C   UNL A   1     -23.549  -1.351  28.911  0.00  0.00    +0.004 C 
ATOM     10  C   UNL A   1     -24.013  -1.975  30.098  0.00  0.00    +0.000 C 
ATOM     11  C   UNL A   1     -23.579  -1.370  31.325  0.00  0.00    +0.003 C 
ATOM     12  C   UNL A   1     -23.310   0.574  30.257  0.00  0.00    +0.153 C 
ATOM     13  C   UNL A   1     -23.256  -0.147  31.423  0.00  0.00    +0.033 C 
ATOM     14  C   UNL A   1     -21.315  -0.474  29.169  0.00  0.00    +0.004 C 
ATOM     15  O   UNL A   1     -23.637   1.725  30.339  0.00  0.00    -0.223 OA
ENDBRANCH   4   8
BRANCH   3  16
ATOM     16  C   UNL A   1     -25.229  -0.287  27.214  0.00  0.00    +0.148 C 
BRANCH  16  17
ATOM     17  O   UNL A   1     -25.146   0.254  27.138  0.00  0.00    -0.356 OA
BRANCH  17  18
ATOM     18  C   UNL A   1     -26.301   1.320  27.315  0.00  0.00    +0.115 C 
ATOM     19  C   UNL A   1     -27.386   0.893  26.605  0.00  0.00    +0.032 C 
ATOM     20  C   UNL A   1     -26.429   2.125  28.308  0.00  0.00    +0.032 C 
ENDBRANCH  17  18
ENDBRANCH  16  17
ENDBRANCH   3  16
TORSDOF 4
ENDMDL
ENDMDL
