REMARK  Name = No_3661-gen_results/8p0m/2024-11-27-11-27-31/
REMARK  4 active torsions:
REMARK  status: ('A' for Active; 'I' for Inactive)
REMARK    1  A    between atoms: C_3  and  C_15
REMARK    2  A    between atoms: C_4  and  C_7
REMARK    3  A    between atoms: C_15  and  O_17
REMARK    4  A    between atoms: O_17  and  C_18
REMARK                            x       y       z     vdW  Elec       q    Type
REMARK                         _______ _______ _______ _____ _____    ______ ____
ROOT
ATOM      1  C   UNL A   1     -28.016  -0.814  28.878  0.00  0.00    -0.022 C 
ATOM      2  C   UNL A   1     -28.469  -0.785  29.829  0.00  0.00    -0.005 C 
ATOM      3  C   UNL A   1     -26.546  -0.876  28.850  0.00  0.00    +0.069 C 
ATOM      4  C   UNL A   1     -25.804  -1.032  30.057  0.00  0.00    +0.094 C 
ATOM      5  C   UNL A   1     -26.537  -1.039  31.217  0.00  0.00    -0.011 C 
ATOM      6  C   UNL A   1     -27.884  -0.953  31.186  0.00  0.00    -0.004 C 
ATOM      7 CL   UNL A   1     -25.469  -1.984  30.081  0.00  0.00    -0.111 Cl
ENDROOT
BRANCH   4   8
ATOM      8  C   UNL A   1     -24.366  -1.113  30.048  0.00  0.00    +0.045 C 
ATOM      9  C   UNL A   1     -23.692   0.119  29.919  0.00  0.00    +0.004 C 
ATOM     10  C   UNL A   1     -22.394   0.182  29.348  0.00  0.00    +0.000 C 
ATOM     11  C   UNL A   1     -21.766  -1.084  29.100  0.00  0.00    +0.003 C 
ATOM     12  C   UNL A   1     -23.779  -2.046  28.981  0.00  0.00    +0.153 C 
ATOM     13  C   UNL A   1     -22.413  -2.157  28.904  0.00  0.00    +0.033 C 
ATOM     14  C   UNL A   1     -23.910  -1.726  31.460  0.00  0.00    +0.004 C 
ATOM     15  O   UNL A   1     -24.427  -2.742  28.251  0.00  0.00    -0.223 OA
ENDBRANCH   4   8
BRANCH   3  16
ATOM     16  C   UNL A   1     -25.859  -0.484  27.590  0.00  0.00    +0.148 C 
BRANCH  16  17
ATOM     17  O   UNL A   1     -26.245  -0.321  27.950  0.00  0.00    -0.356 OA
BRANCH  17  18
ATOM     18  C   UNL A   1     -27.226   0.884  27.653  0.00  0.00    +0.115 C 
ATOM     19  C   UNL A   1     -26.541   2.048  27.852  0.00  0.00    +0.032 C 
ATOM     20  C   UNL A   1     -28.254   0.838  26.885  0.00  0.00    +0.032 C 
ENDBRANCH  17  18
ENDBRANCH  16  17
ENDBRANCH   3  16
TORSDOF 4
