MODEL 3662
MODEL 1
REMARK VINA RESULT:    -7.833      0.000      0.000
REMARK INTER + INTRA:         -13.091
REMARK INTER:                 -11.496
REMARK INTRA:                  -1.595
REMARK UNBOUND:                -1.595
REMARK  Name = No_3662-gen_results/8p0m/2024-11-27-11-27-31/
REMARK  8 active torsions:
REMARK  status: ('A' for Active; 'I' for Inactive)
REMARK    1  A    between atoms: C_2  and  C_3
REMARK    2  A    between atoms: C_2  and  C_10
REMARK    3  A    between atoms: C_5  and  C_26
REMARK    4  A    between atoms: C_7  and  C_8
REMARK    5  A    between atoms: C_16  and  O_32
REMARK    6  A    between atoms: C_18  and  C_19
REMARK    7  A    between atoms: C_26  and  C_28
REMARK    8  A    between atoms: O_32  and  C_33
REMARK                            x       y       z     vdW  Elec       q    Type
REMARK                         _______ _______ _______ _____ _____    ______ ____
ROOT
ATOM      1  C   UNL A   1      -9.439   3.877  36.239  0.00  0.00    +0.245 C 
ATOM      2  N   UNL A   1      -8.974   2.977  36.508  0.00  0.00    -0.274 N 
ATOM      3  O   UNL A   1      -8.758   4.465  35.113  0.00  0.00    -0.273 OA
ATOM      4  C   UNL A   1      -7.752   2.184  36.204  0.00  0.00    +0.098 C 
ATOM      5  C   UNL A   1      -9.634   2.231  37.766  0.00  0.00    +0.137 C 
ATOM      6  C   UNL A   1      -9.912   0.900  37.598  0.00  0.00    +0.186 C 
ATOM      7  C   UNL A   1      -8.758   0.027  37.247  0.00  0.00    +0.051 C 
ATOM      8  C   UNL A   1      -7.888   0.666  36.202  0.00  0.00    +0.046 C 
ENDROOT
BRANCH   8   9
ATOM      9  C   UNL A   1      -6.904  -0.150  35.512  0.00  0.00    -0.021 A 
ATOM     10  C   UNL A   1      -7.187  -1.124  34.854  0.00  0.00    -0.003 A 
ATOM     11  C   UNL A   1      -6.157  -1.982  34.254  0.00  0.00    +0.011 A 
ATOM     12  C   UNL A   1      -5.504   0.270  35.690  0.00  0.00    -0.003 A 
ATOM     13  C   UNL A   1      -4.481  -0.506  35.164  0.00  0.00    +0.011 A 
ATOM     14  C   UNL A   1      -4.805  -1.624  34.414  0.00  0.00    +0.058 A 
ATOM     15 CL   UNL A   1      -3.566  -2.600  33.729  0.00  0.00    -0.082 Cl
ENDBRANCH   8   9
BRANCH   1  17
ATOM     16 CL   UNL A   1     -10.645   5.928  37.101  0.00  0.00    -0.100 Cl
ATOM     17  C   UNL A   1     -10.642   4.712  36.489  0.00  0.00    +0.178 C 
BRANCH  17  18
ATOM     18  C   UNL A   1     -11.731   4.174  36.043  0.00  0.00    +0.001 A 
ATOM     19  C   UNL A   1     -12.882   4.019  36.948  0.00  0.00    -0.007 A 
ATOM     20  C   UNL A   1     -14.017   3.221  36.798  0.00  0.00    -0.014 A 
ATOM     21  C   UNL A   1     -14.124   2.575  35.522  0.00  0.00    +0.003 A 
ATOM     22  C   UNL A   1     -13.178   2.696  34.511  0.00  0.00    +0.079 A 
ATOM     23  C   UNL A   1     -11.986   3.456  34.814  0.00  0.00    +0.004 A 
BRANCH  22  24
ATOM     24  C   UNL A   1     -13.293   2.025  33.238  0.00  0.00    +0.388 C 
ATOM     25  O   UNL A   1     -14.075   2.566  32.451  0.00  0.00    -0.241 OA
ATOM     26  O   UNL A   1     -12.492   1.133  32.912  0.00  0.00    -0.241 OA
ENDBRANCH  22  24
BRANCH  20  27
ATOM     27  C   UNL A   1     -15.017   3.180  37.703  0.00  0.00    +0.130 C 
BRANCH  27  28
ATOM     28  C   UNL A   1     -16.158   4.082  37.426  0.00  0.00    +0.402 C 
ATOM     29  F   UNL A   1     -17.097   3.865  38.064  0.00  0.00    -0.170 F 
ATOM     30  F   UNL A   1     -15.733   5.382  37.493  0.00  0.00    -0.170 F 
ATOM     31  F   UNL A   1     -16.738   3.957  36.206  0.00  0.00    -0.170 F 
ENDBRANCH  27  28
ENDBRANCH  20  27
ENDBRANCH  17  18
ENDBRANCH   1  17
BRANCH   6  32
ATOM     32  O   UNL A   1     -10.496   0.320  38.791  0.00  0.00    -0.475 OA
BRANCH  32  33
ATOM     33  C   UNL A   1     -11.101  -0.914  38.506  0.00  0.00    +0.168 C 
ATOM     34  C   UNL A   1     -11.622  -1.630  39.109  0.00  0.00    +0.014 C 
ATOM     35  C   UNL A   1     -12.344  -2.814  38.639  0.00  0.00    +0.034 C 
ENDBRANCH  32  33
ENDBRANCH   6  32
TORSDOF 8
ENDMDL
ENDMDL
