MODEL 3663
MODEL 1
REMARK VINA RESULT:    -5.927      0.000      0.000
REMARK INTER + INTRA:          -6.909
REMARK INTER:                  -6.621
REMARK INTRA:                  -0.288
REMARK UNBOUND:                -0.288
REMARK  Name = No_3663-gen_results/8p0m/2024-11-27-11-27-31/
REMARK  2 active torsions:
REMARK  status: ('A' for Active; 'I' for Inactive)
REMARK    1  A    between atoms: C_2  and  C_11
REMARK    2  A    between atoms: C_3  and  C_7
REMARK                            x       y       z     vdW  Elec       q    Type
REMARK                         _______ _______ _______ _____ _____    ______ ____
ROOT
ATOM      1  C   UNL A   1     -28.361 -11.974  31.136  0.00  0.00    +0.010 A 
ATOM      2  C   UNL A   1     -28.274 -11.641  32.132  0.00  0.00    +0.080 A 
ATOM      3  C   UNL A   1     -29.285 -11.175  30.331  0.00  0.00    +0.072 A 
ATOM      4  C   UNL A   1     -29.947 -10.087  30.844  0.00  0.00    +0.004 A 
ATOM      5  C   UNL A   1     -28.832 -10.550  32.931  0.00  0.00    +0.007 A 
ATOM      6  C   UNL A   1     -29.728  -9.771  32.160  0.00  0.00    +0.000 A 
ENDROOT
BRANCH   3   7
ATOM      7  C   UNL A   1     -29.511 -11.465  28.885  0.00  0.00    +0.419 C 
ATOM      8  F   UNL A   1     -28.531 -11.699  28.334  0.00  0.00    -0.166 F 
ATOM      9  F   UNL A   1     -30.083 -10.371  28.231  0.00  0.00    -0.166 F 
ATOM     10  F   UNL A   1     -30.470 -12.470  28.746  0.00  0.00    -0.166 F 
ENDBRANCH   3   7
BRANCH   2  11
ATOM     11  C   UNL A   1     -27.196 -12.399  33.095  0.00  0.00    +0.388 C 
ATOM     12  O   UNL A   1     -26.342 -12.847  32.537  0.00  0.00    -0.241 OA
ATOM     13  O   UNL A   1     -27.178 -12.079  34.420  0.00  0.00    -0.241 OA
ENDBRANCH   2  11
TORSDOF 2
ENDMDL
ENDMDL
