MODEL 3664
MODEL 1
REMARK VINA RESULT:    -8.362      0.000      0.000
REMARK INTER + INTRA:         -11.907
REMARK INTER:                 -10.807
REMARK INTRA:                  -1.100
REMARK UNBOUND:                -1.100
REMARK  Name = No_3664-gen_results/8p0m/2024-11-27-11-27-31/
REMARK  5 active torsions:
REMARK  status: ('A' for Active; 'I' for Inactive)
REMARK    1  A    between atoms: C_6  and  O_17
REMARK    2  A    between atoms: C_9  and  C_11
REMARK    3  A    between atoms: O_17  and  C_18
REMARK    4  A    between atoms: C_18  and  C_19
REMARK    5  A    between atoms: C_19  and  C_20
REMARK                            x       y       z     vdW  Elec       q    Type
REMARK                         _______ _______ _______ _____ _____    ______ ____
ROOT
ATOM      1  C   UNL A   1     -25.220   1.014  27.076  0.00  0.00    +0.034 A 
ATOM      2  C   UNL A   1     -24.091   1.265  27.431  0.00  0.00    +0.003 A 
ATOM      3  C   UNL A   1     -23.531   2.518  27.211  0.00  0.00    +0.000 A 
ATOM      4  C   UNL A   1     -24.261   3.543  26.510  0.00  0.00    +0.003 A 
ATOM      5  C   UNL A   1     -25.549   3.161  26.114  0.00  0.00    +0.037 A 
ATOM      6  C   UNL A   1     -26.026   1.956  26.332  0.00  0.00    +0.139 A 
ATOM      7  C   UNL A   1     -23.186   0.322  28.142  0.00  0.00    +0.000 A 
ATOM      8  C   UNL A   1     -23.333  -0.620  28.510  0.00  0.00    +0.000 A 
ATOM      9  C   UNL A   1     -24.699  -1.266  28.270  0.00  0.00    +0.000 A 
ATOM     10  C   UNL A   1     -25.621  -0.789  27.496  0.00  0.00    +0.003 A 
ENDROOT
BRANCH   9  11
ATOM     11  C   UNL A   1     -24.990  -2.668  28.710  0.00  0.00    +0.000 A 
ATOM     12  C   UNL A   1     -25.973  -2.896  29.353  0.00  0.00    +0.000 A 
ATOM     13  C   UNL A   1     -26.283  -4.185  29.778  0.00  0.00    +0.000 A 
ATOM     14  C   UNL A   1     -25.333  -5.231  29.416  0.00  0.00    +0.000 A 
ATOM     15  C   UNL A   1     -24.202  -4.963  28.701  0.00  0.00    +0.000 A 
ATOM     16  C   UNL A   1     -23.992  -3.676  28.257  0.00  0.00    +0.000 A 
ENDBRANCH   9  11
BRANCH   6  17
ATOM     17  O   UNL A   1     -27.247   1.695  25.828  0.00  0.00    -0.475 OA
BRANCH  17  18
ATOM     18  C   UNL A   1     -27.559   2.242  24.606  0.00  0.00    +0.210 C 
BRANCH  18  19
ATOM     19  C   UNL A   1     -27.817   1.269  23.610  0.00  0.00    +0.074 C 
BRANCH  19  20
ATOM     20  C   UNL A   1     -28.816   0.523  23.651  0.00  0.00    -0.018 A 
ATOM     21  C   UNL A   1     -30.127   1.100  23.417  0.00  0.00    -0.004 A 
ATOM     22  C   UNL A   1     -31.276   0.304  23.305  0.00  0.00    -0.000 A 
ATOM     23  C   UNL A   1     -31.136  -1.086  23.457  0.00  0.00    -0.000 A 
ATOM     24  C   UNL A   1     -29.927  -1.676  23.665  0.00  0.00    -0.000 A 
ATOM     25  C   UNL A   1     -28.846  -0.887  23.665  0.00  0.00    -0.004 A 
ENDBRANCH  19  20
ENDBRANCH  18  19
ENDBRANCH  17  18
ENDBRANCH   6  17
TORSDOF 5
ENDMDL
ENDMDL
