MODEL 3665
MODEL 1
REMARK VINA RESULT:    -6.408      0.000      0.000
REMARK INTER + INTRA:         -14.955
REMARK INTER:                 -10.529
REMARK INTRA:                  -4.426
REMARK UNBOUND:                -4.426
REMARK  Name = No_3665-gen_results/8p0m/2024-11-27-11-27-31/
REMARK  11 active torsions:
REMARK  status: ('A' for Active; 'I' for Inactive)
REMARK    1  A    between atoms: C_1  and  C_11
REMARK    2  A    between atoms: C_3  and  C_29
REMARK    3  A    between atoms: C_5  and  C_7
REMARK    4  A    between atoms: C_11  and  O_13
REMARK    5  A    between atoms: O_13  and  C_14
REMARK    6  A    between atoms: C_18  and  C_19
REMARK    7  A    between atoms: C_19  and  C_21
REMARK    8  A    between atoms: C_21  and  C_22
REMARK    9  A    between atoms: C_29  and  C_30
REMARK   10  A    between atoms: C_30  and  N_33
REMARK   11  A    between atoms: N_33  and  C_34
REMARK                            x       y       z     vdW  Elec       q    Type
REMARK                         _______ _______ _______ _____ _____    ______ ____
ROOT
ATOM      1  C   UNL A   1     -28.168   0.383  28.319  0.00  0.00    +0.346 C 
ATOM      2  O   UNL A   1     -28.864  -0.374  28.476  0.00  0.00    -0.244 OA
ENDROOT
BRANCH   1   3
ATOM      3  C   UNL A   1     -26.821   0.687  28.971  0.00  0.00    +0.076 A 
ATOM      4  C   UNL A   1     -25.962  -0.163  29.013  0.00  0.00    +0.002 A 
ATOM      5  C   UNL A   1     -24.725   0.028  29.596  0.00  0.00    -0.018 A 
ATOM      6  C   UNL A   1     -24.466   1.283  30.216  0.00  0.00    +0.000 A 
ATOM      7  C   UNL A   1     -25.514   2.136  30.293  0.00  0.00    +0.055 A 
ATOM      8  C   UNL A   1     -26.678   1.852  29.740  0.00  0.00    +0.011 A 
BRANCH   7   9
ATOM      9  C   UNL A   1     -25.236   3.422  30.966  0.00  0.00    +0.265 C 
ATOM     10  N   UNL A   1     -24.681   3.499  31.966  0.00  0.00    -0.200 NA
ATOM     11  O   UNL A   1     -25.728   4.492  30.440  0.00  0.00    -0.268 OA
ATOM     12  C   UNL A   1     -24.366   4.754  32.725  0.00  0.00    +0.139 C 
ENDBRANCH   7   9
BRANCH   5  13
ATOM     13  C   UNL A   1     -23.585  -0.975  29.541  0.00  0.00    +0.076 C 
ATOM     14  C   UNL A   1     -22.404  -0.599  28.928  0.00  0.00    +0.009 C 
BRANCH  13  15
ATOM     15  C   UNL A   1     -23.829  -2.269  29.957  0.00  0.00    +0.257 C 
ATOM     16  F   UNL A   1     -24.627  -2.396  30.837  0.00  0.00    -0.213 F 
BRANCH  15  17
ATOM     17  N   UNL A   1     -24.255  -3.128  28.842  0.00  0.00    -0.205 NA
BRANCH  17  18
ATOM     18  C   UNL A   1     -23.973  -4.378  28.684  0.00  0.00    +0.083 C 
ATOM     19  C   UNL A   1     -24.992  -5.349  29.028  0.00  0.00    +0.019 C 
ENDBRANCH  17  18
ENDBRANCH  15  17
ENDBRANCH  13  15
ENDBRANCH   5  13
ENDBRANCH   1   3
BRANCH   1  20
ATOM     20  O   UNL A   1     -28.294   1.203  27.179  0.00  0.00    -0.422 OA
BRANCH  20  21
ATOM     21  C   UNL A   1     -28.666   0.810  26.007  0.00  0.00    +0.141 A 
ATOM     22  C   UNL A   1     -29.909   1.283  25.676  0.00  0.00    +0.013 A 
ATOM     23  C   UNL A   1     -30.344   1.105  24.286  0.00  0.00    -0.001 A 
ATOM     24  C   UNL A   1     -29.494   0.504  23.344  0.00  0.00    -0.000 A 
ATOM     25  C   UNL A   1     -27.869   0.258  24.996  0.00  0.00    +0.013 A 
ATOM     26  C   UNL A   1     -28.309  -0.066  23.724  0.00  0.00    -0.001 A 
ATOM     27  C   UNL A   1     -30.844   1.906  26.551  0.00  0.00    +0.034 C 
BRANCH  25  28
ATOM     28  C   UNL A   1     -26.564  -0.404  25.410  0.00  0.00    +0.034 C 
BRANCH  28  29
ATOM     29  C   UNL A   1     -25.383   0.285  24.740  0.00  0.00    +0.031 C 
BRANCH  29  30
ATOM     30  C   UNL A   1     -24.835   1.239  25.522  0.00  0.00    -0.022 A 
ATOM     31  C   UNL A   1     -23.804   1.254  26.110  0.00  0.00    -0.004 A 
ATOM     32  C   UNL A   1     -23.306   2.282  26.989  0.00  0.00    -0.000 A 
ATOM     33  C   UNL A   1     -24.106   3.429  27.143  0.00  0.00    -0.000 A 
ATOM     34  C   UNL A   1     -25.601   2.568  25.857  0.00  0.00    -0.004 A 
ATOM     35  C   UNL A   1     -25.216   3.548  26.554  0.00  0.00    -0.000 A 
ENDBRANCH  29  30
ENDBRANCH  28  29
ENDBRANCH  25  28
ENDBRANCH  20  21
ENDBRANCH   1  20
TORSDOF 11
ENDMDL
ENDMDL
