REMARK  Name = outputs/IAG933/test6/raw/output_3665_IAG933_linker_design_.xyz
REMARK  13 active torsions:
REMARK  status: ('A' for Active; 'I' for Inactive)
REMARK    1  A    between atoms: C_1  and  C_2
REMARK    2  A    between atoms: C_1  and  C_8
REMARK    3  A    between atoms: C_1  and  C_44
REMARK    4  A    between atoms: C_13  and  C_41
REMARK    5  A    between atoms: C_14  and  C_15
REMARK    6  A    between atoms: C_21  and  O_22
REMARK    7  A    between atoms: O_22  and  C_23
REMARK    8  A    between atoms: C_23  and  C_24
REMARK    9  A    between atoms: C_33  and  C_34
REMARK   10  A    between atoms: C_34  and  O_37
REMARK   11  A    between atoms: O_37  and  C_43
REMARK   12  A    between atoms: C_43  and  C_45
REMARK   13  A    between atoms: C_44  and  C_45
REMARK                            x       y       z     vdW  Elec       q    Type
REMARK                         _______ _______ _______ _____ _____    ______ ____
ROOT
ATOM      1  C   UNL A   1     -23.124   0.457  28.760  0.00  0.00    +0.119 C 
ATOM      2  F   UNL A   1     -21.124   1.222  27.603  0.00  0.00    -0.199 F 
ATOM      3  O   UNL A   1     -22.964   2.458  25.979  0.00  0.00    -0.284 OA
ATOM      4  C   UNL A   1     -23.320   1.695  26.951  0.00  0.00    +0.224 C 
ATOM      5  C   UNL A   1     -22.481   1.116  27.853  0.00  0.00    +0.195 C 
ATOM      6  N   UNL A   1     -22.392  -0.183  29.794  0.00  0.00    -0.126 NA
ATOM      7  C   UNL A   1     -24.552   1.252  27.322  0.00  0.00    +0.045 C 
ATOM      8  C   UNL A   1     -25.505  -0.163  29.083  0.00  0.00    -0.035 C 
ATOM      9  C   UNL A   1     -24.546   0.497  28.386  0.00  0.00    +0.015 C 
ENDROOT
BRANCH   7  10
ATOM     10  C   UNL A   1     -25.688   1.614  26.461  0.00  0.00    +0.041 C 
ATOM     11  C   UNL A   1     -26.250   2.920  26.395  0.00  0.00    +0.077 C 
ATOM     12  C   UNL A   1     -27.438   3.091  25.645  0.00  0.00    +0.107 C 
ATOM     13  N   UNL A   1     -28.075   2.089  25.003  0.00  0.00    -0.208 NA
ATOM     14  C   UNL A   1     -27.543   0.849  25.079  0.00  0.00    +0.253 C 
ATOM     15  C   UNL A   1     -26.354   0.576  25.777  0.00  0.00    +0.193 C 
ATOM     16  F   UNL A   1     -25.860  -0.681  25.795  0.00  0.00    -0.199 F 
BRANCH  11  17
ATOM     17  C   UNL A   1     -25.642   4.093  27.123  0.00  0.00    +0.266 C 
ATOM     18  N   UNL A   1     -25.614   5.252  26.449  0.00  0.00    -0.200 NA
ATOM     19  C   UNL A   1     -25.026   6.479  26.963  0.00  0.00    +0.139 C 
ATOM     20  O   UNL A   1     -25.143   3.966  28.243  0.00  0.00    -0.268 OA
ENDBRANCH  11  17
BRANCH  14  21
ATOM     21  O   UNL A   1     -28.193  -0.208  24.477  0.00  0.00    -0.456 OA
BRANCH  21  22
ATOM     22  C   UNL A   1     -29.460   0.005  23.866  0.00  0.00    +0.243 C 
BRANCH  22  23
ATOM     23  C   UNL A   1     -30.065  -1.377  23.573  0.00  0.00    +0.229 C 
ATOM     24  O   UNL A   1     -30.729  -1.878  24.721  0.00  0.00    -0.216 OA
ENDBRANCH  22  23
ENDBRANCH  21  22
ENDBRANCH  14  21
ENDBRANCH   7  10
BRANCH   8  25
ATOM     25  C   UNL A   1     -24.855  -1.012  30.143  0.00  0.00    +0.057 C 
BRANCH  25  26
ATOM     26  C   UNL A   1     -24.973  -2.505  29.788  0.00  0.00    -0.017 C 
ATOM     27  C   UNL A   1     -23.906  -3.173  29.146  0.00  0.00    -0.004 C 
ATOM     28  C   UNL A   1     -23.989  -4.549  28.853  0.00  0.00    -0.000 C 
ATOM     29  C   UNL A   1     -25.137  -5.280  29.205  0.00  0.00    -0.000 C 
ATOM     30  C   UNL A   1     -26.232  -4.611  29.784  0.00  0.00    -0.000 C 
ATOM     31  C   UNL A   1     -26.155  -3.232  30.065  0.00  0.00    -0.004 C 
ENDBRANCH  25  26
BRANCH  25  32
ATOM     32  C   UNL A   1     -25.387  -0.679  31.571  0.00  0.00    +0.081 C 
ATOM     33  C   UNL A   1     -25.189   0.773  32.028  0.00  0.00    +0.019 C 
ATOM     34  C   UNL A   1     -25.336   0.684  33.544  0.00  0.00    +0.020 C 
ATOM     35  C   UNL A   1     -24.829  -0.715  33.905  0.00  0.00    +0.089 C 
ATOM     36  N   UNL A   1     -24.758  -1.481  32.646  0.00  0.00    -0.219 NA
ENDBRANCH  25  32
ENDBRANCH   8  25
BRANCH   8  37
ATOM     37  C   UNL A   1     -26.951  -0.093  28.941  0.00  0.00    +0.054 C 
BRANCH  37  38
ATOM     38  C   UNL A   1     -27.858   0.934  29.100  0.00  0.00    +0.146 C 
BRANCH  38  39
ATOM     39  O   UNL A   1     -28.423   1.872  30.062  0.00  0.00    -0.353 OA
BRANCH  39  40
ATOM     40  C   UNL A   1     -28.916   2.913  29.102  0.00  0.00    +0.153 C 
BRANCH  40  42
ATOM     41  C   UNL A   1     -29.068   4.365  31.104  0.00  0.00    +0.319 C 
ATOM     42  C   UNL A   1     -29.119   4.285  29.558  0.00  0.00    +0.129 C 
ATOM     43  O   UNL A   1     -28.108   4.715  31.459  0.00  0.00    -0.448 OA
ATOM     44  O   UNL A   1     -29.635   4.108  31.907  0.00  0.00    -0.250 OA
ATOM     45  C   UNL A   1     -28.026   6.451  29.686  0.00  0.00    +0.048 C 
ATOM     46  C   UNL A   1     -28.076   5.209  28.835  0.00  0.00    +0.018 C 
ATOM     47  C   UNL A   1     -27.601   6.112  31.109  0.00  0.00    +0.208 C 
ENDBRANCH  40  42
ENDBRANCH  39  40
ENDBRANCH  38  39
ENDBRANCH  37  38
ENDBRANCH   8  37
TORSDOF 13
