MODEL 3666
MODEL 1
REMARK VINA RESULT:    -7.499      0.000      0.000
REMARK INTER + INTRA:          -8.948
REMARK INTER:                  -8.376
REMARK INTRA:                  -0.572
REMARK UNBOUND:                -0.572
REMARK  Name = No_3666-gen_results/8p0m/2024-11-27-11-27-31/
REMARK  2 active torsions:
REMARK  status: ('A' for Active; 'I' for Inactive)
REMARK    1  A    between atoms: C_2  and  C_3
REMARK    2  A    between atoms: C_11  and  C_14
REMARK                            x       y       z     vdW  Elec       q    Type
REMARK                         _______ _______ _______ _____ _____    ______ ____
ROOT
ATOM      1  C   UNL A   1     -23.746  -1.407  28.814  0.00  0.00    -0.000 A 
ATOM      2  C   UNL A   1     -22.376  -1.181  29.234  0.00  0.00    -0.000 A 
ATOM      3  C   UNL A   1     -21.625  -0.065  28.927  0.00  0.00    -0.000 A 
ATOM      4  C   UNL A   1     -22.193   0.874  28.058  0.00  0.00    +0.004 A 
ATOM      5  C   UNL A   1     -23.412   0.718  27.506  0.00  0.00    +0.071 A 
ATOM      6  C   UNL A   1     -24.173  -0.389  27.870  0.00  0.00    +0.004 A 
ENDROOT
BRANCH   1   8
ATOM      7  C   UNL A   1     -25.684  -2.406  29.497  0.00  0.00    +0.011 A 
ATOM      8  C   UNL A   1     -24.526  -2.493  29.159  0.00  0.00    +0.001 A 
ATOM      9  C   UNL A   1     -26.425  -3.629  29.858  0.00  0.00    +0.058 A 
ATOM     10  C   UNL A   1     -25.894  -4.860  29.512  0.00  0.00    +0.011 A 
ATOM     11  C   UNL A   1     -24.659  -4.956  28.914  0.00  0.00    +0.001 A 
ATOM     12  C   UNL A   1     -23.934  -3.738  28.673  0.00  0.00    +0.000 A 
ATOM     13 CL   UNL A   1     -27.990  -3.566  30.531  0.00  0.00    -0.082 Cl
ENDBRANCH   1   8
BRANCH   5  14
ATOM     14  C   UNL A   1     -23.939   1.734  26.631  0.00  0.00    +0.419 C 
ATOM     15  F   UNL A   1     -24.422   2.626  27.270  0.00  0.00    -0.166 F 
ATOM     16  F   UNL A   1     -22.916   2.226  25.859  0.00  0.00    -0.166 F 
ATOM     17  F   UNL A   1     -24.723   1.480  25.687  0.00  0.00    -0.166 F 
ENDBRANCH   5  14
TORSDOF 2
ENDMDL
ENDMDL
