REMARK  Name = outputs/IAG933/test6/raw/output_3666_IAG933_linker_design_.xyz
REMARK  7 active torsions:
REMARK  status: ('A' for Active; 'I' for Inactive)
REMARK    1  A    between atoms: C_1  and  C_2
REMARK    2  A    between atoms: C_13  and  N_38
REMARK    3  A    between atoms: C_14  and  C_15
REMARK    4  A    between atoms: C_21  and  O_22
REMARK    5  A    between atoms: O_22  and  C_23
REMARK    6  A    between atoms: C_23  and  C_24
REMARK    7  A    between atoms: N_33  and  O_36
REMARK                            x       y       z     vdW  Elec       q    Type
REMARK                         _______ _______ _______ _____ _____    ______ ____
ROOT
ATOM      1  C   UNL A   1     -24.855  -1.012  30.143  0.00  0.00    +0.072 C 
ATOM      2  C   UNL A   1     -25.387  -0.679  31.571  0.00  0.00    +0.096 C 
ATOM      3  C   UNL A   1     -25.189   0.773  32.028  0.00  0.00    +0.102 C 
ATOM      4  C   UNL A   1     -25.336   0.684  33.544  0.00  0.00    +0.039 C 
ATOM      5  C   UNL A   1     -24.829  -0.715  33.905  0.00  0.00    +0.090 C 
ATOM      6  N   UNL A   1     -24.758  -1.481  32.646  0.00  0.00    -0.218 NA
ATOM      7  O   UNL A   1     -26.521   0.085  28.837  0.00  0.00    -0.220 OA
ATOM      8  C   UNL A   1     -23.340   1.793  26.436  0.00  0.00    +0.334 C 
ATOM      9  C   UNL A   1     -24.256   1.024  28.600  0.00  0.00    +0.181 C 
ATOM     10  O   UNL A   1     -21.913   0.195  28.896  0.00  0.00    -0.271 OA
ATOM     11  C   UNL A   1     -22.670   0.857  28.308  0.00  0.00    +0.270 C 
ATOM     12  N   UNL A   1     -25.020   1.851  31.001  0.00  0.00    -0.164 NA
ATOM     13  O   UNL A   1     -23.272   2.398  25.346  0.00  0.00    -0.250 OA
ATOM     14  C   UNL A   1     -24.153   1.774  30.051  0.00  0.00    +0.131 C 
ATOM     15  N   UNL A   1     -24.532   1.432  27.128  0.00  0.00    -0.230 N 
ATOM     16  C   UNL A   1     -25.203  -0.053  28.928  0.00  0.00    +0.184 C 
ATOM     17  N   UNL A   1     -22.280   1.567  27.304  0.00  0.00    -0.126 NA
ENDROOT
BRANCH  15  18
ATOM     18  C   UNL A   1     -25.688   1.614  26.461  0.00  0.00    +0.094 C 
ATOM     19  C   UNL A   1     -26.250   2.920  26.395  0.00  0.00    +0.090 C 
ATOM     20  C   UNL A   1     -27.438   3.091  25.645  0.00  0.00    +0.108 C 
ATOM     21  N   UNL A   1     -28.075   2.089  25.003  0.00  0.00    -0.208 NA
ATOM     22  C   UNL A   1     -27.543   0.849  25.079  0.00  0.00    +0.255 C 
ATOM     23  C   UNL A   1     -26.354   0.576  25.777  0.00  0.00    +0.207 C 
ATOM     24  F   UNL A   1     -25.860  -0.681  25.795  0.00  0.00    -0.198 F 
BRANCH  19  25
ATOM     25  C   UNL A   1     -25.642   4.093  27.123  0.00  0.00    +0.268 C 
ATOM     26  N   UNL A   1     -25.614   5.252  26.449  0.00  0.00    -0.200 NA
ATOM     27  C   UNL A   1     -25.026   6.479  26.963  0.00  0.00    +0.139 C 
ATOM     28  O   UNL A   1     -25.143   3.966  28.243  0.00  0.00    -0.268 OA
ENDBRANCH  19  25
BRANCH  22  29
ATOM     29  O   UNL A   1     -28.193  -0.208  24.477  0.00  0.00    -0.456 OA
BRANCH  29  30
ATOM     30  C   UNL A   1     -29.460   0.005  23.866  0.00  0.00    +0.243 C 
BRANCH  30  31
ATOM     31  C   UNL A   1     -30.065  -1.377  23.573  0.00  0.00    +0.229 C 
ATOM     32  O   UNL A   1     -30.729  -1.878  24.721  0.00  0.00    -0.216 OA
ENDBRANCH  30  31
ENDBRANCH  29  30
ENDBRANCH  22  29
ENDBRANCH  15  18
BRANCH   1  33
ATOM     33  C   UNL A   1     -24.973  -2.505  29.788  0.00  0.00    -0.019 C 
ATOM     34  C   UNL A   1     -23.906  -3.173  29.146  0.00  0.00    -0.004 C 
ATOM     35  C   UNL A   1     -23.989  -4.549  28.853  0.00  0.00    -0.000 C 
ATOM     36  C   UNL A   1     -25.137  -5.280  29.205  0.00  0.00    -0.000 C 
ATOM     37  C   UNL A   1     -26.232  -4.611  29.784  0.00  0.00    -0.000 C 
ATOM     38  C   UNL A   1     -26.155  -3.232  30.065  0.00  0.00    -0.004 C 
ENDBRANCH   1  33
BRANCH  12  40
ATOM     39  C   UNL A   1     -25.005   4.280  31.309  0.00  0.00    +0.201 C 
ATOM     40  O   UNL A   1     -24.846   2.971  31.791  0.00  0.00    -0.279 OA
ENDBRANCH  12  40
TORSDOF 7
