REMARK  Name = No_3667-gen_results/8p0m/2024-11-27-11-27-31/
REMARK  2 active torsions:
REMARK  status: ('A' for Active; 'I' for Inactive)
REMARK    1  A    between atoms: C_4  and  C_8
REMARK    2  A    between atoms: C_8  and  C_9
REMARK                            x       y       z     vdW  Elec       q    Type
REMARK                         _______ _______ _______ _____ _____    ______ ____
ROOT
ATOM      1  C   UNL A   1     -28.016  -0.814  28.878  0.00  0.00    +0.029 A 
ATOM      2  C   UNL A   1     -28.469  -0.785  29.829  0.00  0.00    +0.140 A 
ATOM      3  C   UNL A   1     -26.546  -0.876  28.850  0.00  0.00    -0.002 A 
ATOM      4  C   UNL A   1     -25.804  -1.032  30.057  0.00  0.00    -0.018 A 
ATOM      5  C   UNL A   1     -27.944  -0.987  31.207  0.00  0.00    +0.029 A 
ATOM      6  C   UNL A   1     -26.582  -1.039  31.223  0.00  0.00    -0.002 A 
ATOM      7  F   UNL A   1     -29.909  -0.740  29.864  0.00  0.00    -0.204 F 
ENDROOT
BRANCH   4   8
ATOM      8  C   UNL A   1     -24.377  -1.098  30.069  0.00  0.00    +0.053 C 
BRANCH   8   9
ATOM      9  C   UNL A   1     -23.596  -0.540  29.104  0.00  0.00    -0.018 A 
ATOM     10  C   UNL A   1     -22.162  -0.568  29.246  0.00  0.00    -0.004 A 
ATOM     11  C   UNL A   1     -24.127   0.244  28.071  0.00  0.00    -0.004 A 
ATOM     12  C   UNL A   1     -23.288   1.198  27.382  0.00  0.00    -0.000 A 
ATOM     13  C   UNL A   1     -21.327   0.246  28.461  0.00  0.00    -0.000 A 
ATOM     14  C   UNL A   1     -21.868   1.112  27.549  0.00  0.00    -0.000 A 
ENDBRANCH   8   9
ENDBRANCH   4   8
TORSDOF 2
