MODEL 3667
MODEL 1
REMARK VINA RESULT:    -6.851      0.000      0.000
REMARK INTER + INTRA:          -8.047
REMARK INTER:                  -7.652
REMARK INTRA:                  -0.395
REMARK UNBOUND:                -0.395
REMARK  Name = No_3667-gen_results/8p0m/2024-11-27-11-27-31/
REMARK  2 active torsions:
REMARK  status: ('A' for Active; 'I' for Inactive)
REMARK    1  A    between atoms: C_4  and  C_8
REMARK    2  A    between atoms: C_8  and  C_9
REMARK                            x       y       z     vdW  Elec       q    Type
REMARK                         _______ _______ _______ _____ _____    ______ ____
ROOT
ATOM      1  C   UNL A   1     -24.247   1.006  26.595  0.00  0.00    +0.029 A 
ATOM      2  C   UNL A   1     -23.343   1.545  26.645  0.00  0.00    +0.140 A 
ATOM      3  C   UNL A   1     -24.390  -0.129  27.521  0.00  0.00    -0.002 A 
ATOM      4  C   UNL A   1     -23.405  -0.378  28.519  0.00  0.00    -0.018 A 
ATOM      5  C   UNL A   1     -22.207   1.529  27.607  0.00  0.00    +0.029 A 
ATOM      6  C   UNL A   1     -22.299   0.483  28.476  0.00  0.00    -0.002 A 
ATOM      7  F   UNL A   1     -23.202   2.667  25.752  0.00  0.00    -0.204 F 
ENDROOT
BRANCH   4   8
ATOM      8  C   UNL A   1     -23.510  -1.469  29.436  0.00  0.00    +0.053 C 
BRANCH   8   9
ATOM      9  C   UNL A   1     -24.347  -2.525  29.246  0.00  0.00    -0.018 A 
ATOM     10  C   UNL A   1     -25.664  -2.504  29.832  0.00  0.00    -0.004 A 
ATOM     11  C   UNL A   1     -23.915  -3.729  28.673  0.00  0.00    -0.004 A 
ATOM     12  C   UNL A   1     -24.642  -4.952  28.926  0.00  0.00    -0.000 A 
ATOM     13  C   UNL A   1     -26.444  -3.668  29.935  0.00  0.00    -0.000 A 
ATOM     14  C   UNL A   1     -25.953  -4.868  29.496  0.00  0.00    -0.000 A 
ENDBRANCH   8   9
ENDBRANCH   4   8
TORSDOF 2
ENDMDL
ENDMDL
