REMARK  Name = outputs/IAG933/test6/raw/output_3668_IAG933_linker_design_.xyz
REMARK  8 active torsions:
REMARK  status: ('A' for Active; 'I' for Inactive)
REMARK    1  A    between atoms: C_1  and  C_2
REMARK    2  A    between atoms: C_13  and  C_32
REMARK    3  A    between atoms: C_14  and  C_15
REMARK    4  A    between atoms: C_21  and  O_22
REMARK    5  A    between atoms: O_22  and  C_23
REMARK    6  A    between atoms: C_23  and  C_24
REMARK    7  A    between atoms: C_29  and  O_38
REMARK    8  A    between atoms: C_29  and  C_39
REMARK                            x       y       z     vdW  Elec       q    Type
REMARK                         _______ _______ _______ _____ _____    ______ ____
ROOT
ATOM      1  C   UNL A   1     -24.855  -1.012  30.143  0.00  0.00    +0.068 C 
ATOM      2  C   UNL A   1     -25.387  -0.679  31.571  0.00  0.00    +0.082 C 
ATOM      3  C   UNL A   1     -25.189   0.773  32.028  0.00  0.00    +0.048 C 
ATOM      4  C   UNL A   1     -25.336   0.684  33.544  0.00  0.00    +0.023 C 
ATOM      5  C   UNL A   1     -24.829  -0.715  33.905  0.00  0.00    +0.089 C 
ATOM      6  N   UNL A   1     -24.758  -1.481  32.646  0.00  0.00    -0.219 NA
ATOM      7  C   UNL A   1     -22.158   1.548  27.618  0.00  0.00    +0.199 C 
ATOM      8  F   UNL A   1     -20.894   1.791  27.299  0.00  0.00    -0.234 F 
ATOM      9  C   UNL A   1     -24.474   1.223  26.900  0.00  0.00    +0.143 C 
ATOM     10  C   UNL A   1     -23.841   1.161  29.439  0.00  0.00    +0.178 C 
ATOM     11  F   UNL A   1     -21.859   0.084  29.611  0.00  0.00    -0.232 F 
ATOM     12  O   UNL A   1     -24.357   2.189  30.137  0.00  0.00    -0.351 OA
ATOM     13  C   UNL A   1     -22.530   1.065  28.890  0.00  0.00    +0.223 C 
ATOM     14  O   UNL A   1     -24.329  -0.111  27.546  0.00  0.00    -0.351 OA
ATOM     15  C   UNL A   1     -24.972   2.276  31.435  0.00  0.00    +0.146 C 
ATOM     16  C   UNL A   1     -24.645  -0.039  28.973  0.00  0.00    +0.151 C 
ATOM     17  C   UNL A   1     -23.210   1.846  26.680  0.00  0.00    +0.072 C 
ENDROOT
BRANCH   9  18
ATOM     18  C   UNL A   1     -25.688   1.614  26.461  0.00  0.00    +0.043 C 
ATOM     19  C   UNL A   1     -26.250   2.920  26.395  0.00  0.00    +0.075 C 
ATOM     20  C   UNL A   1     -27.438   3.091  25.645  0.00  0.00    +0.106 C 
ATOM     21  N   UNL A   1     -28.075   2.089  25.003  0.00  0.00    -0.208 NA
ATOM     22  C   UNL A   1     -27.543   0.849  25.079  0.00  0.00    +0.253 C 
ATOM     23  C   UNL A   1     -26.354   0.576  25.777  0.00  0.00    +0.191 C 
ATOM     24  F   UNL A   1     -25.860  -0.681  25.795  0.00  0.00    -0.200 F 
BRANCH  19  25
ATOM     25  C   UNL A   1     -25.642   4.093  27.123  0.00  0.00    +0.266 C 
ATOM     26  N   UNL A   1     -25.614   5.252  26.449  0.00  0.00    -0.200 NA
ATOM     27  C   UNL A   1     -25.026   6.479  26.963  0.00  0.00    +0.139 C 
ATOM     28  O   UNL A   1     -25.143   3.966  28.243  0.00  0.00    -0.268 OA
ENDBRANCH  19  25
BRANCH  22  29
ATOM     29  O   UNL A   1     -28.193  -0.208  24.477  0.00  0.00    -0.456 OA
BRANCH  29  30
ATOM     30  C   UNL A   1     -29.460   0.005  23.866  0.00  0.00    +0.243 C 
BRANCH  30  31
ATOM     31  C   UNL A   1     -30.065  -1.377  23.573  0.00  0.00    +0.229 C 
ATOM     32  O   UNL A   1     -30.729  -1.878  24.721  0.00  0.00    -0.216 OA
ENDBRANCH  30  31
ENDBRANCH  29  30
ENDBRANCH  22  29
ENDBRANCH   9  18
BRANCH   1  33
ATOM     33  C   UNL A   1     -24.973  -2.505  29.788  0.00  0.00    -0.019 C 
ATOM     34  C   UNL A   1     -23.906  -3.173  29.146  0.00  0.00    -0.004 C 
ATOM     35  C   UNL A   1     -23.989  -4.549  28.853  0.00  0.00    -0.000 C 
ATOM     36  C   UNL A   1     -25.137  -5.280  29.205  0.00  0.00    -0.000 C 
ATOM     37  C   UNL A   1     -26.232  -4.611  29.784  0.00  0.00    -0.000 C 
ATOM     38  C   UNL A   1     -26.155  -3.232  30.065  0.00  0.00    -0.004 C 
ENDBRANCH   1  33
BRANCH  15  39
ATOM     39  C   UNL A   1     -24.486   3.739  31.775  0.00  0.00    +0.172 C 
BRANCH  39  41
ATOM     40  C   UNL A   1     -24.538   5.695  33.242  0.00  0.00    +0.174 C 
ATOM     41  O   UNL A   1     -24.781   4.315  33.043  0.00  0.00    -0.348 OA
ENDBRANCH  39  41
ENDBRANCH  15  39
TORSDOF 8
