MODEL 3668
MODEL 1
REMARK VINA RESULT:    -7.595      0.000      0.000
REMARK INTER + INTRA:         -12.821
REMARK INTER:                 -10.702
REMARK INTRA:                  -2.118
REMARK UNBOUND:                -2.118
REMARK  Name = No_3668-gen_results/8p0m/2024-11-27-11-27-31/
REMARK  7 active torsions:
REMARK  status: ('A' for Active; 'I' for Inactive)
REMARK    1  A    between atoms: C_1  and  C_2
REMARK    2  A    between atoms: C_1  and  N_3
REMARK    3  A    between atoms: C_13  and  C_14
REMARK    4  A    between atoms: C_15  and  C_16
REMARK    5  A    between atoms: C_16  and  C_17
REMARK    6  A    between atoms: C_18  and  C_19
REMARK    7  A    between atoms: C_23  and  C_24
REMARK                            x       y       z     vdW  Elec       q    Type
REMARK                         _______ _______ _______ _____ _____    ______ ____
ROOT
ATOM      1  N   UNL A   1     -26.308  -1.605  30.946  0.00  0.00    -0.322 N 
ATOM      2  C   UNL A   1     -25.814  -2.441  29.991  0.00  0.00    +0.060 A 
ATOM      3  C   UNL A   1     -26.560  -3.613  29.688  0.00  0.00    +0.017 A 
ATOM      4  C   UNL A   1     -27.883  -3.506  30.253  0.00  0.00    +0.020 A 
ATOM      5  C   UNL A   1     -27.650  -2.094  31.286  0.00  0.00    +0.076 A 
ATOM      6  C   UNL A   1     -24.517  -2.350  29.369  0.00  0.00    +0.015 A 
ATOM      7  C   UNL A   1     -23.816  -3.502  28.929  0.00  0.00    +0.001 A 
ATOM      8  C   UNL A   1     -24.449  -4.856  28.979  0.00  0.00    +0.000 A 
ATOM      9  C   UNL A   1     -25.923  -4.872  29.363  0.00  0.00    +0.002 A 
ENDROOT
BRANCH   6  10
ATOM     10  C   UNL A   1     -23.883  -1.409  29.209  0.00  0.00    -0.003 C 
ATOM     11  C   UNL A   1     -22.712  -1.149  29.240  0.00  0.00    -0.021 C 
BRANCH  11  12
ATOM     12  C   UNL A   1     -22.075   0.173  29.113  0.00  0.00    +0.052 C 
BRANCH  12  13
ATOM     13  C   UNL A   1     -21.945   0.799  28.017  0.00  0.00    -0.021 C 
ATOM     14  C   UNL A   1     -22.660   1.825  27.601  0.00  0.00    -0.004 C 
BRANCH  14  15
ATOM     15  C   UNL A   1     -22.950   2.109  26.204  0.00  0.00    -0.000 C 
ATOM     16  C   UNL A   1     -24.048   1.598  25.557  0.00  0.00    -0.000 C 
BRANCH  16  17
ATOM     17  C   UNL A   1     -25.000   0.852  26.347  0.00  0.00    -0.000 C 
ATOM     18  C   UNL A   1     -25.521  -0.328  25.951  0.00  0.00    -0.000 C 
ENDBRANCH  16  17
ENDBRANCH  14  15
ENDBRANCH  12  13
ENDBRANCH  11  12
ENDBRANCH   6  10
BRANCH   1  19
ATOM     19  C   UNL A   1     -25.669  -0.492  31.539  0.00  0.00    +0.133 C 
BRANCH  19  20
ATOM     20  C   UNL A   1     -25.233  -0.652  32.485  0.00  0.00    +0.000 A 
ATOM     21  C   UNL A   1     -24.240  -1.108  32.928  0.00  0.00    -0.002 A 
ATOM     22  C   UNL A   1     -23.890  -1.204  34.389  0.00  0.00    -0.000 A 
ATOM     23  C   UNL A   1     -24.786  -0.719  35.269  0.00  0.00    -0.000 A 
ATOM     24  C   UNL A   1     -25.956  -0.225  34.859  0.00  0.00    -0.000 A 
ATOM     25  C   UNL A   1     -26.239  -0.181  33.569  0.00  0.00    -0.002 A 
ENDBRANCH  19  20
ENDBRANCH   1  19
TORSDOF 7
ENDMDL
ENDMDL
