MODEL 3669
MODEL 1
REMARK VINA RESULT:    -4.451      0.000      0.000
REMARK INTER + INTRA:          -4.451
REMARK INTER:                  -4.451
REMARK INTRA:                   0.000
REMARK UNBOUND:                 0.000
REMARK  Name = No_3669-gen_results/8p0m/2024-11-27-11-27-31/
REMARK  0 active torsions:
REMARK  status: ('A' for Active; 'I' for Inactive)
REMARK                            x       y       z     vdW  Elec       q    Type
REMARK                         _______ _______ _______ _____ _____    ______ ____
ROOT
ATOM      1  C   UNL A   1     -24.018  -4.123  28.775  0.00  0.00    +0.011 A 
ATOM      2  C   UNL A   1     -24.238  -2.990  29.137  0.00  0.00    +0.058 A 
ATOM      3  C   UNL A   1     -25.399  -2.591  29.716  0.00  0.00    +0.011 A 
ATOM      4  C   UNL A   1     -26.413  -3.548  29.909  0.00  0.00    +0.001 A 
ATOM      5  C   UNL A   1     -24.972  -5.172  29.028  0.00  0.00    +0.001 A 
ATOM      6  C   UNL A   1     -26.166  -4.818  29.580  0.00  0.00    +0.000 A 
ATOM      7 CL   UNL A   1     -23.046  -1.733  28.955  0.00  0.00    -0.082 Cl
ENDROOT
TORSDOF 0
ENDMDL
ENDMDL
