REMARK  Name = outputs/IAG933/test6/raw/output_3669_IAG933_linker_design_.xyz
REMARK  18 active torsions:
REMARK  status: ('A' for Active; 'I' for Inactive)
REMARK    1  A    between atoms: C_1  and  C_2
REMARK    2  A    between atoms: C_1  and  C_8
REMARK    3  A    between atoms: C_9  and  C_32
REMARK    4  A    between atoms: C_13  and  C_39
REMARK    5  A    between atoms: C_14  and  C_15
REMARK    6  A    between atoms: C_21  and  O_22
REMARK    7  A    between atoms: O_22  and  C_23
REMARK    8  A    between atoms: C_23  and  C_24
REMARK    9  A    between atoms: C_28  and  C_30
REMARK   10  A    between atoms: C_28  and  N_46
REMARK   11  A    between atoms: O_29  and  C_30
REMARK   12  A    between atoms: O_29  and  C_43
REMARK   13  A    between atoms: C_32  and  C_42
REMARK   14  A    between atoms: C_32  and  C_43
REMARK   15  A    between atoms: C_34  and  C_37
REMARK   16  A    between atoms: C_37  and  C_40
REMARK   17  A    between atoms: C_40  and  C_45
REMARK   18  A    between atoms: C_45  and  N_46
REMARK                            x       y       z     vdW  Elec       q    Type
REMARK                         _______ _______ _______ _____ _____    ______ ____
ROOT
ATOM      1  C   UNL A   1     -24.621   1.623  30.800  0.00  0.00    +0.108 C 
ENDROOT
BRANCH   1   8
ATOM      2  C   UNL A   1     -22.806   2.311  26.099  0.00  0.00    +0.088 C 
ATOM      3  C   UNL A   1     -23.809   0.697  27.703  0.00  0.00    +0.102 C 
ATOM      4  N   UNL A   1     -23.105   1.746  28.549  0.00  0.00    -0.230 N 
ATOM      5  O   UNL A   1     -20.802   1.959  27.562  0.00  0.00    -0.275 OA
ATOM      6  O   UNL A   1     -22.579   0.443  30.446  0.00  0.00    -0.274 OA
ATOM      7  C   UNL A   1     -24.205   1.515  26.447  0.00  0.00    +0.037 C 
ATOM      8  C   UNL A   1     -23.377   1.267  29.986  0.00  0.00    +0.233 C 
ATOM      9  C   UNL A   1     -22.133   2.138  27.376  0.00  0.00    +0.231 C 
BRANCH   7  10
ATOM     10  C   UNL A   1     -25.688   1.614  26.461  0.00  0.00    +0.072 C 
ATOM     11  C   UNL A   1     -26.250   2.920  26.395  0.00  0.00    +0.055 C 
ATOM     12  C   UNL A   1     -27.438   3.091  25.645  0.00  0.00    +0.102 C 
ATOM     13  N   UNL A   1     -28.075   2.089  25.003  0.00  0.00    -0.212 NA
ATOM     14  C   UNL A   1     -27.543   0.849  25.079  0.00  0.00    +0.234 C 
ATOM     15  C   UNL A   1     -26.354   0.576  25.777  0.00  0.00    +0.240 C 
ATOM     16  F   UNL A   1     -25.860  -0.681  25.795  0.00  0.00    -0.227 F 
BRANCH  11  17
ATOM     17  C   UNL A   1     -25.642   4.093  27.123  0.00  0.00    +0.262 C 
ATOM     18  N   UNL A   1     -25.614   5.252  26.449  0.00  0.00    -0.200 NA
ATOM     19  C   UNL A   1     -25.026   6.479  26.963  0.00  0.00    +0.139 C 
ATOM     20  O   UNL A   1     -25.143   3.966  28.243  0.00  0.00    -0.269 OA
ENDBRANCH  11  17
BRANCH  14  21
ATOM     21  O   UNL A   1     -28.193  -0.208  24.477  0.00  0.00    -0.459 OA
BRANCH  21  22
ATOM     22  C   UNL A   1     -29.460   0.005  23.866  0.00  0.00    +0.242 C 
BRANCH  22  23
ATOM     23  C   UNL A   1     -30.065  -1.377  23.573  0.00  0.00    +0.229 C 
ATOM     24  O   UNL A   1     -30.729  -1.878  24.721  0.00  0.00    -0.216 OA
ENDBRANCH  22  23
ENDBRANCH  21  22
ENDBRANCH  14  21
ENDBRANCH   7  10
ENDBRANCH   1   8
BRANCH   1  26
ATOM     25  C   UNL A   1     -25.387  -0.679  31.571  0.00  0.00    +0.078 C 
ATOM     26  C   UNL A   1     -25.189   0.773  32.028  0.00  0.00    +0.029 C 
ATOM     27  C   UNL A   1     -25.336   0.684  33.544  0.00  0.00    +0.021 C 
ATOM     28  C   UNL A   1     -24.829  -0.715  33.905  0.00  0.00    +0.089 C 
ATOM     29  N   UNL A   1     -24.758  -1.481  32.646  0.00  0.00    -0.219 NA
BRANCH  25  30
ATOM     30  C   UNL A   1     -24.855  -1.012  30.143  0.00  0.00    +0.044 C 
BRANCH  30  31
ATOM     31  C   UNL A   1     -24.973  -2.505  29.788  0.00  0.00    -0.021 C 
ATOM     32  C   UNL A   1     -23.906  -3.173  29.146  0.00  0.00    -0.004 C 
ATOM     33  C   UNL A   1     -23.989  -4.549  28.853  0.00  0.00    -0.000 C 
ATOM     34  C   UNL A   1     -25.137  -5.280  29.205  0.00  0.00    -0.000 C 
ATOM     35  C   UNL A   1     -26.232  -4.611  29.784  0.00  0.00    -0.000 C 
ATOM     36  C   UNL A   1     -26.155  -3.232  30.065  0.00  0.00    -0.004 C 
ENDBRANCH  30  31
ENDBRANCH  25  30
ENDBRANCH   1  26
BRANCH   1  37
ATOM     37  C   UNL A   1     -25.197   3.142  30.929  0.00  0.00    +0.151 C 
BRANCH  37  38
ATOM     38  O   UNL A   1     -24.916   3.785  32.260  0.00  0.00    -0.352 OA
BRANCH  38  39
ATOM     39  C   UNL A   1     -26.008   4.582  32.783  0.00  0.00    +0.161 C 
BRANCH  39  40
ATOM     40  C   UNL A   1     -27.363   4.320  33.530  0.00  0.00    +0.121 C 
BRANCH  40  41
ATOM     41  N   UNL A   1     -27.210   4.056  34.975  0.00  0.00    -0.215 NA
BRANCH  41  42
ATOM     42  C   UNL A   1     -27.087   2.581  35.176  0.00  0.00    +0.089 C 
BRANCH  42  43
ATOM     43  C   UNL A   1     -28.584   2.153  34.745  0.00  0.00    +0.020 C 
BRANCH  43  44
ATOM     44  C   UNL A   1     -29.759   2.902  35.385  0.00  0.00    +0.022 C 
BRANCH  44  45
ATOM     45  C   UNL A   1     -30.899   1.883  35.528  0.00  0.00    +0.109 C 
ATOM     46  N   UNL A   1     -32.213   2.446  35.023  0.00  0.00    -0.131 NA
ENDBRANCH  44  45
ENDBRANCH  43  44
ENDBRANCH  42  43
ENDBRANCH  41  42
ENDBRANCH  40  41
ENDBRANCH  39  40
ENDBRANCH  38  39
ENDBRANCH  37  38
ENDBRANCH   1  37
TORSDOF 18
