MODEL 366
MODEL 1
REMARK VINA RESULT:    -6.349      0.000      0.000
REMARK INTER + INTRA:          -7.437
REMARK INTER:                  -7.091
REMARK INTRA:                  -0.346
REMARK UNBOUND:                -0.346
REMARK  Name = No_366-gen_results/8p0m/2024-11-27-11-27-31/
REMARK  2 active torsions:
REMARK  status: ('A' for Active; 'I' for Inactive)
REMARK    1  A    between atoms: C_2  and  N_3
REMARK    2  A    between atoms: N_3  and  C_4
REMARK                            x       y       z     vdW  Elec       q    Type
REMARK                         _______ _______ _______ _____ _____    ______ ____
ROOT
ATOM      1  N   UNL A   1     -23.878  -1.341  29.743  0.00  0.00    -0.212 NA
ENDROOT
BRANCH   1   3
ATOM      2  C   UNL A   1     -23.869  -3.380  28.781  0.00  0.00    +0.017 A 
ATOM      3  C   UNL A   1     -24.439  -2.508  29.396  0.00  0.00    +0.070 A 
ATOM      4  C   UNL A   1     -24.280  -4.724  28.887  0.00  0.00    +0.001 A 
ATOM      5  C   UNL A   1     -25.603  -4.952  29.293  0.00  0.00    +0.000 A 
ATOM      6  C   UNL A   1     -26.342  -3.960  29.842  0.00  0.00    +0.001 A 
ATOM      7  C   UNL A   1     -25.777  -2.678  30.031  0.00  0.00    +0.017 A 
ENDBRANCH   1   3
BRANCH   1   8
ATOM      8  C   UNL A   1     -23.200  -0.421  28.873  0.00  0.00    +0.070 A 
ATOM      9  C   UNL A   1     -23.887   0.452  27.958  0.00  0.00    +0.017 A 
ATOM     10  C   UNL A   1     -23.227   1.360  27.181  0.00  0.00    +0.001 A 
ATOM     11  C   UNL A   1     -21.855   1.599  27.426  0.00  0.00    +0.000 A 
ATOM     12  C   UNL A   1     -21.778  -0.336  28.921  0.00  0.00    +0.017 A 
ATOM     13  C   UNL A   1     -21.141   0.689  28.205  0.00  0.00    +0.001 A 
ENDBRANCH   1   8
TORSDOF 2
ENDMDL
ENDMDL
