MODEL 3670
MODEL 1
REMARK VINA RESULT:    -5.800      0.000      0.000
REMARK INTER + INTRA:          -5.800
REMARK INTER:                  -5.800
REMARK INTRA:                   0.000
REMARK UNBOUND:                 0.000
REMARK  Name = No_3670-gen_results/8p0m/2024-11-27-11-27-31/
REMARK  0 active torsions:
REMARK  status: ('A' for Active; 'I' for Inactive)
REMARK                            x       y       z     vdW  Elec       q    Type
REMARK                         _______ _______ _______ _____ _____    ______ ____
ROOT
ATOM      1  C   UNL A   1     -24.128  -4.390  28.728  0.00  0.00    +0.000 A 
ATOM      2  C   UNL A   1     -24.913  -5.057  28.946  0.00  0.00    +0.000 A 
ATOM      3  C   UNL A   1     -24.279  -3.042  29.123  0.00  0.00    +0.000 A 
ATOM      4  C   UNL A   1     -23.227  -2.001  28.989  0.00  0.00    +0.002 A 
ATOM      5  C   UNL A   1     -26.214  -4.846  29.606  0.00  0.00    +0.000 A 
ATOM      6  C   UNL A   1     -26.435  -3.533  30.022  0.00  0.00    +0.000 A 
ATOM      7  C   UNL A   1     -25.460  -2.607  29.836  0.00  0.00    +0.002 A 
ATOM      8  C   UNL A   1     -22.973  -1.034  29.523  0.00  0.00    +0.030 A 
ATOM      9  C   UNL A   1     -24.082  -0.591  30.494  0.00  0.00    +0.140 A 
ATOM     10  C   UNL A   1     -25.264  -1.359  30.613  0.00  0.00    +0.030 A 
ATOM     11  F   UNL A   1     -23.984   0.606  31.093  0.00  0.00    -0.204 F 
ENDROOT
TORSDOF 0
ENDMDL
ENDMDL
