MODEL 3672
MODEL 1
REMARK VINA RESULT:    -7.429      0.000      0.000
REMARK INTER + INTRA:         -10.348
REMARK INTER:                  -9.600
REMARK INTRA:                  -0.748
REMARK UNBOUND:                -0.748
REMARK  Name = No_3672-gen_results/8p0m/2024-11-27-11-27-31/
REMARK  5 active torsions:
REMARK  status: ('A' for Active; 'I' for Inactive)
REMARK    1  A    between atoms: C_3  and  C_22
REMARK    2  A    between atoms: C_6  and  C_8
REMARK    3  A    between atoms: C_11  and  C_12
REMARK    4  A    between atoms: C_16  and  C_18
REMARK    5  A    between atoms: C_23  and  C_24
REMARK                            x       y       z     vdW  Elec       q    Type
REMARK                         _______ _______ _______ _____ _____    ______ ____
ROOT
ATOM      1  C   UNL A   1     -31.103 -12.548  26.559  0.00  0.00    +0.272 C 
ATOM      2  N   UNL A   1     -30.567 -13.168  25.649  0.00  0.00    -0.137 NA
ATOM      3  O   UNL A   1     -31.983 -11.655  26.261  0.00  0.00    -0.268 OA
ATOM      4  C   UNL A   1     -31.109 -13.304  24.286  0.00  0.00    +0.272 C 
ATOM      5  O   UNL A   1     -32.382 -12.985  24.265  0.00  0.00    -0.268 OA
ENDROOT
BRANCH   1  11
ATOM      6  C   UNL A   1     -30.504 -13.564  28.866  0.00  0.00    +0.012 A 
ATOM      7  C   UNL A   1     -29.905 -13.512  29.915  0.00  0.00    +0.042 A 
ATOM      8  C   UNL A   1     -29.187 -12.377  30.276  0.00  0.00    +0.048 A 
ATOM      9  C   UNL A   1     -29.096 -11.245  29.391  0.00  0.00    +0.009 A 
ATOM     10  C   UNL A   1     -29.799 -11.399  28.189  0.00  0.00    +0.005 A 
ATOM     11  C   UNL A   1     -30.449 -12.500  27.888  0.00  0.00    +0.056 A 
ATOM     12 BR   UNL A   1     -29.871 -14.906  31.180  0.00  0.00    -0.048 Br
BRANCH   8  13
ATOM     13  C   UNL A   1     -28.484 -12.187  31.626  0.00  0.00    -0.059 C 
ATOM     14  C   UNL A   1     -27.294 -12.279  31.917  0.00  0.00    -0.059 C 
BRANCH  14  15
ATOM     15  C   UNL A   1     -26.957 -12.024  33.311  0.00  0.00    +0.050 C 
ATOM     16  C   UNL A   1     -27.884 -11.428  34.159  0.00  0.00    +0.009 C 
ENDBRANCH  14  15
ENDBRANCH   8  13
ENDBRANCH   1  11
BRANCH   4  17
ATOM     17  C   UNL A   1     -30.562 -13.738  23.454  0.00  0.00    +0.056 A 
ATOM     18  C   UNL A   1     -30.230 -14.712  23.158  0.00  0.00    +0.005 A 
ATOM     19  C   UNL A   1     -29.399 -15.269  21.992  0.00  0.00    +0.000 A 
ATOM     20  C   UNL A   1     -29.078 -14.281  21.082  0.00  0.00    +0.007 A 
ATOM     21  C   UNL A   1     -29.457 -13.020  21.224  0.00  0.00    +0.080 A 
ATOM     22  C   UNL A   1     -30.153 -12.613  22.378  0.00  0.00    +0.011 A 
BRANCH  21  23
ATOM     23  C   UNL A   1     -29.097 -11.967  20.233  0.00  0.00    +0.388 C 
ATOM     24  O   UNL A   1     -29.595 -10.918  20.295  0.00  0.00    -0.241 OA
ATOM     25  O   UNL A   1     -28.018 -12.269  19.560  0.00  0.00    -0.241 OA
ENDBRANCH  21  23
ENDBRANCH   4  17
TORSDOF 5
ENDMDL
ENDMDL
