REMARK  Name = No_3673-gen_results/8p0m/2024-11-27-11-27-31/
REMARK  5 active torsions:
REMARK  status: ('A' for Active; 'I' for Inactive)
REMARK    1  A    between atoms: C_1  and  C_2
REMARK    2  A    between atoms: C_1  and  C_8
REMARK    3  A    between atoms: C_5  and  C_10
REMARK    4  A    between atoms: C_8  and  N_9
REMARK    5  A    between atoms: N_9  and  C_13
REMARK                            x       y       z     vdW  Elec       q    Type
REMARK                         _______ _______ _______ _____ _____    ______ ____
ROOT
ATOM      1  C   UNL A   1     -27.064  -0.119  28.608  0.00  0.00    -0.021 A 
ATOM      2  C   UNL A   1     -25.765  -0.390  29.036  0.00  0.00    -0.004 A 
ATOM      3  C   UNL A   1     -24.552   0.406  28.765  0.00  0.00    +0.004 A 
ATOM      4  C   UNL A   1     -24.696   1.448  27.799  0.00  0.00    +0.057 A 
ATOM      5  C   UNL A   1     -25.976   1.725  27.308  0.00  0.00    +0.004 A 
ATOM      6  C   UNL A   1     -27.072   1.013  27.654  0.00  0.00    -0.004 A 
ENDROOT
BRANCH   4   7
ATOM      7  C   UNL A   1     -23.487   2.187  27.485  0.00  0.00    +0.284 C 
ATOM      8  N   UNL A   1     -23.554   3.135  26.611  0.00  0.00    -0.084 NA
ATOM      9  O   UNL A   1     -22.323   1.861  27.882  0.00  0.00    -0.267 OA
ENDBRANCH   4   7
BRANCH   1  10
ATOM     10  C   UNL A   1     -28.016  -0.814  28.878  0.00  0.00    +0.048 C 
BRANCH  10  11
ATOM     11  C   UNL A   1     -29.226  -0.068  29.315  0.00  0.00    +0.104 C 
BRANCH  11  12
ATOM     12  N   UNL A   1     -30.417  -0.702  29.142  0.00  0.00    -0.248 N 
ATOM     13  C   UNL A   1     -31.224  -0.477  28.013  0.00  0.00    +0.287 C 
ATOM     14  O   UNL A   1     -32.168  -1.248  27.627  0.00  0.00    -0.262 OA
ATOM     15 BR   UNL A   1     -30.611   0.906  26.769  0.00  0.00    +0.015 Br
BRANCH  12  16
ATOM     16  C   UNL A   1     -30.888  -1.554  30.028  0.00  0.00    +0.068 C 
ATOM     17  C   UNL A   1     -31.970  -2.446  29.672  0.00  0.00    +0.018 C 
ENDBRANCH  12  16
ENDBRANCH  11  12
ENDBRANCH  10  11
ENDBRANCH   1  10
TORSDOF 5
