MODEL 3674
MODEL 1
REMARK VINA RESULT:    -7.865      0.000      0.000
REMARK INTER + INTRA:         -11.628
REMARK INTER:                 -10.164
REMARK INTRA:                  -1.463
REMARK UNBOUND:                -1.463
REMARK  Name = No_3674-gen_results/8p0m/2024-11-27-11-27-31/
REMARK  5 active torsions:
REMARK  status: ('A' for Active; 'I' for Inactive)
REMARK    1  A    between atoms: C_4  and  C_11
REMARK    2  A    between atoms: C_19  and  O_22
REMARK    3  A    between atoms: O_22  and  C_26
REMARK    4  A    between atoms: C_26  and  C_27
REMARK    5  A    between atoms: C_27  and  C_28
REMARK                            x       y       z     vdW  Elec       q    Type
REMARK                         _______ _______ _______ _____ _____    ______ ____
ROOT
ATOM      1  C   UNK     1     -23.503   1.067  27.724  0.00  0.00    +0.034 A 
ATOM      2  C   UNK     1     -23.285  -0.000  28.402  0.00  0.00    +0.142 A 
ATOM      3  C   UNK     1     -21.979  -0.350  28.790  0.00  0.00    +0.017 A 
ATOM      4  C   UNK     1     -22.516   1.864  27.207  0.00  0.00    +0.003 A 
ATOM      5  C   UNK     1     -21.172   1.548  27.442  0.00  0.00    -0.000 A 
ATOM      6  C   UNK     1     -20.896   0.368  28.169  0.00  0.00    -0.001 A 
ATOM      7  O   UNK     1     -24.229  -0.824  28.948  0.00  0.00    -0.451 OA
ATOM      8  C   UNK     1     -24.159  -1.500  30.109  0.00  0.00    +0.175 A 
ATOM      9  C   UNK     1     -25.291  -1.350  30.933  0.00  0.00    +0.173 A 
ATOM     10  C   UNK     1     -25.127  -1.129  32.191  0.00  0.00    +0.040 A 
ATOM     11  C   UNK     1     -24.299  -0.653  32.570  0.00  0.00    +0.003 A 
ATOM     12  C   UNK     1     -23.030  -0.919  32.222  0.00  0.00    -0.001 A 
ATOM     13  C   UNK     1     -22.951  -0.932  30.926  0.00  0.00    +0.020 A 
ATOM     14  C   UNK     1     -21.964  -0.139  30.029  0.00  0.00    +0.059 C 
ENDROOT
BRANCH   1  18
ATOM     15  C   UNK     1     -25.929  -0.373  24.502  0.00  0.00    +0.000 A 
ATOM     16  C   UNK     1     -25.245   0.027  25.415  0.00  0.00    +0.000 A 
ATOM     17  C   UNK     1     -25.695   0.931  26.377  0.00  0.00    +0.000 A 
ATOM     18  C   UNK     1     -24.929   1.479  27.513  0.00  0.00    +0.003 A 
ATOM     19  C   UNK     1     -25.413   2.444  28.466  0.00  0.00    +0.000 A 
ATOM     20  C   UNK     1     -26.785   2.705  28.389  0.00  0.00    +0.000 A 
ATOM     21  C   UNK     1     -27.277   0.266  24.317  0.00  0.00    +0.000 A 
ATOM     22  C   UNK     1     -27.835   1.096  25.262  0.00  0.00    +0.000 A 
ATOM     23  C   UNK     1     -27.061   1.515  26.329  0.00  0.00    +0.000 A 
ATOM     24  C   UNK     1     -27.580   2.348  27.320  0.00  0.00    +0.000 A 
ENDBRANCH   1  18
BRANCH   9  25
ATOM     25  O   UNK     1     -26.450  -1.539  30.216  0.00  0.00    -0.470 OA
BRANCH  25  26
ATOM     26  C   UNK     1     -26.944  -2.816  30.040  0.00  0.00    +0.232 C 
BRANCH  26  27
ATOM     27  C   UNK     1     -28.076  -3.216  30.771  0.00  0.00    +0.200 C 
ATOM     28  N   UNK     1     -28.508  -4.500  30.049  0.00  0.00    -0.120 NA
BRANCH  27  29
ATOM     29  C   UNK     1     -29.160  -2.271  30.881  0.00  0.00    +0.230 C 
ATOM     30  O   UNK     1     -30.012  -2.490  30.048  0.00  0.00    -0.287 OA
ENDBRANCH  27  29
ENDBRANCH  26  27
ENDBRANCH  25  26
ENDBRANCH   9  25
TORSDOF 5
ENDMDL
ENDMDL
