REMARK  Name = No_3674-gen_results/8p0m/2024-11-27-11-27-31/
REMARK  5 active torsions:
REMARK  status: ('A' for Active; 'I' for Inactive)
REMARK    1  A    between atoms: C_4  and  C_11
REMARK    2  A    between atoms: C_19  and  O_22
REMARK    3  A    between atoms: O_22  and  C_26
REMARK    4  A    between atoms: C_26  and  C_27
REMARK    5  A    between atoms: C_27  and  C_28
REMARK                            x       y       z     vdW  Elec       q    Type
REMARK                         _______ _______ _______ _____ _____    ______ ____
ROOT
ATOM      1  C   UNK     1     -24.645   1.658  27.946  0.00  0.00    +0.034 A 
ATOM      2  C   UNK     1     -24.896   2.756  28.561  0.00  0.00    +0.142 A 
ATOM      3  C   UNK     1     -25.173   3.934  27.844  0.00  0.00    +0.017 A 
ATOM      4  C   UNK     1     -24.484   1.557  26.589  0.00  0.00    +0.003 A 
ATOM      5  C   UNK     1     -24.632   2.694  25.785  0.00  0.00    -0.000 A 
ATOM      6  C   UNK     1     -24.890   3.923  26.432  0.00  0.00    -0.001 A 
ATOM      7  O   UNK     1     -25.076   2.911  29.907  0.00  0.00    -0.451 OA
ATOM      8  C   UNK     1     -25.914   3.756  30.533  0.00  0.00    +0.175 A 
ATOM      9  C   UNK     1     -26.700   3.153  31.535  0.00  0.00    +0.173 A 
ATOM     10  C   UNK     1     -27.957   3.426  31.596  0.00  0.00    +0.040 A 
ATOM     11  C   UNK     1     -28.509   3.696  30.772  0.00  0.00    +0.003 A 
ATOM     12  C   UNK     1     -28.129   4.596  29.851  0.00  0.00    -0.001 A 
ATOM     13  C   UNK     1     -26.920   4.313  29.471  0.00  0.00    +0.020 A 
ATOM     14  C   UNK     1     -26.404   4.115  28.022  0.00  0.00    +0.059 C 
ENDROOT
BRANCH   1  18
ATOM     15  C   UNK     1     -28.016  -0.814  28.878  0.00  0.00    +0.000 A 
ATOM     16  C   UNK     1     -27.064  -0.119  28.608  0.00  0.00    +0.000 A 
ATOM     17  C   UNK     1     -25.765  -0.390  29.036  0.00  0.00    +0.000 A 
ATOM     18  C   UNK     1     -24.552   0.406  28.765  0.00  0.00    +0.003 A 
ATOM     19  C   UNK     1     -23.230   0.118  29.258  0.00  0.00    +0.000 A 
ATOM     20  C   UNK     1     -23.094  -1.131  29.873  0.00  0.00    +0.000 A 
ATOM     21  C   UNK     1     -27.798  -1.934  29.856  0.00  0.00    +0.000 A 
ATOM     22  C   UNK     1     -26.542  -2.327  30.258  0.00  0.00    +0.000 A 
ATOM     23  C   UNK     1     -25.451  -1.552  29.908  0.00  0.00    +0.000 A 
ATOM     24  C   UNK     1     -24.156  -1.910  30.281  0.00  0.00    +0.000 A 
ENDBRANCH   1  18
BRANCH   9  25
ATOM     25  O   UNK     1     -25.926   2.376  32.365  0.00  0.00    -0.470 OA
BRANCH  25  26
ATOM     26  C   UNK     1     -26.244   1.045  32.549  0.00  0.00    +0.232 C 
BRANCH  26  27
ATOM     27  C   UNK     1     -27.010   0.675  33.668  0.00  0.00    +0.200 C 
ATOM     28  N   UNK     1     -26.008   0.809  34.823  0.00  0.00    -0.120 NA
BRANCH  27  29
ATOM     29  C   UNK     1     -27.631  -0.626  33.643  0.00  0.00    +0.230 C 
ATOM     30  O   UNK     1     -27.659  -1.071  32.517  0.00  0.00    -0.287 OA
ENDBRANCH  27  29
ENDBRANCH  26  27
ENDBRANCH  25  26
ENDBRANCH   9  25
TORSDOF 5
