MODEL 3676
MODEL 1
REMARK VINA RESULT:    -4.981      0.000      0.000
REMARK INTER + INTRA:          -5.339
REMARK INTER:                  -5.273
REMARK INTRA:                  -0.066
REMARK UNBOUND:                -0.066
REMARK  Name = No_3676-gen_results/8p0m/2024-11-27-11-27-31/
REMARK  1 active torsions:
REMARK  status: ('A' for Active; 'I' for Inactive)
REMARK    1  A    between atoms: C_2  and  C_7
REMARK                            x       y       z     vdW  Elec       q    Type
REMARK                         _______ _______ _______ _____ _____    ______ ____
ROOT
ATOM      1  C   UNL A   1     -23.987  -3.623  28.640  0.00  0.00    +0.005 A 
ATOM      2  C   UNL A   1     -24.164  -2.720  29.155  0.00  0.00    +0.055 A 
ATOM      3  C   UNL A   1     -24.620  -4.785  29.262  0.00  0.00    +0.000 A 
ATOM      4  C   UNL A   1     -25.844  -4.910  29.265  0.00  0.00    +0.000 A 
ATOM      5  C   UNL A   1     -25.297  -2.336  29.792  0.00  0.00    +0.005 A 
ATOM      6  C   UNL A   1     -26.310  -3.375  30.026  0.00  0.00    +0.000 A 
ENDROOT
BRANCH   2   7
ATOM      7  C   UNL A   1     -23.327  -1.425  28.883  0.00  0.00    +0.265 C 
ATOM      8  O   UNL A   1     -22.103  -1.531  29.069  0.00  0.00    -0.268 OA
ATOM      9  N   UNL A   1     -23.878  -0.250  28.397  0.00  0.00    -0.200 NA
ATOM     10  C   UNL A   1     -23.055   0.859  27.997  0.00  0.00    +0.139 C 
ENDBRANCH   2   7
TORSDOF 1
ENDMDL
ENDMDL
