REMARK  Name = No_3676-gen_results/8p0m/2024-11-27-11-27-31/
REMARK  1 active torsions:
REMARK  status: ('A' for Active; 'I' for Inactive)
REMARK    1  A    between atoms: C_2  and  C_7
REMARK                            x       y       z     vdW  Elec       q    Type
REMARK                         _______ _______ _______ _____ _____    ______ ____
ROOT
ATOM      1  C   UNL A   1     -28.016  -0.814  28.878  0.00  0.00    +0.005 A 
ATOM      2  C   UNL A   1     -28.469  -0.785  29.829  0.00  0.00    +0.055 A 
ATOM      3  C   UNL A   1     -27.087   0.290  28.638  0.00  0.00    +0.000 A 
ATOM      4  C   UNL A   1     -26.024   0.364  29.253  0.00  0.00    +0.000 A 
ATOM      5  C   UNL A   1     -27.913  -0.395  31.002  0.00  0.00    +0.005 A 
ATOM      6  C   UNL A   1     -26.627   0.313  30.922  0.00  0.00    +0.000 A 
ENDROOT
BRANCH   2   7
ATOM      7  C   UNL A   1     -29.729  -1.646  30.181  0.00  0.00    +0.265 C 
ATOM      8  O   UNL A   1     -30.751  -1.390  29.523  0.00  0.00    -0.268 OA
ATOM      9  N   UNL A   1     -29.712  -2.678  31.106  0.00  0.00    -0.200 NA
ATOM     10  C   UNL A   1     -30.839  -3.555  31.276  0.00  0.00    +0.139 C 
ENDBRANCH   2   7
TORSDOF 1
