REMARK  Name = No_3677-gen_results/8p0m/2024-11-27-11-27-31/
REMARK  5 active torsions:
REMARK  status: ('A' for Active; 'I' for Inactive)
REMARK    1  A    between atoms: C_4  and  C_7
REMARK    2  A    between atoms: C_7  and  C_8
REMARK    3  A    between atoms: C_11  and  C_12
REMARK    4  A    between atoms: C_12  and  C_16
REMARK    5  A    between atoms: C_16  and  C_17
REMARK                            x       y       z     vdW  Elec       q    Type
REMARK                         _______ _______ _______ _____ _____    ______ ____
ROOT
ATOM      1  C   UNL A   1     -23.661   0.103  29.845  0.00  0.00    -0.022 A 
ATOM      2  C   UNL A   1     -22.421   0.158  29.193  0.00  0.00    -0.004 A 
ATOM      3  C   UNL A   1     -21.831   1.342  28.856  0.00  0.00    -0.000 A 
ATOM      4  C   UNL A   1     -24.136   1.345  30.372  0.00  0.00    -0.025 A 
ATOM      5  C   UNL A   1     -22.598   2.594  28.868  0.00  0.00    -0.000 A 
ATOM      6  C   UNL A   1     -23.658   2.584  29.858  0.00  0.00    -0.005 A 
ENDROOT
BRANCH   1   7
ATOM      7  C   UNL A   1     -24.355  -1.112  30.035  0.00  0.00    +0.054 C 
BRANCH   7  11
ATOM      8  C   UNL A   1     -28.016  -0.814  28.878  0.00  0.00    +0.018 A 
ATOM      9  C   UNL A   1     -28.469  -0.785  29.829  0.00  0.00    +0.001 A 
ATOM     10  C   UNL A   1     -26.546  -0.876  28.850  0.00  0.00    +0.085 A 
ATOM     11  C   UNL A   1     -25.804  -1.032  30.057  0.00  0.00    -0.001 A 
ATOM     12  C   UNL A   1     -26.537  -1.039  31.217  0.00  0.00    -0.003 A 
ATOM     13  C   UNL A   1     -27.884  -0.953  31.186  0.00  0.00    -0.000 A 
ATOM     14  N   UNL A   1     -25.799  -0.843  27.662  0.00  0.00    -0.128 NA
ENDBRANCH   7  11
ENDBRANCH   1   7
BRANCH   4  15
ATOM     15  C   UNL A   1     -25.347   1.367  31.180  0.00  0.00    +0.031 C 
BRANCH  15  16
ATOM     16  C   UNL A   1     -25.997   2.654  31.046  0.00  0.00    +0.030 C 
BRANCH  16  17
ATOM     17  C   UNL A   1     -26.838   2.724  29.964  0.00  0.00    -0.030 C 
ATOM     18  C   UNL A   1     -27.272   4.024  29.629  0.00  0.00    -0.030 C 
ATOM     19  C   UNL A   1     -28.021   4.189  28.408  0.00  0.00    +0.030 C 
ENDBRANCH  16  17
ENDBRANCH  15  16
ENDBRANCH   4  15
TORSDOF 5
