MODEL 3677
MODEL 1
REMARK VINA RESULT:    -7.398      0.000      0.000
REMARK INTER + INTRA:         -10.823
REMARK INTER:                  -9.560
REMARK INTRA:                  -1.263
REMARK UNBOUND:                -1.263
REMARK  Name = No_3677-gen_results/8p0m/2024-11-27-11-27-31/
REMARK  5 active torsions:
REMARK  status: ('A' for Active; 'I' for Inactive)
REMARK    1  A    between atoms: C_4  and  C_7
REMARK    2  A    between atoms: C_7  and  C_8
REMARK    3  A    between atoms: C_11  and  C_12
REMARK    4  A    between atoms: C_12  and  C_16
REMARK    5  A    between atoms: C_16  and  C_17
REMARK                            x       y       z     vdW  Elec       q    Type
REMARK                         _______ _______ _______ _____ _____    ______ ____
ROOT
ATOM      1  C   UNL A   1     -24.853  -0.456  27.936  0.00  0.00    -0.022 A 
ATOM      2  C   UNL A   1     -25.386  -0.395  26.641  0.00  0.00    -0.004 A 
ATOM      3  C   UNL A   1     -24.872   0.433  25.684  0.00  0.00    -0.000 A 
ATOM      4  C   UNL A   1     -23.590   0.190  28.114  0.00  0.00    -0.025 A 
ATOM      5  C   UNL A   1     -23.956   1.521  26.046  0.00  0.00    -0.000 A 
ATOM      6  C   UNL A   1     -23.160   1.209  27.217  0.00  0.00    -0.005 A 
ENDROOT
BRANCH   1   7
ATOM      7  C   UNL A   1     -25.487  -1.173  28.974  0.00  0.00    +0.054 C 
BRANCH   7  11
ATOM      8  C   UNL A   1     -26.011  -4.940  29.584  0.00  0.00    +0.018 A 
ATOM      9  C   UNL A   1     -25.079  -5.278  29.225  0.00  0.00    +0.001 A 
ATOM     10  C   UNL A   1     -26.228  -3.484  29.584  0.00  0.00    +0.085 A 
ATOM     11  C   UNL A   1     -25.271  -2.609  28.994  0.00  0.00    -0.001 A 
ATOM     12  C   UNL A   1     -24.131  -3.201  28.511  0.00  0.00    -0.003 A 
ATOM     13  C   UNL A   1     -23.972  -4.541  28.560  0.00  0.00    -0.000 A 
ATOM     14  N   UNL A   1     -27.385  -2.881  30.102  0.00  0.00    -0.128 NA
ENDBRANCH   7  11
ENDBRANCH   1   7
BRANCH   4  15
ATOM     15  C   UNL A   1     -22.893   0.069  29.387  0.00  0.00    +0.031 C 
BRANCH  15  16
ATOM     16  C   UNL A   1     -23.344   1.108  30.289  0.00  0.00    +0.030 C 
BRANCH  16  17
ATOM     17  C   UNL A   1     -23.839   0.620  31.472  0.00  0.00    -0.030 C 
ATOM     18  C   UNL A   1     -23.357  -0.654  31.839  0.00  0.00    -0.030 C 
ATOM     19  C   UNL A   1     -23.705  -1.154  33.146  0.00  0.00    +0.030 C 
ENDBRANCH  16  17
ENDBRANCH  15  16
ENDBRANCH   4  15
TORSDOF 5
ENDMDL
ENDMDL
