MODEL 3678
MODEL 1
REMARK VINA RESULT:    -4.249      0.000      0.000
REMARK INTER + INTRA:          -4.249
REMARK INTER:                  -4.249
REMARK INTRA:                   0.000
REMARK UNBOUND:                 0.000
REMARK  Name = No_3678-gen_results/8p0m/2024-11-27-11-27-31/
REMARK  0 active torsions:
REMARK  status: ('A' for Active; 'I' for Inactive)
REMARK                            x       y       z     vdW  Elec       q    Type
REMARK                         _______ _______ _______ _____ _____    ______ ____
ROOT
ATOM      1  C   UNL A   1     -25.088  -5.267  29.148  0.00  0.00    +0.000 A 
ATOM      2  C   UNL A   1     -26.088  -4.753  29.593  0.00  0.00    +0.000 A 
ATOM      3  C   UNL A   1     -26.209  -3.398  29.832  0.00  0.00    +0.000 A 
ATOM      4  C   UNL A   1     -25.107  -2.561  29.498  0.00  0.00    +0.000 A 
ATOM      5  C   UNL A   1     -24.082  -3.158  28.848  0.00  0.00    +0.000 A 
ATOM      6  C   UNL A   1     -24.069  -4.458  28.624  0.00  0.00    +0.000 A 
ENDROOT
TORSDOF 0
ENDMDL
ENDMDL
