MODEL 3679
MODEL 1
REMARK VINA RESULT:    -6.924      0.000      0.000
REMARK INTER + INTRA:          -7.414
REMARK INTER:                  -7.328
REMARK INTRA:                  -0.085
REMARK UNBOUND:                -0.085
REMARK  Name = No_3679-gen_results/8p0m/2024-11-27-11-27-31/
REMARK  1 active torsions:
REMARK  status: ('A' for Active; 'I' for Inactive)
REMARK    1  A    between atoms: C_11  and  C_16
REMARK                            x       y       z     vdW  Elec       q    Type
REMARK                         _______ _______ _______ _____ _____    ______ ____
ROOT
ATOM      1  C   UNL A   1     -29.572  -9.555  32.510  0.00  0.00    +0.019 A 
ATOM      2  C   UNL A   1     -29.955  -9.761  31.382  0.00  0.00    +0.081 A 
ATOM      3  N   UNL A   1     -30.980  -9.117  30.805  0.00  0.00    -0.245 NA
ATOM      4  C   UNL A   1     -31.481  -9.317  29.474  0.00  0.00    +0.081 A 
ATOM      5  C   UNL A   1     -30.684  -9.981  28.593  0.00  0.00    +0.014 A 
ATOM      6  C   UNL A   1     -31.102 -10.187  27.282  0.00  0.00    +0.001 A 
ATOM      7  C   UNL A   1     -32.255  -9.481  26.827  0.00  0.00    +0.000 A 
ATOM      8  C   UNL A   1     -33.027  -8.748  27.705  0.00  0.00    +0.002 A 
ATOM      9  C   UNL A   1     -32.606  -8.593  29.069  0.00  0.00    +0.019 A 
ATOM     10  C   UNL A   1     -28.847 -10.539  33.221  0.00  0.00    +0.008 A 
ATOM     11  C   UNL A   1     -28.197 -11.515  32.451  0.00  0.00    +0.080 A 
ATOM     12  C   UNL A   1     -28.477 -11.665  31.113  0.00  0.00    +0.008 A 
ATOM     13  C   UNL A   1     -29.460 -10.865  30.518  0.00  0.00    +0.014 A 
ATOM     14  C   UNL A   1     -29.795 -10.944  29.153  0.00  0.00    -0.019 A 
ATOM     15  C   UNL A   1     -29.106 -11.889  28.291  0.00  0.00    +0.031 C 
ENDROOT
BRANCH  11  16
ATOM     16  C   UNL A   1     -27.232 -12.435  33.130  0.00  0.00    +0.388 C 
ATOM     17  O   UNL A   1     -26.400 -12.991  32.566  0.00  0.00    -0.241 OA
ATOM     18  O   UNL A   1     -27.206 -12.209  34.417  0.00  0.00    -0.241 OA
ENDBRANCH  11  16
TORSDOF 1
ENDMDL
ENDMDL
