REMARK  Name = No_3679-gen_results/8p0m/2024-11-27-11-27-31/
REMARK  1 active torsions:
REMARK  status: ('A' for Active; 'I' for Inactive)
REMARK    1  A    between atoms: C_11  and  C_16
REMARK                            x       y       z     vdW  Elec       q    Type
REMARK                         _______ _______ _______ _____ _____    ______ ____
ROOT
ATOM      1  C   UNL A   1     -28.016  -0.814  28.878  0.00  0.00    +0.019 A 
ATOM      2  C   UNL A   1     -27.064  -0.119  28.608  0.00  0.00    +0.081 A 
ATOM      3  N   UNL A   1     -25.818  -0.343  29.049  0.00  0.00    -0.245 NA
ATOM      4  C   UNL A   1     -24.651   0.444  28.765  0.00  0.00    +0.081 A 
ATOM      5  C   UNL A   1     -24.715   1.312  27.719  0.00  0.00    +0.014 A 
ATOM      6  C   UNL A   1     -23.611   2.086  27.377  0.00  0.00    +0.001 A 
ATOM      7  C   UNL A   1     -22.358   1.772  27.982  0.00  0.00    +0.000 A 
ATOM      8  C   UNL A   1     -22.278   0.840  28.997  0.00  0.00    +0.002 A 
ATOM      9  C   UNL A   1     -23.443   0.089  29.372  0.00  0.00    +0.019 A 
ATOM     10  C   UNL A   1     -29.332  -0.303  28.805  0.00  0.00    +0.008 A 
ATOM     11  C   UNL A   1     -29.522   0.819  27.984  0.00  0.00    +0.080 A 
ATOM     12  C   UNL A   1     -28.452   1.537  27.506  0.00  0.00    +0.008 A 
ATOM     13  C   UNL A   1     -27.152   1.175  27.881  0.00  0.00    +0.014 A 
ATOM     14  C   UNL A   1     -26.003   1.847  27.424  0.00  0.00    -0.019 A 
ATOM     15  C   UNL A   1     -26.135   2.974  26.517  0.00  0.00    +0.031 C 
ENDROOT
BRANCH  11  16
ATOM     16  C   UNL A   1     -30.922   1.257  27.686  0.00  0.00    +0.388 C 
ATOM     17  O   UNL A   1     -31.595   1.762  28.468  0.00  0.00    -0.241 OA
ATOM     18  O   UNL A   1     -31.110   1.357  26.397  0.00  0.00    -0.241 OA
ENDBRANCH  11  16
TORSDOF 1
