MODEL 367
MODEL 1
REMARK VINA RESULT:    -7.181      0.000      0.000
REMARK INTER + INTRA:         -13.128
REMARK INTER:                 -10.120
REMARK INTRA:                  -3.008
REMARK UNBOUND:                -3.008
REMARK  Name = No_367-gen_results/8p0m/2024-11-27-11-27-31/
REMARK  7 active torsions:
REMARK  status: ('A' for Active; 'I' for Inactive)
REMARK    1  A    between atoms: C_4  and  O_11
REMARK    2  A    between atoms: O_11  and  C_12
REMARK    3  A    between atoms: C_15  and  C_18
REMARK    4  A    between atoms: N_19  and  C_21
REMARK    5  A    between atoms: C_21  and  C_22
REMARK    6  A    between atoms: C_22  and  C_23
REMARK    7  A    between atoms: C_27  and  C_29
REMARK                            x       y       z     vdW  Elec       q    Type
REMARK                         _______ _______ _______ _____ _____    ______ ____
ROOT
ATOM      1  C   UNL A   1     -27.049  -0.169  28.934  0.00  0.00    +0.145 A 
ATOM      2  C   UNL A   1     -27.845  -0.206  29.933  0.00  0.00    +0.037 A 
ATOM      3  C   UNL A   1     -25.940  -1.005  28.650  0.00  0.00    +0.042 A 
ATOM      4  C   UNL A   1     -25.724  -2.078  29.497  0.00  0.00    +0.058 A 
ATOM      5  C   UNL A   1     -27.685  -1.362  30.827  0.00  0.00    +0.003 A 
ATOM      6  C   UNL A   1     -26.653  -2.336  30.528  0.00  0.00    +0.005 A 
ENDROOT
BRANCH   4   7
ATOM      7  C   UNL A   1     -24.726  -3.079  29.225  0.00  0.00    +0.265 C 
ATOM      8  N   UNL A   1     -23.470  -2.819  29.186  0.00  0.00    -0.201 NA
ATOM      9  O   UNL A   1     -25.156  -4.306  29.197  0.00  0.00    -0.268 OA
BRANCH   8  10
ATOM     10  C   UNL A   1     -22.842  -1.512  29.067  0.00  0.00    +0.120 C 
BRANCH  10  11
ATOM     11  C   UNL A   1     -22.463  -0.770  30.188  0.00  0.00    +0.050 C 
BRANCH  11  12
ATOM     12  C   UNL A   1     -23.206  -0.225  30.940  0.00  0.00    -0.020 A 
ATOM     13  C   UNL A   1     -23.717   1.134  30.783  0.00  0.00    -0.004 A 
ATOM     14  C   UNL A   1     -24.897   1.613  31.379  0.00  0.00    -0.000 A 
ATOM     15  C   UNL A   1     -25.235   1.121  32.657  0.00  0.00    +0.004 A 
ATOM     16  C   UNL A   1     -24.582  -0.124  33.028  0.00  0.00    +0.055 A 
ATOM     17  C   UNL A   1     -23.649  -0.781  32.210  0.00  0.00    +0.000 A 
BRANCH  16  18
ATOM     18  C   UNL A   1     -24.982  -0.743  34.326  0.00  0.00    +0.265 C 
ATOM     19  O   UNL A   1     -24.226  -1.294  34.927  0.00  0.00    -0.268 OA
ATOM     20  N   UNL A   1     -26.182  -0.258  34.849  0.00  0.00    -0.200 NA
ATOM     21  C   UNL A   1     -26.625  -0.814  36.138  0.00  0.00    +0.139 C 
ENDBRANCH  16  18
ENDBRANCH  11  12
ENDBRANCH  10  11
ENDBRANCH   8  10
ENDBRANCH   4   7
BRANCH   1  22
ATOM     22  O   UNL A   1     -27.314   0.969  27.984  0.00  0.00    -0.454 OA
BRANCH  22  26
ATOM     23  C   UNL A   1     -24.697   2.163  27.518  0.00  0.00    +0.003 A 
ATOM     24  C   UNL A   1     -23.685   2.397  27.339  0.00  0.00    +0.000 A 
ATOM     25  C   UNL A   1     -25.336   1.327  26.542  0.00  0.00    +0.035 A 
ATOM     26  C   UNL A   1     -26.679   0.763  26.788  0.00  0.00    +0.145 A 
ATOM     27  C   UNL A   1     -27.482   0.332  25.795  0.00  0.00    +0.037 A 
ATOM     28  C   UNL A   1     -22.896   2.240  26.134  0.00  0.00    +0.000 A 
ATOM     29  C   UNL A   1     -23.471   1.515  25.184  0.00  0.00    +0.000 A 
ATOM     30  C   UNL A   1     -24.733   0.984  25.366  0.00  0.00    +0.003 A 
ATOM     31  C   UNL A   1     -26.854   0.028  24.495  0.00  0.00    +0.003 A 
ATOM     32  C   UNL A   1     -25.515   0.355  24.349  0.00  0.00    +0.000 A 
ENDBRANCH  22  26
ENDBRANCH   1  22
TORSDOF 7
ENDMDL
ENDMDL
