MODEL 3681
MODEL 1
REMARK VINA RESULT:    -8.308      0.000      0.000
REMARK INTER + INTRA:         -13.522
REMARK INTER:                 -11.708
REMARK INTRA:                  -1.815
REMARK UNBOUND:                -1.815
REMARK  Name = No_3681-gen_results/8p0m/2024-11-27-11-27-31/
REMARK  7 active torsions:
REMARK  status: ('A' for Active; 'I' for Inactive)
REMARK    1  A    between atoms: C_2  and  N_7
REMARK    2  A    between atoms: C_6  and  C_22
REMARK    3  A    between atoms: N_7  and  C_8
REMARK    4  A    between atoms: N_7  and  C_14
REMARK    5  A    between atoms: C_19  and  C_20
REMARK    6  A    between atoms: N_28  and  C_29
REMARK    7  A    between atoms: C_29  and  C_31
REMARK                            x       y       z     vdW  Elec       q    Type
REMARK                         _______ _______ _______ _____ _____    ______ ____
ROOT
ATOM      1  N   UNL A   1     -25.342  -1.195  29.232  0.00  0.00    -0.251 N 
ENDROOT
BRANCH   1   2
ATOM      2  C   UNL A   1     -25.559  -0.560  30.465  0.00  0.00    +0.059 A 
ATOM      3  C   UNL A   1     -24.705  -0.808  31.371  0.00  0.00    +0.022 A 
ATOM      4  C   UNL A   1     -26.639   0.276  30.638  0.00  0.00    +0.033 A 
ATOM      5  C   UNL A   1     -27.482   0.790  29.559  0.00  0.00    +0.100 A 
ATOM      6  C   UNL A   1     -26.926   0.927  31.824  0.00  0.00    +0.004 A 
ATOM      7  C   UNL A   1     -24.957  -0.622  32.720  0.00  0.00    +0.081 A 
ATOM      8  C   UNL A   1     -26.108   0.287  33.008  0.00  0.00    +0.007 A 
ATOM      9  C   UNL A   1     -27.988   1.654  32.175  0.00  0.00    +0.021 A 
ATOM     10  N   UNL A   1     -28.599   1.282  29.771  0.00  0.00    -0.242 NA
ATOM     11  C   UNL A   1     -28.853   1.723  31.089  0.00  0.00    +0.099 A 
BRANCH   7  12
ATOM     12  C   UNL A   1     -24.082  -0.960  33.802  0.00  0.00    +0.388 C 
ATOM     13  O   UNL A   1     -24.348  -0.947  34.786  0.00  0.00    -0.241 OA
ATOM     14  O   UNL A   1     -22.998  -1.570  33.410  0.00  0.00    -0.241 OA
ENDBRANCH   7  12
ENDBRANCH   1   2
BRANCH   1  16
ATOM     15  C   UNL A   1     -23.803   0.159  28.164  0.00  0.00    +0.042 A 
ATOM     16  C   UNL A   1     -24.843  -0.458  28.147  0.00  0.00    +0.141 A 
ATOM     17  N   UNL A   1     -25.675  -0.504  27.097  0.00  0.00    -0.214 NA
ATOM     18  C   UNL A   1     -25.329   0.224  25.952  0.00  0.00    +0.153 A 
ATOM     19  C   UNL A   1     -24.174   0.953  25.963  0.00  0.00    +0.043 A 
ATOM     20  C   UNL A   1     -23.416   0.950  27.030  0.00  0.00    +0.085 A 
ATOM     21  N   UNL A   1     -26.137   0.128  24.838  0.00  0.00    -0.194 NA
BRANCH  20  22
ATOM     22  C   UNL A   1     -22.176   1.797  27.051  0.00  0.00    +0.388 C 
ATOM     23  O   UNL A   1     -21.620   2.080  25.975  0.00  0.00    -0.240 OA
ATOM     24  O   UNL A   1     -21.661   2.226  28.114  0.00  0.00    -0.240 OA
ENDBRANCH  20  22
BRANCH  21  25
ATOM     25  C   UNL A   1     -27.448   0.615  24.882  0.00  0.00    +0.072 C 
ATOM     26  C   UNL A   1     -27.608   1.928  25.363  0.00  0.00    +0.018 C 
BRANCH  25  27
ATOM     27  C   UNL A   1     -28.559  -0.235  24.632  0.00  0.00    +0.012 C 
ATOM     28  C   UNL A   1     -29.060  -0.836  23.842  0.00  0.00    -0.025 C 
ATOM     29  C   UNL A   1     -30.246  -1.710  23.649  0.00  0.00    +0.031 C 
ENDBRANCH  25  27
ENDBRANCH  21  25
ENDBRANCH   1  16
BRANCH   1  30
ATOM     30  C   UNL A   1     -25.427  -2.515  29.224  0.00  0.00    +0.057 A 
ATOM     31  C   UNL A   1     -26.163  -3.300  29.546  0.00  0.00    +0.015 A 
ATOM     32  C   UNL A   1     -26.062  -4.822  29.550  0.00  0.00    +0.001 A 
ATOM     33  C   UNL A   1     -24.138  -3.266  28.690  0.00  0.00    +0.015 A 
ATOM     34  C   UNL A   1     -24.007  -4.606  28.559  0.00  0.00    +0.001 A 
ATOM     35  C   UNL A   1     -25.021  -5.400  29.017  0.00  0.00    +0.000 A 
ENDBRANCH   1  30
TORSDOF 7
ENDMDL
ENDMDL
