REMARK  Name = No_3681-gen_results/8p0m/2024-11-27-11-27-31/
REMARK  7 active torsions:
REMARK  status: ('A' for Active; 'I' for Inactive)
REMARK    1  A    between atoms: C_2  and  N_7
REMARK    2  A    between atoms: C_6  and  C_22
REMARK    3  A    between atoms: N_7  and  C_8
REMARK    4  A    between atoms: N_7  and  C_14
REMARK    5  A    between atoms: C_19  and  C_20
REMARK    6  A    between atoms: N_28  and  C_29
REMARK    7  A    between atoms: C_29  and  C_31
REMARK                            x       y       z     vdW  Elec       q    Type
REMARK                         _______ _______ _______ _____ _____    ______ ____
ROOT
ATOM      1  N   UNL A   1     -27.129   1.036  27.814  0.00  0.00    -0.251 N 
ENDROOT
BRANCH   1   2
ATOM      2  C   UNL A   1     -28.179   1.192  26.895  0.00  0.00    +0.059 A 
ATOM      3  C   UNL A   1     -29.154   1.904  27.287  0.00  0.00    +0.022 A 
ATOM      4  C   UNL A   1     -28.113   0.597  25.656  0.00  0.00    +0.033 A 
ATOM      5  C   UNL A   1     -26.911   0.000  25.075  0.00  0.00    +0.100 A 
ATOM      6  C   UNL A   1     -29.110   0.694  24.702  0.00  0.00    +0.004 A 
ATOM      7  C   UNL A   1     -30.415   1.840  26.718  0.00  0.00    +0.081 A 
ATOM      8  C   UNL A   1     -30.442   1.220  25.359  0.00  0.00    +0.007 A 
ATOM      9  C   UNL A   1     -29.244   0.079  23.526  0.00  0.00    +0.021 A 
ATOM     10  N   UNL A   1     -26.959  -0.776  24.110  0.00  0.00    -0.242 NA
ATOM     11  C   UNL A   1     -28.133  -0.733  23.325  0.00  0.00    +0.099 A 
BRANCH   7  12
ATOM     12  C   UNL A   1     -31.582   2.542  27.159  0.00  0.00    +0.388 C 
ATOM     13  O   UNL A   1     -31.880   2.615  28.131  0.00  0.00    -0.241 OA
ATOM     14  O   UNL A   1     -32.079   3.330  26.246  0.00  0.00    -0.241 OA
ENDBRANCH   7  12
ENDBRANCH   1   2
BRANCH   1  16
ATOM     15  C   UNL A   1     -28.016  -0.814  28.878  0.00  0.00    +0.042 A 
ATOM     16  C   UNL A   1     -27.064  -0.119  28.608  0.00  0.00    +0.141 A 
ATOM     17  N   UNL A   1     -25.818  -0.343  29.049  0.00  0.00    -0.214 NA
ATOM     18  C   UNL A   1     -25.607  -1.441  29.893  0.00  0.00    +0.153 A 
ATOM     19  C   UNL A   1     -26.676  -2.219  30.236  0.00  0.00    +0.043 A 
ATOM     20  C   UNL A   1     -27.863  -1.932  29.767  0.00  0.00    +0.085 A 
ATOM     21  N   UNL A   1     -24.319  -1.727  30.296  0.00  0.00    -0.194 NA
BRANCH  20  22
ATOM     22  C   UNL A   1     -29.040  -2.762  30.192  0.00  0.00    +0.388 C 
ATOM     23  O   UNL A   1     -28.893  -3.989  30.337  0.00  0.00    -0.240 OA
ATOM     24  O   UNL A   1     -30.180  -2.275  30.398  0.00  0.00    -0.240 OA
ENDBRANCH  20  22
BRANCH  21  25
ATOM     25  C   UNL A   1     -23.627  -0.828  31.114  0.00  0.00    +0.072 C 
ATOM     26  C   UNL A   1     -22.223  -0.849  31.013  0.00  0.00    +0.018 C 
BRANCH  25  27
ATOM     27  C   UNL A   1     -24.297  -0.076  32.117  0.00  0.00    +0.012 C 
ATOM     28  C   UNL A   1     -25.184   0.568  32.303  0.00  0.00    -0.025 C 
ATOM     29  C   UNL A   1     -25.828   1.339  33.397  0.00  0.00    +0.031 C 
ENDBRANCH  25  27
ENDBRANCH  21  25
ENDBRANCH   1  16
BRANCH   1  30
ATOM     30  C   UNL A   1     -26.134   1.904  27.728  0.00  0.00    +0.057 A 
ATOM     31  C   UNL A   1     -25.437   2.289  26.936  0.00  0.00    +0.015 A 
ATOM     32  C   UNL A   1     -24.253   3.246  27.027  0.00  0.00    +0.001 A 
ATOM     33  C   UNL A   1     -25.707   2.572  29.099  0.00  0.00    +0.015 A 
ATOM     34  C   UNL A   1     -24.742   3.509  29.250  0.00  0.00    +0.001 A 
ATOM     35  C   UNL A   1     -23.994   3.844  28.157  0.00  0.00    +0.000 A 
ENDBRANCH   1  30
TORSDOF 7
