REMARK  Name = No_3682-gen_results/8p0m/2024-11-27-11-27-31/
REMARK  8 active torsions:
REMARK  status: ('A' for Active; 'I' for Inactive)
REMARK    1  A    between atoms: N_1  and  C_31
REMARK    2  A    between atoms: C_2  and  C_3
REMARK    3  A    between atoms: C_5  and  C_6
REMARK    4  A    between atoms: C_7  and  C_8
REMARK    5  A    between atoms: C_17  and  C_21
REMARK    6  A    between atoms: C_21  and  C_22
REMARK    7  A    between atoms: C_26  and  C_28
REMARK    8  A    between atoms: C_31  and  C_32
REMARK                            x       y       z     vdW  Elec       q    Type
REMARK                         _______ _______ _______ _____ _____    ______ ____
ROOT
ATOM      1  C   UNL A   1     -27.174   0.756  28.107  0.00  0.00    +0.104 C 
ATOM      2  C   UNL A   1     -25.820   1.261  28.215  0.00  0.00    -0.020 C 
ATOM      3  C   UNL A   1     -24.893   0.836  27.388  0.00  0.00    -0.005 C 
ATOM      4  C   UNL A   1     -27.914   1.148  26.930  0.00  0.00    +0.036 C 
ATOM      5  C   UNL A   1     -25.204   0.176  26.172  0.00  0.00    +0.053 C 
ATOM      6  C   UNL A   1     -27.570   0.569  25.727  0.00  0.00    -0.041 C 
ATOM      7  C   UNL A   1     -26.245   0.413  25.257  0.00  0.00    -0.029 C 
ENDROOT
BRANCH   3   8
ATOM      8  C   UNL A   1     -23.508   1.034  27.637  0.00  0.00    +0.081 C 
ATOM      9  C   UNL A   1     -22.718   0.375  28.297  0.00  0.00    -0.005 C 
ATOM     10  N   UNL A   1     -23.188   2.354  27.170  0.00  0.00    -0.129 NA
ATOM     11  C   UNL A   1     -21.274   0.661  28.512  0.00  0.00    +0.032 C 
BRANCH   9  12
ATOM     12  C   UNL A   1     -23.225  -0.706  29.113  0.00  0.00    -0.003 A 
ATOM     13  C   UNL A   1     -23.750  -0.880  30.026  0.00  0.00    -0.000 A 
ATOM     14  C   UNL A   1     -24.241  -2.144  30.524  0.00  0.00    -0.000 A 
ATOM     15  C   UNL A   1     -24.367  -3.091  29.545  0.00  0.00    -0.000 A 
ATOM     16  C   UNL A   1     -23.922  -2.960  28.319  0.00  0.00    -0.000 A 
ATOM     17  C   UNL A   1     -23.288  -1.824  28.077  0.00  0.00    -0.000 A 
ENDBRANCH   9  12
ENDBRANCH   3   8
BRANCH   1  19
ATOM     18  N   UNL A   1     -28.054  -1.050  28.725  0.00  0.00    -0.199 NA
ATOM     19  C   UNL A   1     -27.746  -0.073  29.010  0.00  0.00    +0.246 C 
ATOM     20  O   UNL A   1     -27.822   0.346  30.246  0.00  0.00    -0.273 OA
BRANCH  18  21
ATOM     21  C   UNL A   1     -28.454  -2.086  29.876  0.00  0.00    +0.164 C 
BRANCH  21  22
ATOM     22  C   UNL A   1     -27.696  -3.181  29.974  0.00  0.00    +0.119 C 
ATOM     23  N   UNL A   1     -28.206  -4.286  30.709  0.00  0.00    -0.149 NA
ENDBRANCH  21  22
ENDBRANCH  18  21
ENDBRANCH   1  19
BRANCH   6  24
ATOM     24  C   UNL A   1     -28.459   0.671  24.594  0.00  0.00    +0.068 C 
BRANCH  24  25
ATOM     25  C   UNL A   1     -29.793   0.438  25.010  0.00  0.00    +0.063 A 
ATOM     26  N   UNL A   1     -30.712   0.262  24.081  0.00  0.00    -0.248 NA
ATOM     27  C   UNL A   1     -31.984   0.303  24.225  0.00  0.00    +0.099 A 
ATOM     28  C   UNL A   1     -32.614   0.001  25.053  0.00  0.00    +0.027 A 
ATOM     29  C   UNL A   1     -31.805   0.015  26.402  0.00  0.00    +0.083 A 
ATOM     30  C   UNL A   1     -30.436   0.261  26.324  0.00  0.00    +0.022 A 
BRANCH  29  31
ATOM     31  C   UNL A   1     -32.471  -0.137  27.701  0.00  0.00    +0.388 C 
ATOM     32  O   UNL A   1     -32.696   0.789  28.407  0.00  0.00    -0.241 OA
ATOM     33  O   UNL A   1     -32.672  -1.359  28.048  0.00  0.00    -0.241 OA
ENDBRANCH  29  31
ENDBRANCH  24  25
ENDBRANCH   6  24
TORSDOF 8
