MODEL 3682
MODEL 1
REMARK VINA RESULT:    -7.237      0.000      0.000
REMARK INTER + INTRA:         -13.008
REMARK INTER:                 -10.622
REMARK INTRA:                  -2.387
REMARK UNBOUND:                -2.387
REMARK  Name = No_3682-gen_results/8p0m/2024-11-27-11-27-31/
REMARK  8 active torsions:
REMARK  status: ('A' for Active; 'I' for Inactive)
REMARK    1  A    between atoms: N_1  and  C_31
REMARK    2  A    between atoms: C_2  and  C_3
REMARK    3  A    between atoms: C_5  and  C_6
REMARK    4  A    between atoms: C_7  and  C_8
REMARK    5  A    between atoms: C_17  and  C_21
REMARK    6  A    between atoms: C_21  and  C_22
REMARK    7  A    between atoms: C_26  and  C_28
REMARK    8  A    between atoms: C_31  and  C_32
REMARK                            x       y       z     vdW  Elec       q    Type
REMARK                         _______ _______ _______ _____ _____    ______ ____
ROOT
ATOM      1  C   UNL A   1     -27.144   0.905  27.094  0.00  0.00    +0.104 C 
ATOM      2  C   UNL A   1     -25.797   1.388  27.326  0.00  0.00    -0.020 C 
ATOM      3  C   UNL A   1     -24.790   0.870  26.661  0.00  0.00    -0.005 C 
ATOM      4  C   UNL A   1     -27.721   1.205  25.804  0.00  0.00    +0.036 C 
ATOM      5  C   UNL A   1     -24.971   0.111  25.477  0.00  0.00    +0.053 C 
ATOM      6  C   UNL A   1     -27.251   0.513  24.708  0.00  0.00    -0.041 C 
ATOM      7  C   UNL A   1     -25.884   0.287  24.423  0.00  0.00    -0.029 C 
ENDROOT
BRANCH   3   8
ATOM      8  C   UNL A   1     -23.440   1.060  27.063  0.00  0.00    +0.081 C 
ATOM      9  C   UNL A   1     -22.774   0.477  27.905  0.00  0.00    -0.005 C 
ATOM     10  N   UNL A   1     -23.001   2.292  26.468  0.00  0.00    -0.129 NA
ATOM     11  C   UNL A   1     -21.357   0.747  28.269  0.00  0.00    +0.032 C 
BRANCH   9  12
ATOM     12  C   UNL A   1     -23.432  -0.463  28.785  0.00  0.00    -0.003 A 
ATOM     13  C   UNL A   1     -23.663  -1.502  28.864  0.00  0.00    -0.000 A 
ATOM     14  C   UNL A   1     -24.255  -2.182  29.993  0.00  0.00    -0.000 A 
ATOM     15  C   UNL A   1     -24.130  -1.482  31.162  0.00  0.00    -0.000 A 
ATOM     16  C   UNL A   1     -23.698  -0.248  31.250  0.00  0.00    -0.000 A 
ATOM     17  C   UNL A   1     -23.406   0.322  30.092  0.00  0.00    -0.000 A 
ENDBRANCH   9  12
ENDBRANCH   3   8
BRANCH   1  19
ATOM     18  N   UNL A   1     -27.395  -0.156  28.891  0.00  0.00    -0.199 NA
ATOM     19  C   UNL A   1     -27.848   0.173  27.987  0.00  0.00    +0.246 C 
ATOM     20  O   UNL A   1     -29.113  -0.033  27.729  0.00  0.00    -0.273 OA
BRANCH  18  21
ATOM     21  C   UNL A   1     -28.335  -0.762  30.034  0.00  0.00    +0.164 C 
BRANCH  21  22
ATOM     22  C   UNL A   1     -27.842  -1.799  30.716  0.00  0.00    +0.119 C 
ATOM     23  N   UNL A   1     -27.834  -3.073  30.086  0.00  0.00    -0.149 NA
ENDBRANCH  21  22
ENDBRANCH  18  21
ENDBRANCH   1  19
BRANCH   6  24
ATOM     24  C   UNL A   1     -27.991   0.531  23.468  0.00  0.00    +0.068 C 
BRANCH  24  25
ATOM     25  C   UNL A   1     -29.329   0.130  23.704  0.00  0.00    +0.063 A 
ATOM     26  N   UNL A   1     -30.291   0.994  23.449  0.00  0.00    -0.248 NA
ATOM     27  C   UNL A   1     -31.513   0.936  23.830  0.00  0.00    +0.099 A 
ATOM     28  C   UNL A   1     -32.171   0.088  23.975  0.00  0.00    +0.027 A 
ATOM     29  C   UNL A   1     -31.340  -1.221  24.246  0.00  0.00    +0.083 A 
ATOM     30  C   UNL A   1     -29.955  -1.135  24.126  0.00  0.00    +0.022 A 
BRANCH  29  31
ATOM     31  C   UNL A   1     -31.984  -2.462  24.692  0.00  0.00    +0.388 C 
ATOM     32  O   UNL A   1     -33.119  -2.707  24.451  0.00  0.00    -0.241 OA
ATOM     33  O   UNL A   1     -31.249  -3.188  25.458  0.00  0.00    -0.241 OA
ENDBRANCH  29  31
ENDBRANCH  24  25
ENDBRANCH   6  24
TORSDOF 8
ENDMDL
ENDMDL
