MODEL 3683
MODEL 1
REMARK VINA RESULT:    -8.684      0.000      0.000
REMARK INTER + INTRA:         -13.653
REMARK INTER:                 -12.745
REMARK INTRA:                  -0.907
REMARK UNBOUND:                -0.907
REMARK  Name = No_3683-gen_results/8p0m/2024-11-27-11-27-31/
REMARK  8 active torsions:
REMARK  status: ('A' for Active; 'I' for Inactive)
REMARK    1  A    between atoms: C_3  and  C_8
REMARK    2  A    between atoms: C_6  and  O_7
REMARK    3  A    between atoms: O_7  and  C_14
REMARK    4  A    between atoms: C_14  and  C_15
REMARK    5  A    between atoms: C_15  and  C_16
REMARK    6  A    between atoms: C_20  and  C_28
REMARK    7  A    between atoms: C_21  and  C_22
REMARK    8  A    between atoms: C_27  and  C_32
REMARK                            x       y       z     vdW  Elec       q    Type
REMARK                         _______ _______ _______ _____ _____    ______ ____
ROOT
ATOM      1  C   UNL A   1     -24.585   0.377  26.227  0.00  0.00    -0.011 A 
ATOM      2  C   UNL A   1     -24.171   1.296  25.586  0.00  0.00    -0.004 A 
ATOM      3  C   UNL A   1     -23.209   2.230  26.203  0.00  0.00    -0.000 A 
ATOM      4  C   UNL A   1     -22.971   2.183  27.388  0.00  0.00    +0.007 A 
ATOM      5  C   UNL A   1     -23.387   1.117  28.189  0.00  0.00    +0.080 A 
ATOM      6  C   UNL A   1     -24.272   0.237  27.696  0.00  0.00    +0.003 A 
ENDROOT
BRANCH   6   7
ATOM      7  C   UNL A   1     -24.842  -0.782  28.527  0.00  0.00    -0.000 A 
ATOM      8  C   UNL A   1     -25.807  -0.700  28.925  0.00  0.00    -0.000 A 
ATOM      9  C   UNL A   1     -26.549  -1.800  29.678  0.00  0.00    -0.000 A 
ATOM     10  C   UNL A   1     -26.007  -3.020  29.670  0.00  0.00    -0.000 A 
ATOM     11  C   UNL A   1     -24.198  -2.121  28.370  0.00  0.00    -0.000 A 
ATOM     12  C   UNL A   1     -24.791  -3.211  29.002  0.00  0.00    -0.000 A 
BRANCH  12  13
ATOM     13  C   UNL A   1     -24.220  -4.571  28.950  0.00  0.00    -0.000 C 
ATOM     14  C   UNL A   1     -25.075  -5.621  28.996  0.00  0.00    +0.000 C 
ENDBRANCH  12  13
ENDBRANCH   6   7
BRANCH   5  15
ATOM     15  C   UNL A   1     -23.032   1.017  29.589  0.00  0.00    +0.388 C 
ATOM     16  O   UNL A   1     -23.271   1.747  30.415  0.00  0.00    -0.241 OA
ATOM     17  O   UNL A   1     -21.963   0.199  29.779  0.00  0.00    -0.241 OA
ENDBRANCH   5  15
BRANCH   1  18
ATOM     18  C   UNL A   1     -25.709  -0.231  26.044  0.00  0.00    +0.136 C 
BRANCH  18  19
ATOM     19  C   UNL A   1     -26.794   0.646  25.672  0.00  0.00    +0.326 C 
ATOM     20  O   UNL A   1     -27.417   1.381  26.517  0.00  0.00    -0.249 OA
BRANCH  19  21
ATOM     21  O   UNL A   1     -27.061   0.689  24.338  0.00  0.00    -0.424 OA
BRANCH  21  27
ATOM     22  C   UNL A   1     -28.821   2.171  23.462  0.00  0.00    +0.038 A 
ATOM     23  C   UNL A   1     -29.922   2.325  22.987  0.00  0.00    +0.003 A 
ATOM     24  C   UNL A   1     -30.809   1.261  22.870  0.00  0.00    +0.000 A 
ATOM     25  C   UNL A   1     -30.427  -0.069  23.269  0.00  0.00    +0.003 A 
ATOM     26  C   UNL A   1     -29.128  -0.162  23.785  0.00  0.00    +0.038 A 
ATOM     27  C   UNL A   1     -28.322   0.873  23.859  0.00  0.00    +0.148 A 
BRANCH  24  28
ATOM     28  C   UNL A   1     -32.208   1.328  22.307  0.00  0.00    +0.000 A 
ATOM     29  C   UNL A   1     -32.528   1.800  21.153  0.00  0.00    +0.000 A 
ATOM     30  C   UNL A   1     -33.895   1.743  20.665  0.00  0.00    +0.000 A 
ATOM     31  C   UNL A   1     -34.814   0.925  21.340  0.00  0.00    +0.000 A 
ATOM     32  C   UNL A   1     -33.204   0.481  22.953  0.00  0.00    +0.000 A 
ATOM     33  C   UNL A   1     -34.467   0.344  22.465  0.00  0.00    +0.000 A 
ENDBRANCH  24  28
ENDBRANCH  21  27
ENDBRANCH  19  21
ENDBRANCH  18  19
ENDBRANCH   1  18
TORSDOF 8
ENDMDL
ENDMDL
