MODEL 3684
MODEL 1
REMARK VINA RESULT:    -4.536      0.000      0.000
REMARK INTER + INTRA:          -4.536
REMARK INTER:                  -4.536
REMARK INTRA:                   0.000
REMARK UNBOUND:                 0.000
REMARK  Name = No_3684-gen_results/8p0m/2024-11-27-11-27-31/
REMARK  0 active torsions:
REMARK  status: ('A' for Active; 'I' for Inactive)
REMARK                            x       y       z     vdW  Elec       q    Type
REMARK                         _______ _______ _______ _____ _____    ______ ____
ROOT
ATOM      1  C   UNL A   1     -23.994  -4.399  28.652  0.00  0.00    +0.030 A 
ATOM      2  C   UNL A   1     -24.891  -4.909  28.869  0.00  0.00    +0.140 A 
ATOM      3  C   UNL A   1     -23.985  -2.926  28.995  0.00  0.00    +0.002 A 
ATOM      4  C   UNL A   1     -25.079  -2.372  29.693  0.00  0.00    +0.000 A 
ATOM      5  C   UNL A   1     -26.133  -4.586  29.606  0.00  0.00    +0.030 A 
ATOM      6  C   UNL A   1     -26.158  -3.240  29.944  0.00  0.00    +0.002 A 
ATOM      7  F   UNL A   1     -24.889  -6.325  28.549  0.00  0.00    -0.204 F 
ENDROOT
TORSDOF 0
ENDMDL
ENDMDL
