MODEL 3685
MODEL 1
REMARK VINA RESULT:    -4.497      0.000      0.000
REMARK INTER + INTRA:          -4.497
REMARK INTER:                  -4.497
REMARK INTRA:                   0.000
REMARK UNBOUND:                 0.000
REMARK  Name = No_3685-gen_results/8p0m/2024-11-27-11-27-31/
REMARK  0 active torsions:
REMARK  status: ('A' for Active; 'I' for Inactive)
REMARK                            x       y       z     vdW  Elec       q    Type
REMARK                         _______ _______ _______ _____ _____    ______ ____
ROOT
ATOM      1  C   UNL A   1     -25.359  -2.563  29.735  0.00  0.00    +0.042 A 
ATOM      2  C   UNL A   1     -26.326  -3.263  29.930  0.00  0.00    +0.003 A 
ATOM      3  C   UNL A   1     -26.299  -4.622  29.640  0.00  0.00    +0.000 A 
ATOM      4  C   UNL A   1     -25.133  -5.232  29.055  0.00  0.00    +0.003 A 
ATOM      5  C   UNL A   1     -24.069  -4.346  28.841  0.00  0.00    +0.042 A 
ATOM      6  C   UNL A   1     -24.151  -3.065  29.117  0.00  0.00    +0.196 A 
ATOM      7  O   UNL A   1     -23.084  -2.265  28.843  0.00  0.00    -0.287 OA
ENDROOT
TORSDOF 0
ENDMDL
ENDMDL
