MODEL 3686
MODEL 1
REMARK VINA RESULT:    -4.765      0.000      0.000
REMARK INTER + INTRA:          -5.394
REMARK INTER:                  -5.322
REMARK INTRA:                  -0.071
REMARK UNBOUND:                -0.071
REMARK  Name = No_3686-gen_results/8p0m/2024-11-27-11-27-31/
REMARK  2 active torsions:
REMARK  status: ('A' for Active; 'I' for Inactive)
REMARK    1  A    between atoms: C_3  and  C_4
REMARK    2  A    between atoms: C_4  and  C_8
REMARK                            x       y       z     vdW  Elec       q    Type
REMARK                         _______ _______ _______ _____ _____    ______ ____
ROOT
ATOM      1  C   UNL A   1     -26.425  -3.497  29.878  0.00  0.00    -0.000 A 
ATOM      2  C   UNL A   1     -25.575  -2.644  29.766  0.00  0.00    -0.004 A 
ATOM      3  C   UNL A   1     -24.345  -2.928  29.183  0.00  0.00    -0.016 A 
ATOM      4  C   UNL A   1     -26.094  -4.900  29.619  0.00  0.00    -0.000 A 
ATOM      5  C   UNL A   1     -24.947  -5.260  28.957  0.00  0.00    -0.000 A 
ATOM      6  C   UNL A   1     -24.003  -4.256  28.726  0.00  0.00    -0.004 A 
ENDROOT
BRANCH   3   7
ATOM      7  C   UNL A   1     -23.343  -1.948  28.962  0.00  0.00    +0.075 C 
BRANCH   7   8
ATOM      8  C   UNL A   1     -23.204  -0.782  29.593  0.00  0.00    +0.100 C 
ATOM      9  N   UNL A   1     -22.706  -0.724  30.853  0.00  0.00    -0.151 NA
ENDBRANCH   7   8
ENDBRANCH   3   7
TORSDOF 2
ENDMDL
ENDMDL
