REMARK  Name = outputs/IAG933/test6/raw/output_3688_IAG933_linker_design_.xyz
REMARK  17 active torsions:
REMARK  status: ('A' for Active; 'I' for Inactive)
REMARK    1  A    between atoms: C_1  and  C_2
REMARK    2  A    between atoms: C_1  and  C_8
REMARK    3  A    between atoms: C_1  and  C_30
REMARK    4  A    between atoms: C_13  and  N_37
REMARK    5  A    between atoms: C_14  and  C_15
REMARK    6  A    between atoms: C_21  and  O_22
REMARK    7  A    between atoms: O_22  and  C_23
REMARK    8  A    between atoms: C_23  and  C_24
REMARK    9  A    between atoms: C_28  and  C_30
REMARK   10  A    between atoms: C_30  and  N_37
REMARK   11  A    between atoms: C_31  and  C_32
REMARK   12  A    between atoms: C_31  and  C_44
REMARK   13  A    between atoms: C_34  and  C_35
REMARK   14  A    between atoms: C_35  and  N_39
REMARK   15  A    between atoms: N_37  and  C_42
REMARK   16  A    between atoms: N_40  and  C_44
REMARK   17  A    between atoms: C_42  and  C_43
REMARK                            x       y       z     vdW  Elec       q    Type
REMARK                         _______ _______ _______ _____ _____    ______ ____
ROOT
ATOM      1  C   UNL A   1     -25.347  -0.125  28.793  0.00  0.00    +0.142 C 
ENDROOT
BRANCH   1   2
ATOM      2  C   UNL A   1     -26.823   0.253  29.018  0.00  0.00    +0.256 C 
ATOM      3  N   UNL A   1     -27.860  -0.580  28.615  0.00  0.00    -0.204 NA
ATOM      4  O   UNL A   1     -27.033   1.355  29.512  0.00  0.00    -0.272 OA
BRANCH   3   5
ATOM      5  C   UNL A   1     -29.300  -0.344  28.495  0.00  0.00    +0.125 C 
BRANCH   5   6
ATOM      6  C   UNL A   1     -30.113   0.164  27.283  0.00  0.00    +0.110 C 
BRANCH   6   7
ATOM      7  C   UNL A   1     -30.672   1.523  27.660  0.00  0.00    +0.243 C 
ATOM      8  O   UNL A   1     -30.174   2.256  28.629  0.00  0.00    -0.273 OA
ATOM      9  N   UNL A   1     -31.965   1.651  27.068  0.00  0.00    -0.204 NA
BRANCH   9  10
ATOM     10  C   UNL A   1     -32.604   2.746  27.751  0.00  0.00    +0.136 C 
BRANCH  10  11
ATOM     11  C   UNL A   1     -33.291   2.179  28.931  0.00  0.00    +0.133 C 
ATOM     12  N   UNL A   1     -34.445   1.490  28.226  0.00  0.00    -0.129 NA
ENDBRANCH  10  11
ENDBRANCH   9  10
ENDBRANCH   6   7
ENDBRANCH   5   6
ENDBRANCH   3   5
ENDBRANCH   1   2
BRANCH   1  13
ATOM     13  C   UNL A   1     -24.855  -1.012  30.143  0.00  0.00    +0.062 C 
BRANCH  13  14
ATOM     14  C   UNL A   1     -24.973  -2.505  29.788  0.00  0.00    -0.019 C 
ATOM     15  C   UNL A   1     -23.906  -3.173  29.146  0.00  0.00    -0.004 C 
ATOM     16  C   UNL A   1     -23.989  -4.549  28.853  0.00  0.00    -0.000 C 
ATOM     17  C   UNL A   1     -25.137  -5.280  29.205  0.00  0.00    -0.000 C 
ATOM     18  C   UNL A   1     -26.232  -4.611  29.784  0.00  0.00    -0.000 C 
ATOM     19  C   UNL A   1     -26.155  -3.232  30.065  0.00  0.00    -0.004 C 
ENDBRANCH  13  14
BRANCH  13  20
ATOM     20  C   UNL A   1     -25.387  -0.679  31.571  0.00  0.00    +0.079 C 
ATOM     21  C   UNL A   1     -25.189   0.773  32.028  0.00  0.00    +0.019 C 
ATOM     22  C   UNL A   1     -25.336   0.684  33.544  0.00  0.00    +0.020 C 
ATOM     23  C   UNL A   1     -24.829  -0.715  33.905  0.00  0.00    +0.089 C 
ATOM     24  N   UNL A   1     -24.758  -1.481  32.646  0.00  0.00    -0.219 NA
ENDBRANCH  13  20
ENDBRANCH   1  13
BRANCH   1  25
ATOM     25  N   UNL A   1     -24.808   1.022  27.601  0.00  0.00    -0.256 NA
BRANCH  25  26
ATOM     26  C   UNL A   1     -25.688   1.614  26.461  0.00  0.00    +0.129 C 
ATOM     27  C   UNL A   1     -26.250   2.920  26.395  0.00  0.00    +0.070 C 
ATOM     28  C   UNL A   1     -27.438   3.091  25.645  0.00  0.00    +0.103 C 
ATOM     29  N   UNL A   1     -28.075   2.089  25.003  0.00  0.00    -0.212 NA
ATOM     30  C   UNL A   1     -27.543   0.849  25.079  0.00  0.00    +0.235 C 
ATOM     31  C   UNL A   1     -26.354   0.576  25.777  0.00  0.00    +0.255 C 
ATOM     32  F   UNL A   1     -25.860  -0.681  25.795  0.00  0.00    -0.225 F 
BRANCH  27  33
ATOM     33  C   UNL A   1     -25.642   4.093  27.123  0.00  0.00    +0.264 C 
ATOM     34  N   UNL A   1     -25.614   5.252  26.449  0.00  0.00    -0.200 NA
ATOM     35  C   UNL A   1     -25.026   6.479  26.963  0.00  0.00    +0.139 C 
ATOM     36  O   UNL A   1     -25.143   3.966  28.243  0.00  0.00    -0.269 OA
ENDBRANCH  27  33
BRANCH  30  37
ATOM     37  O   UNL A   1     -28.193  -0.208  24.477  0.00  0.00    -0.459 OA
BRANCH  37  38
ATOM     38  C   UNL A   1     -29.460   0.005  23.866  0.00  0.00    +0.242 C 
BRANCH  38  39
ATOM     39  C   UNL A   1     -30.065  -1.377  23.573  0.00  0.00    +0.229 C 
ATOM     40  O   UNL A   1     -30.729  -1.878  24.721  0.00  0.00    -0.216 OA
ENDBRANCH  38  39
ENDBRANCH  37  38
ENDBRANCH  30  37
ENDBRANCH  25  26
BRANCH  25  42
ATOM     41  C   UNL A   1     -22.829   1.931  25.953  0.00  0.00    +0.026 C 
ATOM     42  C   UNL A   1     -23.249   1.001  27.200  0.00  0.00    +0.124 C 
BRANCH  42  44
ATOM     43  O   UNL A   1     -23.044   1.302  29.622  0.00  0.00    -0.287 OA
ATOM     44  C   UNL A   1     -22.671   0.733  28.605  0.00  0.00    +0.223 C 
ENDBRANCH  42  44
ENDBRANCH  25  42
ENDBRANCH   1  25
TORSDOF 17
