MODEL 3688
MODEL 1
REMARK VINA RESULT:    -6.520      0.000      0.000
REMARK INTER + INTRA:          -7.700
REMARK INTER:                  -7.282
REMARK INTRA:                  -0.418
REMARK UNBOUND:                -0.418
REMARK  Name = No_3688-gen_results/8p0m/2024-11-27-11-27-31/
REMARK  2 active torsions:
REMARK  status: ('A' for Active; 'I' for Inactive)
REMARK    1  A    between atoms: C_3  and  C_7
REMARK    2  A    between atoms: C_6  and  C_13
REMARK                            x       y       z     vdW  Elec       q    Type
REMARK                         _______ _______ _______ _____ _____    ______ ____
ROOT
ATOM      1  C   UNL A   1     -29.365 -10.254  32.439  0.00  0.00    +0.007 A 
ATOM      2  C   UNL A   1     -29.729 -10.180  31.288  0.00  0.00    +0.000 A 
ATOM      3  C   UNL A   1     -29.274 -11.028  30.279  0.00  0.00    +0.000 A 
ATOM      4  C   UNL A   1     -28.266 -12.022  30.594  0.00  0.00    +0.000 A 
ATOM      5  C   UNL A   1     -27.861 -12.059  31.927  0.00  0.00    +0.007 A 
ATOM      6  C   UNL A   1     -28.337 -11.210  32.817  0.00  0.00    +0.080 A 
ENDROOT
BRANCH   3   7
ATOM      7  C   UNL A   1     -29.677 -11.007  28.837  0.00  0.00    +0.000 A 
ATOM      8  C   UNL A   1     -30.706 -10.323  28.424  0.00  0.00    +0.000 A 
ATOM      9  C   UNL A   1     -31.135 -10.379  27.063  0.00  0.00    +0.000 A 
ATOM     10  C   UNL A   1     -30.605 -11.271  26.162  0.00  0.00    +0.000 A 
ATOM     11  C   UNL A   1     -29.061 -11.945  27.886  0.00  0.00    +0.000 A 
ATOM     12  C   UNL A   1     -29.537 -12.024  26.557  0.00  0.00    +0.000 A 
ENDBRANCH   3   7
BRANCH   6  13
ATOM     13  C   UNL A   1     -27.801 -11.281  34.211  0.00  0.00    +0.388 C 
ATOM     14  O   UNL A   1     -27.286 -12.319  34.659  0.00  0.00    -0.241 OA
ATOM     15  O   UNL A   1     -27.791 -10.247  34.947  0.00  0.00    -0.241 OA
ENDBRANCH   6  13
TORSDOF 2
ENDMDL
ENDMDL
