MODEL 3689
MODEL 1
REMARK VINA RESULT:    -7.017      0.000      0.000
REMARK INTER + INTRA:         -12.306
REMARK INTER:                 -11.118
REMARK INTRA:                  -1.187
REMARK UNBOUND:                -1.187
REMARK  Name = No_3689-gen_results/8p0m/2024-11-27-11-27-31/
REMARK  10 active torsions:
REMARK  status: ('A' for Active; 'I' for Inactive)
REMARK    1  A    between atoms: C_3  and  C_7
REMARK    2  A    between atoms: C_6  and  O_13
REMARK    3  A    between atoms: C_12  and  C_18
REMARK    4  A    between atoms: O_13  and  C_14
REMARK    5  A    between atoms: C_14  and  C_15
REMARK    6  A    between atoms: C_18  and  C_19
REMARK    7  A    between atoms: C_19  and  N_20
REMARK    8  A    between atoms: N_20  and  C_21
REMARK    9  A    between atoms: C_22  and  C_23
REMARK   10  A    between atoms: C_24  and  C_25
REMARK                            x       y       z     vdW  Elec       q    Type
REMARK                         _______ _______ _______ _____ _____    ______ ____
ROOT
ATOM      1  C   UNL A   1     -24.180   1.140  26.113  0.00  0.00    -0.000 A 
ATOM      2  C   UNL A   1     -23.325   2.041  25.691  0.00  0.00    -0.000 A 
ATOM      3  C   UNL A   1     -22.072   2.232  26.318  0.00  0.00    -0.000 A 
ATOM      4  C   UNL A   1     -21.902   1.714  27.633  0.00  0.00    -0.004 A 
ATOM      5  C   UNL A   1     -23.851   0.582  27.400  0.00  0.00    -0.004 A 
ATOM      6  C   UNL A   1     -22.755   0.853  28.092  0.00  0.00    -0.020 A 
ENDROOT
BRANCH   1   9
ATOM      7  C   UNL A   1     -27.657   1.565  24.966  0.00  0.00    +0.037 A 
ATOM      8  C   UNL A   1     -26.588   1.809  25.477  0.00  0.00    +0.003 A 
ATOM      9  C   UNL A   1     -25.525   0.908  25.511  0.00  0.00    +0.000 A 
ATOM     10  C   UNL A   1     -25.709  -0.422  24.962  0.00  0.00    +0.003 A 
ATOM     11  C   UNL A   1     -26.962  -0.667  24.402  0.00  0.00    +0.037 A 
ATOM     12  C   UNL A   1     -27.917   0.242  24.422  0.00  0.00    +0.139 A 
BRANCH  12  13
ATOM     13  O   UNL A   1     -29.141  -0.062  23.902  0.00  0.00    -0.464 OA
BRANCH  13  14
ATOM     14  C   UNL A   1     -29.489  -1.318  23.610  0.00  0.00    +0.319 C 
BRANCH  14  15
ATOM     15  C   UNL A   1     -30.700  -1.601  24.004  0.00  0.00    +0.408 C 
ATOM     16  O   UNL A   1     -31.649  -1.005  23.697  0.00  0.00    -0.241 OA
ATOM     17  O   UNL A   1     -30.936  -2.592  24.892  0.00  0.00    -0.241 OA
ENDBRANCH  14  15
ENDBRANCH  13  14
ENDBRANCH  12  13
ENDBRANCH   1   9
BRANCH   6  18
ATOM     18  C   UNL A   1     -22.542   0.189  29.414  0.00  0.00    +0.050 C 
BRANCH  18  19
ATOM     19  C   UNL A   1     -23.366   0.741  30.530  0.00  0.00    +0.117 C 
BRANCH  19  20
ATOM     20  N   UNL A   1     -23.850  -0.035  31.381  0.00  0.00    -0.236 NA
BRANCH  20  21
ATOM     21  C   UNL A   1     -25.006  -0.586  31.206  0.00  0.00    +0.080 C 
ATOM     22  C   UNL A   1     -24.942  -1.852  30.606  0.00  0.00    +0.017 C 
BRANCH  22  23
ATOM     23  C   UNL A   1     -26.197  -2.536  30.305  0.00  0.00    +0.001 C 
ATOM     24  C   UNL A   1     -26.188  -3.763  29.636  0.00  0.00    +0.000 C 
BRANCH  24  25
ATOM     25  C   UNL A   1     -24.899  -4.274  29.173  0.00  0.00    +0.000 C 
ATOM     26  C   UNL A   1     -24.723  -5.594  28.863  0.00  0.00    +0.000 C 
ENDBRANCH  24  25
ENDBRANCH  22  23
ENDBRANCH  20  21
ENDBRANCH  19  20
ENDBRANCH  18  19
ENDBRANCH   6  18
TORSDOF 10
ENDMDL
ENDMDL
