REMARK  Name = outputs/IAG933/test6/raw/output_3689_IAG933_linker_design_.xyz
REMARK  12 active torsions:
REMARK  status: ('A' for Active; 'I' for Inactive)
REMARK    1  A    between atoms: C_1  and  C_2
REMARK    2  A    between atoms: C_1  and  C_8
REMARK    3  A    between atoms: C_9  and  C_40
REMARK    4  A    between atoms: C_13  and  N_42
REMARK    5  A    between atoms: C_14  and  C_15
REMARK    6  A    between atoms: C_21  and  O_22
REMARK    7  A    between atoms: O_22  and  C_23
REMARK    8  A    between atoms: C_23  and  C_24
REMARK    9  A    between atoms: C_31  and  N_42
REMARK   10  A    between atoms: C_34  and  C_39
REMARK   11  A    between atoms: N_38  and  C_40
REMARK   12  A    between atoms: C_40  and  N_43
REMARK                            x       y       z     vdW  Elec       q    Type
REMARK                         _______ _______ _______ _____ _____    ______ ____
ROOT
ATOM      1  C   UNL A   1     -23.398   1.377  29.946  0.00  0.00    +0.105 C 
ATOM      2  N   UNL A   1     -24.435   2.201  30.271  0.00  0.00    -0.232 NA
ENDROOT
BRANCH   1   8
ATOM      3  O   UNL A   1     -21.315   1.755  26.914  0.00  0.00    -0.221 OA
ATOM      4  C   UNL A   1     -22.734   2.311  24.953  0.00  0.00    +0.037 C 
ATOM      5  O   UNL A   1     -21.455   1.077  28.333  0.00  0.00    -0.215 OA
ATOM      6  C   UNL A   1     -23.281   1.469  27.385  0.00  0.00    +0.159 C 
ATOM      7  C   UNL A   1     -22.503   1.958  26.444  0.00  0.00    +0.175 C 
ATOM      8  C   UNL A   1     -22.795   1.258  28.621  0.00  0.00    +0.215 C 
BRANCH   6   9
ATOM      9  N   UNL A   1     -24.583   1.258  26.980  0.00  0.00    -0.231 NA
BRANCH   9  10
ATOM     10  C   UNL A   1     -25.688   1.614  26.461  0.00  0.00    +0.103 C 
ATOM     11  C   UNL A   1     -26.250   2.920  26.395  0.00  0.00    +0.091 C 
ATOM     12  C   UNL A   1     -27.438   3.091  25.645  0.00  0.00    +0.108 C 
ATOM     13  N   UNL A   1     -28.075   2.089  25.003  0.00  0.00    -0.208 NA
ATOM     14  C   UNL A   1     -27.543   0.849  25.079  0.00  0.00    +0.255 C 
ATOM     15  C   UNL A   1     -26.354   0.576  25.777  0.00  0.00    +0.208 C 
ATOM     16  F   UNL A   1     -25.860  -0.681  25.795  0.00  0.00    -0.198 F 
BRANCH  11  17
ATOM     17  C   UNL A   1     -25.642   4.093  27.123  0.00  0.00    +0.268 C 
ATOM     18  N   UNL A   1     -25.614   5.252  26.449  0.00  0.00    -0.200 NA
ATOM     19  C   UNL A   1     -25.026   6.479  26.963  0.00  0.00    +0.139 C 
ATOM     20  O   UNL A   1     -25.143   3.966  28.243  0.00  0.00    -0.268 OA
ENDBRANCH  11  17
BRANCH  14  21
ATOM     21  O   UNL A   1     -28.193  -0.208  24.477  0.00  0.00    -0.456 OA
BRANCH  21  22
ATOM     22  C   UNL A   1     -29.460   0.005  23.866  0.00  0.00    +0.243 C 
BRANCH  22  23
ATOM     23  C   UNL A   1     -30.065  -1.377  23.573  0.00  0.00    +0.229 C 
ATOM     24  O   UNL A   1     -30.729  -1.878  24.721  0.00  0.00    -0.216 OA
ENDBRANCH  22  23
ENDBRANCH  21  22
ENDBRANCH  14  21
ENDBRANCH   9  10
ENDBRANCH   6   9
ENDBRANCH   1   8
BRANCH   2  26
ATOM     25  O   UNL A   1     -24.799   3.534  32.090  0.00  0.00    -0.183 OA
ATOM     26  C   UNL A   1     -25.350   2.371  31.491  0.00  0.00    +0.261 C 
BRANCH  26  31
ATOM     27  C   UNL A   1     -28.610   3.301  29.836  0.00  0.00    +0.020 C 
ATOM     28  O   UNL A   1     -29.713   4.901  32.027  0.00  0.00    -0.222 OA
ATOM     29  C   UNL A   1     -27.377   4.157  32.122  0.00  0.00    +0.109 C 
ATOM     30  C   UNL A   1     -28.424   5.070  31.518  0.00  0.00    +0.168 C 
ATOM     31  N   UNL A   1     -26.782   2.901  31.426  0.00  0.00    -0.231 NA
ATOM     32  C   UNL A   1     -28.471   4.796  30.002  0.00  0.00    +0.036 C 
ATOM     33  C   UNL A   1     -27.417   2.415  30.170  0.00  0.00    +0.076 C 
ENDBRANCH  26  31
BRANCH  26  35
ATOM     34  C   UNL A   1     -25.387  -0.679  31.571  0.00  0.00    +0.083 C 
ATOM     35  C   UNL A   1     -25.189   0.773  32.028  0.00  0.00    +0.083 C 
ATOM     36  C   UNL A   1     -25.336   0.684  33.544  0.00  0.00    +0.026 C 
ATOM     37  C   UNL A   1     -24.829  -0.715  33.905  0.00  0.00    +0.089 C 
ATOM     38  N   UNL A   1     -24.758  -1.481  32.646  0.00  0.00    -0.219 NA
BRANCH  34  39
ATOM     39  C   UNL A   1     -24.855  -1.012  30.143  0.00  0.00    +0.044 C 
BRANCH  39  40
ATOM     40  C   UNL A   1     -24.973  -2.505  29.788  0.00  0.00    -0.021 C 
ATOM     41  C   UNL A   1     -23.906  -3.173  29.146  0.00  0.00    -0.004 C 
ATOM     42  C   UNL A   1     -23.989  -4.549  28.853  0.00  0.00    -0.000 C 
ATOM     43  C   UNL A   1     -25.137  -5.280  29.205  0.00  0.00    -0.000 C 
ATOM     44  C   UNL A   1     -26.232  -4.611  29.784  0.00  0.00    -0.000 C 
ATOM     45  C   UNL A   1     -26.155  -3.232  30.065  0.00  0.00    -0.004 C 
ENDBRANCH  39  40
ENDBRANCH  34  39
ENDBRANCH  26  35
ENDBRANCH   2  26
TORSDOF 12
