MODEL 368
MODEL 1
REMARK VINA RESULT:    -7.809      0.000      0.000
REMARK INTER + INTRA:         -13.463
REMARK INTER:                 -11.461
REMARK INTRA:                  -2.002
REMARK UNBOUND:                -2.002
REMARK  Name = No_368-gen_results/8p0m/2024-11-27-11-27-31/
REMARK  8 active torsions:
REMARK  status: ('A' for Active; 'I' for Inactive)
REMARK    1  A    between atoms: C_3  and  C_7
REMARK    2  A    between atoms: C_6  and  O_13
REMARK    3  A    between atoms: O_13  and  C_14
REMARK    4  A    between atoms: C_14  and  C_15
REMARK    5  A    between atoms: C_14  and  C_25
REMARK    6  A    between atoms: C_15  and  C_16
REMARK    7  A    between atoms: C_16  and  C_17
REMARK    8  A    between atoms: C_17  and  C_18
REMARK                            x       y       z     vdW  Elec       q    Type
REMARK                         _______ _______ _______ _____ _____    ______ ____
ROOT
ATOM      1  C   UNL A   1     -24.243  -1.088  29.600  0.00  0.00    +0.205 C 
ENDROOT
BRANCH   1   2
ATOM      2  C   UNL A   1     -24.501  -2.602  29.493  0.00  0.00    +0.019 A 
ATOM      3  C   UNL A   1     -25.668  -3.037  30.033  0.00  0.00    -0.001 A 
ATOM      4  C   UNL A   1     -26.099  -4.287  29.697  0.00  0.00    -0.000 A 
ATOM      5  C   UNL A   1     -25.286  -5.134  29.007  0.00  0.00    -0.000 A 
ATOM      6  C   UNL A   1     -24.104  -4.654  28.450  0.00  0.00    -0.000 A 
ATOM      7  C   UNL A   1     -23.732  -3.332  28.666  0.00  0.00    -0.001 A 
ENDBRANCH   1   2
BRANCH   1   8
ATOM      8  C   UNL A   1     -23.114  -0.639  28.972  0.00  0.00    +0.136 C 
ATOM      9  N   UNL A   1     -21.852  -1.460  29.391  0.00  0.00    -0.129 NA
BRANCH   8  10
ATOM     10  C   UNL A   1     -22.775   0.609  29.081  0.00  0.00    +0.023 C 
BRANCH  10  11
ATOM     11  C   UNL A   1     -22.213   1.213  27.844  0.00  0.00    +0.002 C 
BRANCH  11  12
ATOM     12  C   UNL A   1     -22.865   2.324  27.327  0.00  0.00    +0.000 C 
ATOM     13  C   UNL A   1     -24.074   2.704  28.025  0.00  0.00    +0.000 C 
ATOM     14  C   UNL A   1     -23.184   2.263  25.810  0.00  0.00    +0.000 C 
ATOM     15  C   UNL A   1     -23.838   3.124  25.285  0.00  0.00    +0.000 C 
ATOM     16  C   UNL A   1     -25.176   3.469  25.880  0.00  0.00    +0.000 C 
ATOM     17  C   UNL A   1     -24.966   3.778  27.380  0.00  0.00    +0.000 C 
ENDBRANCH  11  12
ENDBRANCH  10  11
ENDBRANCH   8  10
ENDBRANCH   1   8
BRANCH   1  18
ATOM     18  O   UNL A   1     -25.249  -0.383  29.423  0.00  0.00    -0.473 OA
BRANCH  18  24
ATOM     19  C   UNL A   1     -25.378  -0.444  26.895  0.00  0.00    +0.037 A 
ATOM     20  C   UNL A   1     -26.077  -0.238  25.930  0.00  0.00    +0.003 A 
ATOM     21  C   UNL A   1     -27.338   0.351  26.003  0.00  0.00    +0.000 A 
ATOM     22  C   UNL A   1     -27.885   0.690  27.302  0.00  0.00    +0.003 A 
ATOM     23  C   UNL A   1     -27.018   0.412  28.383  0.00  0.00    +0.037 A 
ATOM     24  C   UNL A   1     -25.848  -0.152  28.216  0.00  0.00    +0.139 A 
BRANCH  21  25
ATOM     25  C   UNL A   1     -28.244   0.646  24.862  0.00  0.00    +0.000 A 
ATOM     26  C   UNL A   1     -29.246  -0.122  24.503  0.00  0.00    +0.000 A 
ATOM     27  C   UNL A   1     -30.081   0.240  23.419  0.00  0.00    +0.000 A 
ATOM     28  C   UNL A   1     -30.054   1.588  22.970  0.00  0.00    +0.000 A 
ATOM     29  C   UNL A   1     -28.219   1.958  24.285  0.00  0.00    +0.000 A 
ATOM     30  C   UNL A   1     -29.078   2.372  23.361  0.00  0.00    +0.000 A 
ENDBRANCH  21  25
ENDBRANCH  18  24
ENDBRANCH   1  18
TORSDOF 8
ENDMDL
ENDMDL
