MODEL 3690
MODEL 1
REMARK VINA RESULT:    -4.513      0.000      0.000
REMARK INTER + INTRA:          -4.513
REMARK INTER:                  -4.513
REMARK INTRA:                   0.000
REMARK UNBOUND:                 0.000
REMARK  Name = No_3690-gen_results/8p0m/2024-11-27-11-27-31/
REMARK  0 active torsions:
REMARK  status: ('A' for Active; 'I' for Inactive)
REMARK                            x       y       z     vdW  Elec       q    Type
REMARK                         _______ _______ _______ _____ _____    ______ ____
ROOT
ATOM      1  C   UNL A   1      -9.241  -9.132  20.068  0.00  0.00    +0.011 A 
ATOM      2  C   UNL A   1      -8.275  -9.842  19.908  0.00  0.00    +0.058 A 
ATOM      3 CL   UNL A   1      -6.978  -9.727  20.771  0.00  0.00    -0.082 Cl
ATOM      4  C   UNL A   1     -10.340  -9.270  19.119  0.00  0.00    +0.001 A 
ATOM      5  C   UNL A   1     -10.228 -10.126  17.991  0.00  0.00    +0.000 A 
ATOM      6  C   UNL A   1      -9.065 -10.830  17.769  0.00  0.00    +0.001 A 
ATOM      7  C   UNL A   1      -8.041 -10.683  18.721  0.00  0.00    +0.011 A 
ENDROOT
TORSDOF 0
ENDMDL
ENDMDL
