MODEL 3691
MODEL 1
REMARK VINA RESULT:    -4.809      0.000      0.000
REMARK INTER + INTRA:          -5.142
REMARK INTER:                  -5.090
REMARK INTRA:                  -0.052
REMARK UNBOUND:                -0.052
REMARK  Name = No_3691-gen_results/8p0m/2024-11-27-11-27-31/
REMARK  1 active torsions:
REMARK  status: ('A' for Active; 'I' for Inactive)
REMARK    1  A    between atoms: C_3  and  O_9
REMARK                            x       y       z     vdW  Elec       q    Type
REMARK                         _______ _______ _______ _____ _____    ______ ____
ROOT
ATOM      1  C   UNL A   1     -25.334  -2.174  29.882  0.00  0.00    +0.051 A 
ATOM      2  C   UNL A   1     -26.169  -2.731  30.203  0.00  0.00    +0.061 A 
ATOM      3  C   UNL A   1     -24.271  -2.919  29.188  0.00  0.00    +0.167 A 
ATOM      4  C   UNL A   1     -24.450  -4.293  28.853  0.00  0.00    +0.174 A 
ATOM      5  C   UNL A   1     -26.617  -4.125  29.939  0.00  0.00    +0.014 A 
ATOM      6  C   UNL A   1     -25.653  -4.852  29.305  0.00  0.00    +0.034 A 
ATOM      7 CL   UNL A   1     -27.495  -1.827  31.048  0.00  0.00    -0.082 Cl
ATOM      8  F   UNL A   1     -23.532  -4.962  28.244  0.00  0.00    -0.201 F 
ENDROOT
BRANCH   3   9
ATOM      9  O   UNL A   1     -23.077  -2.386  28.758  0.00  0.00    -0.469 OA
ATOM     10  C   UNL A   1     -22.690  -1.190  29.232  0.00  0.00    +0.253 C 
ENDBRANCH   3   9
TORSDOF 1
ENDMDL
ENDMDL
