MODEL 3692
MODEL 1
REMARK VINA RESULT:    -5.336      0.000      0.000
REMARK INTER + INTRA:          -5.868
REMARK INTER:                  -5.648
REMARK INTRA:                  -0.220
REMARK UNBOUND:                -0.220
REMARK  Name = No_3692-gen_results/8p0m/2024-11-27-11-27-31/
REMARK  1 active torsions:
REMARK  status: ('A' for Active; 'I' for Inactive)
REMARK    1  A    between atoms: C_3  and  C_7
REMARK                            x       y       z     vdW  Elec       q    Type
REMARK                         _______ _______ _______ _____ _____    ______ ____
ROOT
ATOM      1  C   UNL A   1     -24.864  -5.089  29.033  0.00  0.00    +0.000 A 
ATOM      2  C   UNL A   1     -24.126  -4.171  28.763  0.00  0.00    +0.000 A 
ATOM      3  C   UNL A   1     -24.418  -2.837  29.045  0.00  0.00    +0.005 A 
ATOM      4  C   UNL A   1     -25.698  -2.506  29.641  0.00  0.00    +0.000 A 
ATOM      5  C   UNL A   1     -26.526  -3.593  29.917  0.00  0.00    +0.000 A 
ATOM      6  C   UNL A   1     -26.174  -4.825  29.606  0.00  0.00    +0.000 A 
ENDROOT
BRANCH   3   7
ATOM      7  C   UNL A   1     -23.560  -1.646  28.750  0.00  0.00    +0.060 C 
ATOM      8  C   UNL A   1     -22.911  -0.973  29.691  0.00  0.00    +0.279 C 
ATOM      9  F   UNL A   1     -22.914  -1.240  30.914  0.00  0.00    -0.172 F 
ATOM     10  F   UNL A   1     -21.538  -0.897  29.470  0.00  0.00    -0.172 F 
ENDBRANCH   3   7
TORSDOF 1
ENDMDL
ENDMDL
