MODEL 3694
MODEL 1
REMARK VINA RESULT:    -6.651      0.000      0.000
REMARK INTER + INTRA:          -7.830
REMARK INTER:                  -7.428
REMARK INTRA:                  -0.402
REMARK UNBOUND:                -0.402
REMARK  Name = No_3694-gen_results/8p0m/2024-11-27-11-27-31/
REMARK  2 active torsions:
REMARK  status: ('A' for Active; 'I' for Inactive)
REMARK    1  A    between atoms: C_3  and  C_4
REMARK    2  A    between atoms: C_7  and  C_13
REMARK                            x       y       z     vdW  Elec       q    Type
REMARK                         _______ _______ _______ _____ _____    ______ ____
ROOT
ATOM      1  C   UNL A   1     -29.209 -10.229  32.572  0.00  0.00    +0.007 A 
ATOM      2  C   UNL A   1     -29.639 -10.182  31.443  0.00  0.00    +0.000 A 
ATOM      3  C   UNL A   1     -29.268 -11.074  30.437  0.00  0.00    +0.000 A 
ATOM      4  C   UNL A   1     -28.100 -11.185  32.871  0.00  0.00    +0.080 A 
ATOM      5  C   UNL A   1     -27.721 -12.153  31.983  0.00  0.00    +0.007 A 
ATOM      6  C   UNL A   1     -28.259 -12.135  30.667  0.00  0.00    +0.000 A 
ENDROOT
BRANCH   3   7
ATOM      7  C   UNL A   1     -29.731 -11.082  29.036  0.00  0.00    +0.000 A 
ATOM      8  C   UNL A   1     -30.644 -10.137  28.447  0.00  0.00    +0.000 A 
ATOM      9  C   UNL A   1     -31.007 -10.234  27.089  0.00  0.00    +0.000 A 
ATOM     10  C   UNL A   1     -30.286 -11.072  26.183  0.00  0.00    +0.000 A 
ATOM     11  C   UNL A   1     -29.113 -11.956  28.040  0.00  0.00    +0.000 A 
ATOM     12  C   UNL A   1     -29.407 -11.936  26.709  0.00  0.00    +0.000 A 
ENDBRANCH   3   7
BRANCH   4  13
ATOM     13  C   UNL A   1     -27.504 -11.239  34.225  0.00  0.00    +0.388 C 
ATOM     14  O   UNL A   1     -27.344 -12.284  34.689  0.00  0.00    -0.241 OA
ATOM     15  O   UNL A   1     -27.403 -10.162  34.931  0.00  0.00    -0.241 OA
ENDBRANCH   4  13
TORSDOF 2
ENDMDL
ENDMDL
