REMARK  Name = No_3694-gen_results/8p0m/2024-11-27-11-27-31/
REMARK  2 active torsions:
REMARK  status: ('A' for Active; 'I' for Inactive)
REMARK    1  A    between atoms: C_3  and  C_4
REMARK    2  A    between atoms: C_7  and  C_13
REMARK                            x       y       z     vdW  Elec       q    Type
REMARK                         _______ _______ _______ _____ _____    ______ ____
ROOT
ATOM      1  C   UNL A   1     -28.016  -0.814  28.878  0.00  0.00    +0.007 A 
ATOM      2  C   UNL A   1     -27.064  -0.119  28.608  0.00  0.00    +0.000 A 
ATOM      3  C   UNL A   1     -25.765  -0.390  29.036  0.00  0.00    +0.000 A 
ATOM      4  C   UNL A   1     -27.829  -1.929  29.855  0.00  0.00    +0.080 A 
ATOM      5  C   UNL A   1     -26.588  -2.327  30.268  0.00  0.00    +0.007 A 
ATOM      6  C   UNL A   1     -25.456  -1.543  29.915  0.00  0.00    +0.000 A 
ENDROOT
BRANCH   3   7
ATOM      7  C   UNL A   1     -24.552   0.406  28.765  0.00  0.00    +0.000 A 
ATOM      8  C   UNL A   1     -23.230   0.118  29.258  0.00  0.00    +0.000 A 
ATOM      9  C   UNL A   1     -22.139   0.943  28.922  0.00  0.00    +0.000 A 
ATOM     10  C   UNL A   1     -22.230   1.909  27.872  0.00  0.00    +0.000 A 
ATOM     11  C   UNL A   1     -24.554   1.470  27.762  0.00  0.00    +0.000 A 
ATOM     12  C   UNL A   1     -23.447   2.167  27.376  0.00  0.00    +0.000 A 
ENDBRANCH   3   7
BRANCH   4  13
ATOM     13  C   UNL A   1     -28.978  -2.771  30.258  0.00  0.00    +0.388 C 
ATOM     14  O   UNL A   1     -29.282  -2.748  31.372  0.00  0.00    -0.241 OA
ATOM     15  O   UNL A   1     -29.445  -3.660  29.446  0.00  0.00    -0.241 OA
ENDBRANCH   4  13
TORSDOF 2
