MODEL 3695
MODEL 1
REMARK VINA RESULT:    -8.151      0.000      0.000
REMARK INTER + INTRA:         -13.065
REMARK INTER:                 -11.963
REMARK INTRA:                  -1.102
REMARK UNBOUND:                -1.102
REMARK  Name = No_3695-gen_results/8p0m/2024-11-27-11-27-31/
REMARK  8 active torsions:
REMARK  status: ('A' for Active; 'I' for Inactive)
REMARK    1  A    between atoms: C_2  and  C_7
REMARK    2  A    between atoms: C_3  and  C_11
REMARK    3  A    between atoms: C_7  and  O_8
REMARK    4  A    between atoms: O_8  and  C_22
REMARK    5  A    between atoms: C_11  and  C_12
REMARK    6  A    between atoms: C_17  and  C_19
REMARK    7  A    between atoms: C_22  and  C_23
REMARK    8  A    between atoms: C_23  and  C_24
REMARK                            x       y       z     vdW  Elec       q    Type
REMARK                         _______ _______ _______ _____ _____    ______ ____
ROOT
ATOM      1  C   UNL A   1     -24.263   0.863  27.222  0.00  0.00    +0.005 A 
ATOM      2  C   UNL A   1     -24.315   1.379  26.305  0.00  0.00    +0.075 A 
ATOM      3  C   UNL A   1     -22.935   0.767  27.849  0.00  0.00    +0.010 A 
ATOM      4  C   UNL A   1     -21.821   1.466  27.299  0.00  0.00    +0.137 A 
ATOM      5  C   UNL A   1     -23.342   2.226  25.563  0.00  0.00    +0.009 A 
ATOM      6  C   UNL A   1     -22.095   2.155  26.109  0.00  0.00    +0.029 A 
ATOM      7  F   UNL A   1     -20.644   1.392  27.821  0.00  0.00    -0.204 F 
ENDROOT
BRANCH   2   8
ATOM      8  C   UNL A   1     -25.740   1.522  25.603  0.00  0.00    +0.341 C 
ATOM      9  O   UNL A   1     -26.377   2.669  25.579  0.00  0.00    -0.245 OA
BRANCH   8  10
ATOM     10  O   UNL A   1     -25.978   0.714  24.870  0.00  0.00    -0.445 OA
BRANCH  10  11
ATOM     11  C   UNL A   1     -27.115   0.067  24.608  0.00  0.00    +0.213 C 
BRANCH  11  12
ATOM     12  C   UNL A   1     -28.002   0.721  23.798  0.00  0.00    +0.074 C 
BRANCH  12  13
ATOM     13  C   UNL A   1     -29.239   0.211  23.624  0.00  0.00    -0.018 A 
ATOM     14  C   UNL A   1     -30.308   1.060  23.256  0.00  0.00    -0.004 A 
ATOM     15  C   UNL A   1     -31.618   0.513  22.949  0.00  0.00    -0.000 A 
ATOM     16  C   UNL A   1     -31.826  -0.848  23.238  0.00  0.00    -0.000 A 
ATOM     17  C   UNL A   1     -30.817  -1.665  23.643  0.00  0.00    -0.000 A 
ATOM     18  C   UNL A   1     -29.539  -1.120  23.817  0.00  0.00    -0.004 A 
ENDBRANCH  12  13
ENDBRANCH  11  12
ENDBRANCH  10  11
ENDBRANCH   8  10
ENDBRANCH   2   8
BRANCH   3  19
ATOM     19  C   UNL A   1     -22.370   0.063  29.091  0.00  0.00    +0.055 C 
BRANCH  19  20
ATOM     20  C   UNL A   1     -23.415  -0.615  29.840  0.00  0.00    -0.021 A 
ATOM     21  C   UNL A   1     -24.216  -0.509  30.480  0.00  0.00    -0.025 A 
ATOM     22  C   UNL A   1     -24.726   0.791  30.987  0.00  0.00    +0.031 C 
ATOM     23  C   UNL A   1     -25.120  -1.551  31.161  0.00  0.00    -0.004 A 
ATOM     24  C   UNL A   1     -25.669  -2.474  30.335  0.00  0.00    +0.006 A 
ATOM     25  C   UNL A   1     -24.618  -3.079  29.449  0.00  0.00    +0.080 A 
ATOM     26  C   UNL A   1     -23.382  -2.296  29.297  0.00  0.00    +0.002 A 
BRANCH  25  27
ATOM     27  C   UNL A   1     -24.609  -4.354  28.892  0.00  0.00    +0.388 C 
ATOM     28  O   UNL A   1     -23.720  -4.690  28.224  0.00  0.00    -0.241 OA
ATOM     29  O   UNL A   1     -25.606  -5.194  29.232  0.00  0.00    -0.241 OA
ENDBRANCH  25  27
ENDBRANCH  19  20
ENDBRANCH   3  19
TORSDOF 8
ENDMDL
ENDMDL
