MODEL 3696
MODEL 1
REMARK VINA RESULT:    -4.276      0.000      0.000
REMARK INTER + INTRA:          -4.276
REMARK INTER:                  -4.276
REMARK INTRA:                   0.000
REMARK UNBOUND:                 0.000
REMARK  Name = No_3696-gen_results/8p0m/2024-11-27-11-27-31/
REMARK  0 active torsions:
REMARK  status: ('A' for Active; 'I' for Inactive)
REMARK                            x       y       z     vdW  Elec       q    Type
REMARK                         _______ _______ _______ _____ _____    ______ ____
ROOT
ATOM      1  C   UNL A   1     -24.100  -4.839  28.598  0.00  0.00    +0.000 A 
ATOM      2  C   UNL A   1     -24.977  -5.282  28.980  0.00  0.00    +0.000 A 
ATOM      3  C   UNL A   1     -24.070  -3.384  28.741  0.00  0.00    +0.000 A 
ATOM      4  C   UNL A   1     -25.092  -2.687  29.338  0.00  0.00    +0.000 A 
ATOM      5  C   UNL A   1     -26.189  -4.811  29.650  0.00  0.00    +0.000 A 
ATOM      6  C   UNL A   1     -26.170  -3.403  29.793  0.00  0.00    +0.000 A 
ENDROOT
TORSDOF 0
ENDMDL
ENDMDL
