MODEL 3697
MODEL 1
REMARK VINA RESULT:    -6.575      0.000      0.000
REMARK INTER + INTRA:          -7.294
REMARK INTER:                  -6.959
REMARK INTRA:                  -0.334
REMARK UNBOUND:                -0.334
REMARK  Name = No_3697-gen_results/8p0m/2024-11-27-11-27-31/
REMARK  1 active torsions:
REMARK  status: ('A' for Active; 'I' for Inactive)
REMARK    1  A    between atoms: C_3  and  C_7
REMARK                            x       y       z     vdW  Elec       q    Type
REMARK                         _______ _______ _______ _____ _____    ______ ____
ROOT
ATOM      1  C   UNL A   1     -24.784  -5.035  29.005  0.00  0.00    +0.000 A 
ATOM      2  C   UNL A   1     -24.101  -4.092  28.680  0.00  0.00    +0.000 A 
ATOM      3  C   UNL A   1     -24.460  -2.764  28.910  0.00  0.00    +0.000 A 
ATOM      4  C   UNL A   1     -25.745  -2.475  29.517  0.00  0.00    +0.000 A 
ATOM      5  C   UNL A   1     -26.491  -3.625  29.861  0.00  0.00    +0.000 A 
ATOM      6  C   UNL A   1     -26.073  -4.837  29.599  0.00  0.00    +0.000 A 
ENDROOT
BRANCH   3   7
ATOM      7  C   UNL A   1     -23.794  -1.437  28.697  0.00  0.00    +0.000 A 
ATOM      8  C   UNL A   1     -24.405  -0.535  27.875  0.00  0.00    +0.000 A 
ATOM      9  C   UNL A   1     -23.767   0.671  27.583  0.00  0.00    +0.000 A 
ATOM     10  C   UNL A   1     -22.512   1.014  28.122  0.00  0.00    +0.000 A 
ATOM     11  C   UNL A   1     -22.488  -1.146  29.163  0.00  0.00    +0.000 A 
ATOM     12  C   UNL A   1     -21.875   0.102  28.856  0.00  0.00    +0.000 A 
ENDBRANCH   3   7
TORSDOF 1
ENDMDL
ENDMDL
