REMARK  Name = No_3699-gen_results/8p0m/2024-11-27-11-27-31/
REMARK  3 active torsions:
REMARK  status: ('A' for Active; 'I' for Inactive)
REMARK    1  A    between atoms: C_3  and  C_7
REMARK    2  A    between atoms: C_7  and  C_9
REMARK    3  A    between atoms: C_9  and  C_10
REMARK                            x       y       z     vdW  Elec       q    Type
REMARK                         _______ _______ _______ _____ _____    ______ ____
ROOT
ATOM      1  C   UNL A   1     -28.016  -0.814  28.878  0.00  0.00    -0.004 A 
ATOM      2  C   UNL A   1     -28.469  -0.785  29.829  0.00  0.00    -0.000 A 
ATOM      3  C   UNL A   1     -27.136   0.236  28.535  0.00  0.00    -0.022 A 
ATOM      4  C   UNL A   1     -26.805   1.051  29.276  0.00  0.00    -0.004 A 
ATOM      5  C   UNL A   1     -28.237   0.150  30.930  0.00  0.00    -0.000 A 
ATOM      6  C   UNL A   1     -27.352   1.124  30.607  0.00  0.00    -0.000 A 
ENDROOT
BRANCH   3   7
ATOM      7  C   UNL A   1     -26.471   0.196  27.131  0.00  0.00    +0.027 C 
ATOM      8  C   UNL A   1     -25.039   0.187  27.109  0.00  0.00    +0.005 C 
BRANCH   7   9
ATOM      9  C   UNL A   1     -27.179   0.341  25.939  0.00  0.00    +0.030 C 
BRANCH   9  10
ATOM     10  C   UNL A   1     -28.530   0.442  25.927  0.00  0.00    -0.030 C 
ATOM     11  C   UNL A   1     -29.122   0.456  24.643  0.00  0.00    -0.030 C 
ATOM     12  C   UNL A   1     -28.332   0.360  23.527  0.00  0.00    +0.030 C 
ENDBRANCH   9  10
ENDBRANCH   7   9
ENDBRANCH   3   7
TORSDOF 3
