MODEL 369
MODEL 1
REMARK VINA RESULT:    -6.721      0.000      0.000
REMARK INTER + INTRA:         -10.609
REMARK INTER:                  -9.079
REMARK INTRA:                  -1.530
REMARK UNBOUND:                -1.530
REMARK  Name = No_369-gen_results/8p0m/2024-11-27-11-27-31/
REMARK  6 active torsions:
REMARK  status: ('A' for Active; 'I' for Inactive)
REMARK    1  A    between atoms: C_2  and  C_22
REMARK    2  A    between atoms: C_3  and  N_15
REMARK    3  A    between atoms: C_4  and  C_7
REMARK    4  A    between atoms: C_7  and  C_8
REMARK    5  A    between atoms: C_10  and  C_14
REMARK    6  A    between atoms: C_12  and  C_19
REMARK                            x       y       z     vdW  Elec       q    Type
REMARK                         _______ _______ _______ _____ _____    ______ ____
ROOT
ATOM      1  C   UNL A   1     -23.714   0.782  29.106  0.00  0.00    +0.028 C 
ENDROOT
BRANCH   1   2
ATOM      2  C   UNL A   1     -23.589   1.314  27.763  0.00  0.00    +0.005 C 
ATOM      3  C   UNL A   1     -24.191   0.657  26.728  0.00  0.00    +0.012 C 
ATOM      4  C   UNL A   1     -25.328   1.104  26.012  0.00  0.00    +0.104 C 
ATOM      5  C   UNL A   1     -25.741   2.347  26.163  0.00  0.00    +0.022 C 
ATOM      6  C   UNL A   1     -24.935   3.233  27.007  0.00  0.00    +0.104 C 
ATOM      7  C   UNL A   1     -24.290   2.804  27.879  0.00  0.00    +0.012 C 
ATOM      8  C   UNL A   1     -22.087   1.637  27.414  0.00  0.00    +0.000 C 
BRANCH   4   9
ATOM      9  C   UNL A   1     -25.955   0.190  25.057  0.00  0.00    +0.364 C 
ATOM     10  O   UNL A   1     -25.524  -0.987  25.008  0.00  0.00    -0.246 OA
ATOM     11  O   UNL A   1     -27.127   0.534  24.520  0.00  0.00    -0.246 OA
ENDBRANCH   4   9
BRANCH   6  12
ATOM     12  C   UNL A   1     -25.528   4.667  27.028  0.00  0.00    +0.364 C 
ATOM     13  O   UNL A   1     -26.436   5.043  26.701  0.00  0.00    -0.246 OA
ATOM     14  O   UNL A   1     -24.584   5.466  27.601  0.00  0.00    -0.246 OA
ENDBRANCH   6  12
ENDBRANCH   1   2
BRANCH   1  18
ATOM     15  C   UNL A   1     -25.949  -2.277  29.421  0.00  0.00    +0.023 A 
ATOM     16  C   UNL A   1     -25.233  -3.031  29.253  0.00  0.00    +0.081 A 
ATOM     17  C   UNL A   1     -25.472  -0.887  29.347  0.00  0.00    +0.068 A 
ATOM     18  C   UNL A   1     -24.284  -0.641  29.165  0.00  0.00    -0.007 A 
ATOM     19  C   UNL A   1     -23.313  -1.646  28.928  0.00  0.00    -0.003 A 
ATOM     20  C   UNL A   1     -23.792  -2.924  28.987  0.00  0.00    +0.006 A 
BRANCH  17  21
ATOM     21  N   UNL A   1     -26.406   0.194  29.631  0.00  0.00    -0.192 NA
ATOM     22  C   UNL A   1     -27.480   0.582  28.926  0.00  0.00    +0.181 C 
ATOM     23  N   UNL A   1     -28.136   0.066  28.002  0.00  0.00    -0.250 NA
ATOM     24  C   UNL A   1     -29.210   0.588  27.435  0.00  0.00    +0.153 C 
ENDBRANCH  17  21
BRANCH  16  25
ATOM     25  C   UNL A   1     -25.685  -4.579  29.296  0.00  0.00    +0.388 C 
ATOM     26  O   UNL A   1     -24.847  -5.526  28.909  0.00  0.00    -0.241 OA
ATOM     27  O   UNL A   1     -26.706  -4.851  29.828  0.00  0.00    -0.241 OA
ENDBRANCH  16  25
ENDBRANCH   1  18
TORSDOF 6
ENDMDL
ENDMDL
