MODEL 36
MODEL 1
REMARK VINA RESULT:    -6.533      0.000      0.000
REMARK INTER + INTRA:          -9.268
REMARK INTER:                  -8.443
REMARK INTRA:                  -0.825
REMARK UNBOUND:                -0.825
REMARK  Name = No_36-gen_results/8p0m/2024-11-27-11-27-31/
REMARK  5 active torsions:
REMARK  status: ('A' for Active; 'I' for Inactive)
REMARK    1  A    between atoms: C_2  and  C_11
REMARK    2  A    between atoms: C_3  and  C_4
REMARK    3  A    between atoms: C_6  and  C_14
REMARK    4  A    between atoms: C_15  and  C_16
REMARK    5  A    between atoms: C_17  and  C_18
REMARK                            x       y       z     vdW  Elec       q    Type
REMARK                         _______ _______ _______ _____ _____    ______ ____
ROOT
ATOM      1  C   UNL A   1     -24.077  -2.602  30.225  0.00  0.00    +0.010 A 
ATOM      2  C   UNL A   1     -24.375  -2.860  29.248  0.00  0.00    +0.080 A 
ATOM      3  C   UNL A   1     -23.931  -1.161  30.432  0.00  0.00    +0.072 A 
ATOM      4  C   UNL A   1     -24.682  -2.115  28.035  0.00  0.00    +0.007 A 
ATOM      5  C   UNL A   1     -24.543  -0.750  28.186  0.00  0.00    +0.000 A 
ATOM      6  C   UNL A   1     -24.220  -0.243  29.389  0.00  0.00    +0.004 A 
ENDROOT
BRANCH   3   7
ATOM      7  C   UNL A   1     -23.625  -0.547  31.743  0.00  0.00    +0.419 C 
ATOM      8  F   UNL A   1     -23.529   0.691  31.607  0.00  0.00    -0.166 F 
ATOM      9  F   UNL A   1     -24.562  -0.854  32.650  0.00  0.00    -0.166 F 
ATOM     10  F   UNL A   1     -22.401  -0.976  32.211  0.00  0.00    -0.166 F 
ENDBRANCH   3   7
BRANCH   2  11
ATOM     11  C   UNL A   1     -24.644  -4.442  28.950  0.00  0.00    +0.388 C 
ATOM     12  O   UNL A   1     -23.782  -5.153  28.382  0.00  0.00    -0.241 OA
ATOM     13  O   UNL A   1     -25.691  -4.976  29.311  0.00  0.00    -0.241 OA
ENDBRANCH   2  11
BRANCH   5  14
ATOM     14  C   UNL A   1     -24.802   0.178  27.063  0.00  0.00    -0.000 C 
ATOM     15  C   UNL A   1     -25.461  -0.111  26.141  0.00  0.00    -0.000 C 
BRANCH  15  16
ATOM     16  C   UNL A   1     -26.004   0.215  25.216  0.00  0.00    -0.000 C 
ATOM     17  C   UNL A   1     -27.430   0.334  24.748  0.00  0.00    -0.000 C 
BRANCH  17  18
ATOM     18  C   UNL A   1     -27.857   0.875  23.526  0.00  0.00    -0.005 C 
ATOM     19  C   UNL A   1     -28.239   2.194  23.442  0.00  0.00    -0.026 C 
ATOM     20  C   UNL A   1     -28.182   2.961  24.564  0.00  0.00    +0.031 C 
ENDBRANCH  17  18
ENDBRANCH  15  16
ENDBRANCH   5  14
TORSDOF 5
ENDMDL
ENDMDL
