REMARK  Name = outputs/IAG933/test6/raw/output_37_IAG933_linker_design_.xyz
REMARK  8 active torsions:
REMARK  status: ('A' for Active; 'I' for Inactive)
REMARK    1  A    between atoms: C_1  and  C_2
REMARK    2  A    between atoms: C_1  and  C_8
REMARK    3  A    between atoms: C_1  and  N_37
REMARK    4  A    between atoms: C_13  and  C_40
REMARK    5  A    between atoms: C_14  and  C_15
REMARK    6  A    between atoms: C_21  and  O_22
REMARK    7  A    between atoms: O_22  and  C_23
REMARK    8  A    between atoms: C_23  and  C_24
REMARK                            x       y       z     vdW  Elec       q    Type
REMARK                         _______ _______ _______ _____ _____    ______ ____
ROOT
ATOM      1  C   UNL A   1     -21.611  -0.570  29.672  0.00  0.00    +0.040 C 
ATOM      2  O   UNL A   1     -23.584   1.591  25.643  0.00  0.00    -0.273 OA
ATOM      3  C   UNL A   1     -24.619   1.177  28.894  0.00  0.00    +0.334 A 
ATOM      4  C   UNL A   1     -22.670   1.030  28.248  0.00  0.00    +0.153 A 
ATOM      5  C   UNL A   1     -22.788   0.012  29.273  0.00  0.00    +0.086 A 
ATOM      6  O   UNL A   1     -21.305   1.865  26.346  0.00  0.00    -0.395 OA
ATOM      7  C   UNL A   1     -22.311   1.800  25.393  0.00  0.00    +0.473 C 
ATOM      8  C   UNL A   1     -20.610  -0.230  28.922  0.00  0.00    +0.237 C 
ATOM      9  O   UNL A   1     -20.385   0.674  28.055  0.00  0.00    -0.442 OA
ATOM     10  N   UNL A   1     -24.030  -0.102  29.510  0.00  0.00    -0.277 N 
ATOM     11  O   UNL A   1     -25.453   1.639  29.417  0.00  0.00    -0.246 OA
ATOM     12  C   UNL A   1     -21.477   1.323  27.555  0.00  0.00    +0.314 C 
ATOM     13  C   UNL A   1     -24.287   1.495  26.735  0.00  0.00    +0.222 C 
ATOM     14  N   UNL A   1     -23.787   1.368  27.908  0.00  0.00    -0.251 N 
ATOM     15  F   UNL A   1     -21.967   2.084  24.194  0.00  0.00    -0.159 F 
ENDROOT
BRANCH  13  16
ATOM     16  C   UNL A   1     -25.688   1.614  26.461  0.00  0.00    +0.120 C 
ATOM     17  C   UNL A   1     -26.250   2.920  26.395  0.00  0.00    +0.059 C 
ATOM     18  C   UNL A   1     -27.438   3.091  25.645  0.00  0.00    +0.102 C 
ATOM     19  N   UNL A   1     -28.075   2.089  25.003  0.00  0.00    -0.212 NA
ATOM     20  C   UNL A   1     -27.543   0.849  25.079  0.00  0.00    +0.234 C 
ATOM     21  C   UNL A   1     -26.354   0.576  25.777  0.00  0.00    +0.244 C 
ATOM     22  F   UNL A   1     -25.860  -0.681  25.795  0.00  0.00    -0.227 F 
BRANCH  17  23
ATOM     23  C   UNL A   1     -25.642   4.093  27.123  0.00  0.00    +0.263 C 
ATOM     24  N   UNL A   1     -25.614   5.252  26.449  0.00  0.00    -0.200 NA
ATOM     25  C   UNL A   1     -25.026   6.479  26.963  0.00  0.00    +0.139 C 
ATOM     26  O   UNL A   1     -25.143   3.966  28.243  0.00  0.00    -0.269 OA
ENDBRANCH  17  23
BRANCH  20  27
ATOM     27  O   UNL A   1     -28.193  -0.208  24.477  0.00  0.00    -0.459 OA
BRANCH  27  28
ATOM     28  C   UNL A   1     -29.460   0.005  23.866  0.00  0.00    +0.242 C 
BRANCH  28  29
ATOM     29  C   UNL A   1     -30.065  -1.377  23.573  0.00  0.00    +0.229 C 
ATOM     30  O   UNL A   1     -30.729  -1.878  24.721  0.00  0.00    -0.216 OA
ENDBRANCH  28  29
ENDBRANCH  27  28
ENDBRANCH  20  27
ENDBRANCH  13  16
BRANCH  10  31
ATOM     31  C   UNL A   1     -24.855  -1.012  30.143  0.00  0.00    +0.128 C 
BRANCH  31  32
ATOM     32  C   UNL A   1     -24.973  -2.505  29.788  0.00  0.00    -0.000 C 
ATOM     33  C   UNL A   1     -23.906  -3.173  29.146  0.00  0.00    -0.002 C 
ATOM     34  C   UNL A   1     -23.989  -4.549  28.853  0.00  0.00    -0.000 C 
ATOM     35  C   UNL A   1     -25.137  -5.280  29.205  0.00  0.00    -0.000 C 
ATOM     36  C   UNL A   1     -26.232  -4.611  29.784  0.00  0.00    -0.000 C 
ATOM     37  C   UNL A   1     -26.155  -3.232  30.065  0.00  0.00    -0.002 C 
ENDBRANCH  31  32
BRANCH  31  38
ATOM     38  C   UNL A   1     -25.387  -0.679  31.571  0.00  0.00    +0.098 C 
ATOM     39  C   UNL A   1     -25.189   0.773  32.028  0.00  0.00    +0.021 C 
ATOM     40  C   UNL A   1     -25.336   0.684  33.544  0.00  0.00    +0.020 C 
ATOM     41  C   UNL A   1     -24.829  -0.715  33.905  0.00  0.00    +0.089 C 
ATOM     42  N   UNL A   1     -24.758  -1.481  32.646  0.00  0.00    -0.217 NA
ENDBRANCH  31  38
ENDBRANCH  10  31
TORSDOF 8
