MODEL 3700
MODEL 1
REMARK VINA RESULT:    -4.902      0.000      0.000
REMARK INTER + INTRA:          -5.228
REMARK INTER:                  -5.189
REMARK INTRA:                  -0.039
REMARK UNBOUND:                -0.039
REMARK  Name = No_3700-gen_results/8p0m/2024-11-27-11-27-31/
REMARK  1 active torsions:
REMARK  status: ('A' for Active; 'I' for Inactive)
REMARK    1  A    between atoms: C_1  and  C_8
REMARK                            x       y       z     vdW  Elec       q    Type
REMARK                         _______ _______ _______ _____ _____    ______ ____
ROOT
ATOM      1  C   UNL A   1     -23.273  -2.015  28.987  0.00  0.00    +0.001 C 
ATOM      2  C   UNL A   1     -24.135  -2.833  29.212  0.00  0.00    -0.046 C 
ATOM      3  C   UNL A   1     -24.068  -4.174  28.875  0.00  0.00    +0.022 C 
ATOM      4  C   UNL A   1     -25.112  -5.154  29.058  0.00  0.00    +0.004 C 
ATOM      5  C   UNL A   1     -26.333  -4.740  29.640  0.00  0.00    +0.001 C 
ATOM      6  C   UNL A   1     -26.466  -3.377  30.012  0.00  0.00    +0.004 C 
ATOM      7  C   UNL A   1     -25.434  -2.523  29.772  0.00  0.00    +0.022 C 
ENDROOT
BRANCH   1   8
ATOM      8  C   UNL A   1     -23.400  -0.627  29.549  0.00  0.00    +0.208 C 
ATOM      9  O   UNL A   1     -22.429   0.005  29.961  0.00  0.00    -0.215 OA
ENDBRANCH   1   8
TORSDOF 1
ENDMDL
ENDMDL
