MODEL 3701
MODEL 1
REMARK VINA RESULT:    -6.773      0.000      0.000
REMARK INTER + INTRA:          -7.619
REMARK INTER:                  -7.169
REMARK INTRA:                  -0.450
REMARK UNBOUND:                -0.450
REMARK  Name = No_3701-gen_results/8p0m/2024-11-27-11-27-31/
REMARK  1 active torsions:
REMARK  status: ('A' for Active; 'I' for Inactive)
REMARK    1  A    between atoms: C_4  and  C_6
REMARK                            x       y       z     vdW  Elec       q    Type
REMARK                         _______ _______ _______ _____ _____    ______ ____
ROOT
ATOM      1  C   UNL A   1     -24.236  -1.335  29.071  0.00  0.00    +0.019 C 
ATOM      2  C   UNL A   1     -24.707  -0.628  27.917  0.00  0.00    +0.004 C 
ATOM      3  C   UNL A   1     -23.916   0.412  27.382  0.00  0.00    +0.000 C 
ATOM      4  C   UNL A   1     -22.738   0.802  28.042  0.00  0.00    +0.000 C 
ATOM      5  C   UNL A   1     -22.713  -1.168  29.113  0.00  0.00    +0.004 C 
ATOM      6  C   UNL A   1     -22.141   0.067  28.875  0.00  0.00    +0.000 C 
ATOM      7  C   UNL A   1     -24.753  -0.437  30.351  0.00  0.00    +0.004 C 
ENDROOT
BRANCH   1  11
ATOM      8  C   UNL A   1     -24.466  -5.166  28.836  0.00  0.00    -0.000 A 
ATOM      9  C   UNL A   1     -25.447  -5.236  29.215  0.00  0.00    -0.000 A 
ATOM     10  C   UNL A   1     -23.928  -3.761  28.681  0.00  0.00    -0.004 A 
ATOM     11  C   UNL A   1     -24.682  -2.674  29.171  0.00  0.00    -0.023 A 
ATOM     12  C   UNL A   1     -26.412  -4.289  29.818  0.00  0.00    -0.000 A 
ATOM     13  C   UNL A   1     -25.930  -2.960  29.718  0.00  0.00    -0.004 A 
ENDBRANCH   1  11
TORSDOF 1
ENDMDL
ENDMDL
