REMARK  Name = No_3701-gen_results/8p0m/2024-11-27-11-27-31/
REMARK  1 active torsions:
REMARK  status: ('A' for Active; 'I' for Inactive)
REMARK    1  A    between atoms: C_4  and  C_6
REMARK                            x       y       z     vdW  Elec       q    Type
REMARK                         _______ _______ _______ _____ _____    ______ ____
ROOT
ATOM      1  C   UNL A   1     -24.398  -0.836  30.177  0.00  0.00    +0.019 C 
ATOM      2  C   UNL A   1     -23.796   0.436  29.909  0.00  0.00    +0.004 C 
ATOM      3  C   UNL A   1     -22.494   0.476  29.363  0.00  0.00    +0.000 C 
ATOM      4  C   UNL A   1     -21.776  -0.720  29.186  0.00  0.00    +0.000 C 
ATOM      5  C   UNL A   1     -23.702  -1.864  29.277  0.00  0.00    +0.004 C 
ATOM      6  C   UNL A   1     -22.327  -1.853  29.141  0.00  0.00    +0.000 C 
ATOM      7  C   UNL A   1     -23.875  -1.236  31.687  0.00  0.00    +0.004 C 
ENDROOT
BRANCH   1  11
ATOM      8  C   UNL A   1     -28.016  -0.814  28.878  0.00  0.00    -0.000 A 
ATOM      9  C   UNL A   1     -28.469  -0.785  29.829  0.00  0.00    -0.000 A 
ATOM     10  C   UNL A   1     -26.504  -0.778  28.877  0.00  0.00    -0.004 A 
ATOM     11  C   UNL A   1     -25.810  -0.853  30.103  0.00  0.00    -0.023 A 
ATOM     12  C   UNL A   1     -27.991  -0.892  31.226  0.00  0.00    -0.000 A 
ATOM     13  C   UNL A   1     -26.575  -0.890  31.266  0.00  0.00    -0.004 A 
ENDBRANCH   1  11
TORSDOF 1
