REMARK  Name = outputs/IAG933/test6/raw/output_3702_IAG933_linker_design_.xyz
REMARK  15 active torsions:
REMARK  status: ('A' for Active; 'I' for Inactive)
REMARK    1  A    between atoms: C_1  and  C_2
REMARK    2  A    between atoms: C_1  and  C_8
REMARK    3  A    between atoms: C_1  and  N_32
REMARK    4  A    between atoms: C_13  and  C_31
REMARK    5  A    between atoms: C_14  and  C_15
REMARK    6  A    between atoms: C_21  and  O_22
REMARK    7  A    between atoms: O_22  and  C_23
REMARK    8  A    between atoms: C_23  and  C_24
REMARK    9  A    between atoms: C_29  and  C_35
REMARK   10  A    between atoms: C_31  and  C_38
REMARK   11  A    between atoms: C_31  and  O_43
REMARK   12  A    between atoms: N_32  and  C_35
REMARK   13  A    between atoms: N_32  and  C_38
REMARK   14  A    between atoms: C_34  and  O_43
REMARK   15  A    between atoms: C_37  and  O_40
REMARK                            x       y       z     vdW  Elec       q    Type
REMARK                         _______ _______ _______ _____ _____    ______ ____
ROOT
ATOM      1  C   UNL A   1     -24.744   1.337  27.565  0.00  0.00    +0.141 C 
ENDROOT
BRANCH   1   2
ATOM      2  C   UNL A   1     -25.688   1.614  26.461  0.00  0.00    +0.099 C 
ATOM      3  C   UNL A   1     -26.250   2.920  26.395  0.00  0.00    +0.057 C 
ATOM      4  C   UNL A   1     -27.438   3.091  25.645  0.00  0.00    +0.102 C 
ATOM      5  N   UNL A   1     -28.075   2.089  25.003  0.00  0.00    -0.212 NA
ATOM      6  C   UNL A   1     -27.543   0.849  25.079  0.00  0.00    +0.234 C 
ATOM      7  C   UNL A   1     -26.354   0.576  25.777  0.00  0.00    +0.242 C 
ATOM      8  F   UNL A   1     -25.860  -0.681  25.795  0.00  0.00    -0.227 F 
BRANCH   3   9
ATOM      9  C   UNL A   1     -25.642   4.093  27.123  0.00  0.00    +0.263 C 
ATOM     10  N   UNL A   1     -25.614   5.252  26.449  0.00  0.00    -0.200 NA
ATOM     11  C   UNL A   1     -25.026   6.479  26.963  0.00  0.00    +0.139 C 
ATOM     12  O   UNL A   1     -25.143   3.966  28.243  0.00  0.00    -0.269 OA
ENDBRANCH   3   9
BRANCH   6  13
ATOM     13  O   UNL A   1     -28.193  -0.208  24.477  0.00  0.00    -0.459 OA
BRANCH  13  14
ATOM     14  C   UNL A   1     -29.460   0.005  23.866  0.00  0.00    +0.242 C 
BRANCH  14  15
ATOM     15  C   UNL A   1     -30.065  -1.377  23.573  0.00  0.00    +0.229 C 
ATOM     16  O   UNL A   1     -30.729  -1.878  24.721  0.00  0.00    -0.216 OA
ENDBRANCH  14  15
ENDBRANCH  13  14
ENDBRANCH   6  13
ENDBRANCH   1   2
BRANCH   1  17
ATOM     17  C   UNL A   1     -25.334   1.088  28.810  0.00  0.00    +0.103 C 
BRANCH  17  18
ATOM     18  N   UNL A   1     -25.827  -0.252  29.189  0.00  0.00    -0.267 NA
BRANCH  18  19
ATOM     19  C   UNL A   1     -24.855  -1.012  30.143  0.00  0.00    +0.096 C 
BRANCH  19  20
ATOM     20  C   UNL A   1     -24.973  -2.505  29.788  0.00  0.00    -0.006 C 
ATOM     21  C   UNL A   1     -23.906  -3.173  29.146  0.00  0.00    -0.003 C 
ATOM     22  C   UNL A   1     -23.989  -4.549  28.853  0.00  0.00    -0.000 C 
ATOM     23  C   UNL A   1     -25.137  -5.280  29.205  0.00  0.00    -0.000 C 
ATOM     24  C   UNL A   1     -26.232  -4.611  29.784  0.00  0.00    -0.000 C 
ATOM     25  C   UNL A   1     -26.155  -3.232  30.065  0.00  0.00    -0.003 C 
ENDBRANCH  19  20
BRANCH  19  26
ATOM     26  C   UNL A   1     -25.387  -0.679  31.571  0.00  0.00    +0.092 C 
ATOM     27  C   UNL A   1     -25.189   0.773  32.028  0.00  0.00    +0.021 C 
ATOM     28  C   UNL A   1     -25.336   0.684  33.544  0.00  0.00    +0.020 C 
ATOM     29  C   UNL A   1     -24.829  -0.715  33.905  0.00  0.00    +0.089 C 
ATOM     30  N   UNL A   1     -24.758  -1.481  32.646  0.00  0.00    -0.218 NA
ENDBRANCH  19  26
ENDBRANCH  18  19
BRANCH  18  31
ATOM     31  C   UNL A   1     -27.342  -0.413  28.936  0.00  0.00    +0.072 C 
BRANCH  31  32
ATOM     32  C   UNL A   1     -28.270   0.834  28.925  0.00  0.00    +0.016 C 
ATOM     33  C   UNL A   1     -28.385   1.532  30.270  0.00  0.00    +0.001 C 
ATOM     34  C   UNL A   1     -29.652   0.402  28.421  0.00  0.00    +0.001 C 
ENDBRANCH  31  32
ENDBRANCH  18  31
ENDBRANCH  17  18
ENDBRANCH   1  17
BRANCH   1  35
ATOM     35  O   UNL A   1     -23.563   1.451  27.157  0.00  0.00    -0.329 OA
BRANCH  35  38
ATOM     36  O   UNL A   1     -22.309  -0.236  29.747  0.00  0.00    -0.325 OA
ATOM     37  N   UNL A   1     -20.477  -0.043  28.844  0.00  0.00    -0.017 NA
ATOM     38  C   UNL A   1     -22.606   0.911  27.739  0.00  0.00    +0.315 C 
ATOM     39  O   UNL A   1     -20.224   1.042  28.061  0.00  0.00    -0.341 OA
ATOM     40  C   UNL A   1     -21.332   1.298  27.347  0.00  0.00    +0.369 C 
ATOM     41  N   UNL A   1     -22.630  -0.045  28.681  0.00  0.00    -0.105 N 
ATOM     42  C   UNL A   1     -21.488  -0.618  29.282  0.00  0.00    +0.389 C 
BRANCH  40  44
ATOM     43  C   UNL A   1     -22.414   1.857  25.027  0.00  0.00    +0.178 C 
ATOM     44  O   UNL A   1     -21.393   1.813  26.055  0.00  0.00    -0.313 OA
ENDBRANCH  40  44
ENDBRANCH  35  38
ENDBRANCH   1  35
TORSDOF 15
