MODEL 3702
MODEL 1
REMARK VINA RESULT:    -6.555      0.000      0.000
REMARK INTER + INTRA:          -7.666
REMARK INTER:                  -7.322
REMARK INTRA:                  -0.344
REMARK UNBOUND:                -0.344
REMARK  Name = No_3702-gen_results/8p0m/2024-11-27-11-27-31/
REMARK  2 active torsions:
REMARK  status: ('A' for Active; 'I' for Inactive)
REMARK    1  A    between atoms: C_4  and  C_11
REMARK    2  A    between atoms: C_7  and  C_15
REMARK                            x       y       z     vdW  Elec       q    Type
REMARK                         _______ _______ _______ _____ _____    ______ ____
ROOT
ATOM      1  C   UNL A   1     -23.092   0.782  27.445  0.00  0.00    +0.004 A 
ATOM      2  C   UNL A   1     -22.313   1.486  27.539  0.00  0.00    -0.000 A 
ATOM      3  C   UNL A   1     -23.104  -0.282  28.408  0.00  0.00    +0.004 A 
ATOM      4  C   UNL A   1     -24.254  -1.205  28.506  0.00  0.00    +0.071 A 
ATOM      5  C   UNL A   1     -25.535  -0.740  28.154  0.00  0.00    +0.004 A 
ATOM      6  C   UNL A   1     -25.658   0.523  27.541  0.00  0.00    +0.004 A 
ATOM      7  C   UNL A   1     -24.573   1.287  27.313  0.00  0.00    +0.071 A 
ATOM      8  C   UNL A   1     -21.041   1.274  27.853  0.00  0.00    -0.000 A 
ATOM      9  C   UNL A   1     -20.872   0.055  28.583  0.00  0.00    -0.000 A 
ATOM     10  C   UNL A   1     -21.877  -0.753  29.024  0.00  0.00    -0.000 A 
ENDROOT
BRANCH   4  11
ATOM     11  C   UNL A   1     -24.267  -2.511  29.110  0.00  0.00    +0.419 C 
ATOM     12  F   UNL A   1     -23.514  -3.264  28.582  0.00  0.00    -0.166 F 
ATOM     13  F   UNL A   1     -24.046  -2.455  30.453  0.00  0.00    -0.166 F 
ATOM     14  F   UNL A   1     -25.523  -3.076  28.987  0.00  0.00    -0.166 F 
ENDBRANCH   4  11
BRANCH   7  15
ATOM     15  C   UNL A   1     -24.788   2.528  26.533  0.00  0.00    +0.419 C 
ATOM     16  F   UNL A   1     -24.710   3.494  27.241  0.00  0.00    -0.166 F 
ATOM     17  F   UNL A   1     -26.017   2.510  25.950  0.00  0.00    -0.166 F 
ATOM     18  F   UNL A   1     -23.982   2.564  25.459  0.00  0.00    -0.166 F 
ENDBRANCH   7  15
TORSDOF 2
ENDMDL
ENDMDL
