REMARK  Name = outputs/IAG933/test6/raw/output_3703_IAG933_linker_design_.xyz
REMARK  13 active torsions:
REMARK  status: ('A' for Active; 'I' for Inactive)
REMARK    1  A    between atoms: C_1  and  C_2
REMARK    2  A    between atoms: C_13  and  N_46
REMARK    3  A    between atoms: C_14  and  C_15
REMARK    4  A    between atoms: C_21  and  O_22
REMARK    5  A    between atoms: O_22  and  C_23
REMARK    6  A    between atoms: C_23  and  C_24
REMARK    7  A    between atoms: C_28  and  N_33
REMARK    8  A    between atoms: C_28  and  C_44
REMARK    9  A    between atoms: C_36  and  N_37
REMARK   10  A    between atoms: C_36  and  C_45
REMARK   11  A    between atoms: C_39  and  C_40
REMARK   12  A    between atoms: C_39  and  O_41
REMARK   13  A    between atoms: C_43  and  C_44
REMARK                            x       y       z     vdW  Elec       q    Type
REMARK                         _______ _______ _______ _____ _____    ______ ____
ROOT
ATOM      1  C   UNL A   1     -22.727   0.167  29.477  0.00  0.00    +0.082 C 
ENDROOT
BRANCH   1   8
ATOM      2  C   UNL A   1     -24.855  -1.012  30.143  0.00  0.00    +0.096 C 
ATOM      3  C   UNL A   1     -25.387  -0.679  31.571  0.00  0.00    +0.093 C 
ATOM      4  C   UNL A   1     -25.189   0.773  32.028  0.00  0.00    +0.034 C 
ATOM      5  C   UNL A   1     -25.336   0.684  33.544  0.00  0.00    +0.022 C 
ATOM      6  C   UNL A   1     -24.829  -0.715  33.905  0.00  0.00    +0.089 C 
ATOM      7  N   UNL A   1     -24.758  -1.481  32.646  0.00  0.00    -0.218 NA
ATOM      8  N   UNL A   1     -24.154   0.283  29.900  0.00  0.00    -0.270 NA
ATOM      9  C   UNL A   1     -24.864   1.320  30.653  0.00  0.00    +0.061 C 
BRANCH   2  10
ATOM     10  C   UNL A   1     -24.973  -2.505  29.788  0.00  0.00    -0.006 C 
ATOM     11  C   UNL A   1     -23.906  -3.173  29.146  0.00  0.00    -0.003 C 
ATOM     12  C   UNL A   1     -23.989  -4.549  28.853  0.00  0.00    -0.000 C 
ATOM     13  C   UNL A   1     -25.137  -5.280  29.205  0.00  0.00    -0.000 C 
ATOM     14  C   UNL A   1     -26.232  -4.611  29.784  0.00  0.00    -0.000 C 
ATOM     15  C   UNL A   1     -26.155  -3.232  30.065  0.00  0.00    -0.003 C 
ENDBRANCH   2  10
BRANCH   9  16
ATOM     16  C   UNL A   1     -24.871   2.933  30.838  0.00  0.00    +0.042 C 
BRANCH  16  17
ATOM     17  C   UNL A   1     -25.409   3.330  32.156  0.00  0.00    +0.130 C 
BRANCH  17  18
ATOM     18  N   UNL A   1     -25.615   3.882  33.014  0.00  0.00    -0.235 NA
ATOM     19  C   UNL A   1     -25.133   5.003  33.168  0.00  0.00    +0.256 C 
BRANCH  19  22
ATOM     20  O   UNL A   1     -23.284   5.267  32.275  0.00  0.00    -0.286 OA
ATOM     21  C   UNL A   1     -25.189   5.973  31.047  0.00  0.00    +0.082 C 
ATOM     22  C   UNL A   1     -24.404   5.352  32.141  0.00  0.00    +0.226 C 
ENDBRANCH  19  22
BRANCH  19  24
ATOM     23  C   UNL A   1     -27.209   6.035  34.384  0.00  0.00    +0.254 C 
ATOM     24  O   UNL A   1     -25.733   6.022  34.242  0.00  0.00    -0.454 OA
ENDBRANCH  19  24
ENDBRANCH  17  18
ENDBRANCH  16  17
ENDBRANCH   9  16
ENDBRANCH   1   8
BRANCH   1  30
ATOM     25  C   UNL A   1     -21.268   1.553  27.803  0.00  0.00    +0.216 C 
ATOM     26  C   UNL A   1     -22.828   1.847  26.209  0.00  0.00    +0.355 C 
ATOM     27  O   UNL A   1     -21.511   2.061  26.553  0.00  0.00    -0.444 OA
ATOM     28  C   UNL A   1     -23.504   1.336  27.326  0.00  0.00    +0.134 C 
ATOM     29  O   UNL A   1     -23.315   2.029  25.012  0.00  0.00    -0.244 OA
ATOM     30  C   UNL A   1     -22.461   0.950  28.240  0.00  0.00    +0.106 C 
ATOM     31  N   UNL A   1     -24.843   1.338  27.472  0.00  0.00    -0.262 NA
BRANCH  31  32
ATOM     32  C   UNL A   1     -25.688   1.614  26.461  0.00  0.00    +0.173 C 
ATOM     33  C   UNL A   1     -26.250   2.920  26.395  0.00  0.00    +0.077 C 
ATOM     34  C   UNL A   1     -27.438   3.091  25.645  0.00  0.00    +0.104 C 
ATOM     35  N   UNL A   1     -28.075   2.089  25.003  0.00  0.00    -0.212 NA
ATOM     36  C   UNL A   1     -27.543   0.849  25.079  0.00  0.00    +0.236 C 
ATOM     37  C   UNL A   1     -26.354   0.576  25.777  0.00  0.00    +0.262 C 
ATOM     38  F   UNL A   1     -25.860  -0.681  25.795  0.00  0.00    -0.225 F 
BRANCH  33  39
ATOM     39  C   UNL A   1     -25.642   4.093  27.123  0.00  0.00    +0.264 C 
ATOM     40  N   UNL A   1     -25.614   5.252  26.449  0.00  0.00    -0.200 NA
ATOM     41  C   UNL A   1     -25.026   6.479  26.963  0.00  0.00    +0.139 C 
ATOM     42  O   UNL A   1     -25.143   3.966  28.243  0.00  0.00    -0.269 OA
ENDBRANCH  33  39
BRANCH  36  43
ATOM     43  O   UNL A   1     -28.193  -0.208  24.477  0.00  0.00    -0.459 OA
BRANCH  43  44
ATOM     44  C   UNL A   1     -29.460   0.005  23.866  0.00  0.00    +0.242 C 
BRANCH  44  45
ATOM     45  C   UNL A   1     -30.065  -1.377  23.573  0.00  0.00    +0.229 C 
ATOM     46  O   UNL A   1     -30.729  -1.878  24.721  0.00  0.00    -0.216 OA
ENDBRANCH  44  45
ENDBRANCH  43  44
ENDBRANCH  36  43
ENDBRANCH  31  32
ENDBRANCH   1  30
TORSDOF 13
