MODEL 3706
MODEL 1
REMARK VINA RESULT:    -6.745      0.000      0.000
REMARK INTER + INTRA:         -10.325
REMARK INTER:                  -9.505
REMARK INTRA:                  -0.820
REMARK UNBOUND:                -0.820
REMARK  Name = No_3706-gen_results/8p0m/2024-11-27-11-27-31/
REMARK  7 active torsions:
REMARK  status: ('A' for Active; 'I' for Inactive)
REMARK    1  A    between atoms: C_1  and  C_6
REMARK    2  A    between atoms: C_5  and  C_11
REMARK    3  A    between atoms: N_8  and  C_10
REMARK    4  A    between atoms: C_10  and  C_14
REMARK    5  A    between atoms: C_14  and  C_15
REMARK    6  A    between atoms: C_16  and  C_17
REMARK    7  A    between atoms: C_18  and  C_19
REMARK                            x       y       z     vdW  Elec       q    Type
REMARK                         _______ _______ _______ _____ _____    ______ ____
ROOT
ATOM      1  C   UNL A   1     -23.776  -1.480  29.550  0.00  0.00    +0.265 C 
ATOM      2  N   UNL A   1     -22.743  -1.166  29.787  0.00  0.00    -0.201 NA
ATOM      3  O   UNL A   1     -24.625  -0.424  29.375  0.00  0.00    -0.268 OA
ENDROOT
BRANCH   1   4
ATOM      4  C   UNL A   1     -24.399  -2.773  29.483  0.00  0.00    +0.055 A 
ATOM      5  C   UNL A   1     -23.846  -3.684  28.911  0.00  0.00    +0.005 A 
ATOM      6  C   UNL A   1     -24.374  -4.951  28.732  0.00  0.00    +0.000 A 
ATOM      7  C   UNL A   1     -25.686  -5.184  29.239  0.00  0.00    +0.007 A 
ATOM      8  C   UNL A   1     -26.330  -4.108  29.736  0.00  0.00    +0.080 A 
ATOM      9  C   UNL A   1     -25.716  -2.939  29.827  0.00  0.00    +0.011 A 
BRANCH   8  10
ATOM     10  C   UNL A   1     -27.709  -4.346  30.212  0.00  0.00    +0.388 C 
ATOM     11  O   UNL A   1     -28.124  -5.281  30.812  0.00  0.00    -0.241 OA
ATOM     12  O   UNL A   1     -28.561  -3.320  30.088  0.00  0.00    -0.241 OA
ENDBRANCH   8  10
ENDBRANCH   1   4
BRANCH   2  13
ATOM     13  C   UNL A   1     -22.079   0.168  29.641  0.00  0.00    +0.120 C 
BRANCH  13  14
ATOM     14  C   UNL A   1     -21.341   0.369  28.340  0.00  0.00    +0.050 C 
BRANCH  14  15
ATOM     15  C   UNL A   1     -21.623   1.102  27.641  0.00  0.00    -0.024 C 
ATOM     16  C   UNL A   1     -22.682   1.451  27.271  0.00  0.00    -0.004 C 
BRANCH  16  17
ATOM     17  C   UNL A   1     -23.090   2.481  26.257  0.00  0.00    -0.000 C 
ATOM     18  C   UNL A   1     -24.267   2.429  25.528  0.00  0.00    -0.000 C 
BRANCH  18  19
ATOM     19  C   UNL A   1     -25.134   1.322  25.762  0.00  0.00    -0.000 C 
ATOM     20  C   UNL A   1     -25.123   0.195  24.953  0.00  0.00    -0.000 C 
ENDBRANCH  18  19
ENDBRANCH  16  17
ENDBRANCH  14  15
ENDBRANCH  13  14
ENDBRANCH   2  13
TORSDOF 7
ENDMDL
ENDMDL
