REMARK  Name = No_3706-gen_results/8p0m/2024-11-27-11-27-31/
REMARK  7 active torsions:
REMARK  status: ('A' for Active; 'I' for Inactive)
REMARK    1  A    between atoms: C_1  and  C_6
REMARK    2  A    between atoms: C_5  and  C_11
REMARK    3  A    between atoms: N_8  and  C_10
REMARK    4  A    between atoms: C_10  and  C_14
REMARK    5  A    between atoms: C_14  and  C_15
REMARK    6  A    between atoms: C_16  and  C_17
REMARK    7  A    between atoms: C_18  and  C_19
REMARK                            x       y       z     vdW  Elec       q    Type
REMARK                         _______ _______ _______ _____ _____    ______ ____
ROOT
ATOM      1  C   UNL A   1     -28.022  -1.590  30.088  0.00  0.00    +0.265 C 
ATOM      2  N   UNL A   1     -28.838  -1.898  30.766  0.00  0.00    -0.201 NA
ATOM      3  O   UNL A   1     -26.786  -1.948  30.547  0.00  0.00    -0.268 OA
ENDROOT
BRANCH   1   4
ATOM      4  C   UNL A   1     -28.016  -0.814  28.878  0.00  0.00    +0.055 A 
ATOM      5  C   UNL A   1     -27.064  -0.119  28.608  0.00  0.00    +0.005 A 
ATOM      6  C   UNL A   1     -26.972   0.714  27.506  0.00  0.00    +0.000 A 
ATOM      7  C   UNL A   1     -28.105   0.774  26.642  0.00  0.00    +0.007 A 
ATOM      8  C   UNL A   1     -29.201   0.104  27.053  0.00  0.00    +0.080 A 
ATOM      9  C   UNL A   1     -29.164  -0.639  28.148  0.00  0.00    +0.011 A 
BRANCH   8  10
ATOM     10  C   UNL A   1     -30.388   0.214  26.180  0.00  0.00    +0.388 C 
ATOM     11  O   UNL A   1     -30.420   0.295  24.997  0.00  0.00    -0.241 OA
ATOM     12  O   UNL A   1     -31.576   0.049  26.776  0.00  0.00    -0.241 OA
ENDBRANCH   8  10
ENDBRANCH   1   4
BRANCH   2  13
ATOM     13  C   UNL A   1     -28.838  -2.880  31.897  0.00  0.00    +0.120 C 
BRANCH  13  14
ATOM     14  C   UNL A   1     -30.149  -3.593  32.117  0.00  0.00    +0.050 C 
BRANCH  14  15
ATOM     15  C   UNL A   1     -31.019  -3.089  32.426  0.00  0.00    -0.024 C 
ATOM     16  C   UNL A   1     -31.874  -2.572  31.807  0.00  0.00    -0.004 C 
BRANCH  16  17
ATOM     17  C   UNL A   1     -33.106  -1.832  32.243  0.00  0.00    -0.000 C 
ATOM     18  C   UNL A   1     -33.966  -1.177  31.376  0.00  0.00    -0.000 C 
BRANCH  18  19
ATOM     19  C   UNL A   1     -33.647  -1.212  29.987  0.00  0.00    -0.000 C 
ATOM     20  C   UNL A   1     -32.520  -1.864  29.508  0.00  0.00    -0.000 C 
ENDBRANCH  18  19
ENDBRANCH  16  17
ENDBRANCH  14  15
ENDBRANCH  13  14
ENDBRANCH   2  13
TORSDOF 7
