MODEL 3707
MODEL 1
REMARK VINA RESULT:    -3.916      0.000      0.000
REMARK INTER + INTRA:          -3.916
REMARK INTER:                  -3.916
REMARK INTRA:                   0.000
REMARK UNBOUND:                 0.000
REMARK  Name = No_3707-gen_results/8p0m/2024-11-27-11-27-31/
REMARK  0 active torsions:
REMARK  status: ('A' for Active; 'I' for Inactive)
REMARK                            x       y       z     vdW  Elec       q    Type
REMARK                         _______ _______ _______ _____ _____    ______ ____
ROOT
ATOM      1  C   UNL A   1     -23.116  -1.550  29.331  0.00  0.00    +0.008 A 
ATOM      2  C   UNL A   1     -24.183  -1.742  28.796  0.00  0.00    +0.035 A 
ATOM      3  C   UNL A   1     -24.771  -0.851  27.919  0.00  0.00    +0.008 A 
ATOM      4  C   UNL A   1     -24.059   0.340  27.603  0.00  0.00    +0.012 A 
ATOM      5  C   UNL A   1     -22.800   0.430  28.092  0.00  0.00    +0.058 A 
ATOM      6  C   UNL A   1     -22.303  -0.494  28.892  0.00  0.00    +0.012 A 
ATOM      7 CL   UNL A   1     -21.928   1.832  27.678  0.00  0.00    -0.082 Cl
ATOM      8 BR   UNL A   1     -25.065  -3.354  29.356  0.00  0.00    -0.049 Br
ENDROOT
TORSDOF 0
ENDMDL
ENDMDL
