MODEL 3708
MODEL 1
REMARK VINA RESULT:    -5.526      0.000      0.000
REMARK INTER + INTRA:          -6.622
REMARK INTER:                  -6.172
REMARK INTRA:                  -0.450
REMARK UNBOUND:                -0.450
REMARK  Name = No_3708-gen_results/8p0m/2024-11-27-11-27-31/
REMARK  2 active torsions:
REMARK  status: ('A' for Active; 'I' for Inactive)
REMARK    1  A    between atoms: C_3  and  C_7
REMARK    2  A    between atoms: C_7  and  C_9
REMARK                            x       y       z     vdW  Elec       q    Type
REMARK                         _______ _______ _______ _____ _____    ______ ____
ROOT
ATOM      1  C   UNL A   1     -26.246  -4.303  29.698  0.00  0.00    +0.000 A 
ATOM      2  C   UNL A   1     -25.966  -3.127  29.702  0.00  0.00    +0.001 A 
ATOM      3  C   UNL A   1     -24.788  -2.613  29.161  0.00  0.00    +0.013 A 
ATOM      4  C   UNL A   1     -23.805  -3.527  28.611  0.00  0.00    +0.001 A 
ATOM      5  C   UNL A   1     -24.197  -4.884  28.650  0.00  0.00    +0.000 A 
ATOM      6  C   UNL A   1     -25.326  -5.274  29.186  0.00  0.00    +0.000 A 
ENDROOT
BRANCH   3   7
ATOM      7  C   UNL A   1     -24.384  -1.183  29.120  0.00  0.00    +0.053 C 
ATOM      8  N   UNL A   1     -23.797  -0.596  30.071  0.00  0.00    -0.273 NA
ATOM      9  C   UNL A   1     -23.501  -0.900  31.278  0.00  0.00    +0.151 C 
BRANCH   7  10
ATOM     10  C   UNL A   1     -24.530  -0.436  27.905  0.00  0.00    +0.040 C 
ATOM     11  C   UNL A   1     -25.475  -0.456  26.932  0.00  0.00    +0.006 C 
ATOM     12  C   UNL A   1     -23.394   0.563  27.747  0.00  0.00    +0.006 C 
ENDBRANCH   7  10
ENDBRANCH   3   7
TORSDOF 2
ENDMDL
ENDMDL
