REMARK  Name = No_3709-gen_results/8p0m/2024-11-27-11-27-31/
REMARK  2 active torsions:
REMARK  status: ('A' for Active; 'I' for Inactive)
REMARK    1  A    between atoms: C_2  and  C_10
REMARK    2  A    between atoms: C_5  and  C_6
REMARK                            x       y       z     vdW  Elec       q    Type
REMARK                         _______ _______ _______ _____ _____    ______ ____
ROOT
ATOM      1  C   UNL A   1     -28.016  -0.814  28.878  0.00  0.00    +0.007 A 
ATOM      2  C   UNL A   1     -27.064  -0.119  28.608  0.00  0.00    -0.000 A 
ATOM      3  C   UNL A   1     -26.929   1.171  29.008  0.00  0.00    -0.000 A 
ATOM      4  C   UNL A   1     -27.956   1.741  29.784  0.00  0.00    +0.000 A 
ATOM      5  C   UNL A   1     -29.057  -0.327  29.747  0.00  0.00    +0.080 A 
ATOM      6  C   UNL A   1     -28.977   0.958  30.179  0.00  0.00    +0.007 A 
ENDROOT
BRANCH   5   7
ATOM      7  C   UNL A   1     -30.170  -1.158  30.133  0.00  0.00    +0.388 C 
ATOM      8  O   UNL A   1     -30.026  -2.358  30.325  0.00  0.00    -0.241 OA
ATOM      9  O   UNL A   1     -31.361  -0.689  30.297  0.00  0.00    -0.241 OA
ENDBRANCH   5   7
BRANCH   2  10
ATOM     10  C   UNL A   1     -25.866  -0.606  27.774  0.00  0.00    -0.005 C 
ATOM     11  C   UNL A   1     -25.069   0.253  27.029  0.00  0.00    -0.026 C 
ATOM     12  C   UNL A   1     -25.060   1.600  27.405  0.00  0.00    +0.031 C 
ENDBRANCH   2  10
TORSDOF 2
