MODEL 3709
MODEL 1
REMARK VINA RESULT:    -5.816      0.000      0.000
REMARK INTER + INTRA:          -6.564
REMARK INTER:                  -6.496
REMARK INTRA:                  -0.068
REMARK UNBOUND:                -0.068
REMARK  Name = No_3709-gen_results/8p0m/2024-11-27-11-27-31/
REMARK  2 active torsions:
REMARK  status: ('A' for Active; 'I' for Inactive)
REMARK    1  A    between atoms: C_2  and  C_10
REMARK    2  A    between atoms: C_5  and  C_6
REMARK                            x       y       z     vdW  Elec       q    Type
REMARK                         _______ _______ _______ _____ _____    ______ ____
ROOT
ATOM      1  C   UNL A   1     -28.347 -11.959  30.892  0.00  0.00    +0.007 A 
ATOM      2  C   UNL A   1     -29.075 -11.352  30.141  0.00  0.00    -0.000 A 
ATOM      3  C   UNL A   1     -29.896 -10.345  30.530  0.00  0.00    -0.000 A 
ATOM      4  C   UNL A   1     -29.908  -9.979  31.889  0.00  0.00    +0.000 A 
ATOM      5  C   UNL A   1     -28.236 -11.575  32.276  0.00  0.00    +0.080 A 
ATOM      6  C   UNL A   1     -29.035 -10.572  32.725  0.00  0.00    +0.007 A 
ENDROOT
BRANCH   5   7
ATOM      7  C   UNL A   1     -27.330 -12.242  33.176  0.00  0.00    +0.388 C 
ATOM      8  O   UNL A   1     -26.389 -12.901  32.752  0.00  0.00    -0.241 OA
ATOM      9  O   UNL A   1     -27.456 -12.182  34.459  0.00  0.00    -0.241 OA
ENDBRANCH   5   7
BRANCH   2  10
ATOM     10  C   UNL A   1     -29.165 -11.638  28.631  0.00  0.00    -0.005 C 
ATOM     11  C   UNL A   1     -29.561 -12.866  28.120  0.00  0.00    -0.026 C 
ATOM     12  C   UNL A   1     -30.324 -13.688  28.956  0.00  0.00    +0.031 C 
ENDBRANCH   2  10
TORSDOF 2
ENDMDL
ENDMDL
