MODEL 370
MODEL 1
REMARK VINA RESULT:    -5.004      0.000      0.000
REMARK INTER + INTRA:          -5.447
REMARK INTER:                  -5.297
REMARK INTRA:                  -0.150
REMARK UNBOUND:                -0.150
REMARK  Name = No_370-gen_results/8p0m/2024-11-27-11-27-31/
REMARK  1 active torsions:
REMARK  status: ('A' for Active; 'I' for Inactive)
REMARK    1  A    between atoms: C_2  and  C_3
REMARK                            x       y       z     vdW  Elec       q    Type
REMARK                         _______ _______ _______ _____ _____    ______ ____
ROOT
ATOM      1  C   UNL A   1      -9.827  -9.901  18.148  0.00  0.00    +0.044 A 
ATOM      2  C   UNL A   1     -10.403  -9.242  19.407  0.00  0.00    +0.001 A 
ATOM      3  C   UNL A   1      -9.790  -8.987  20.688  0.00  0.00    -0.000 A 
ATOM      4  C   UNL A   1      -8.414  -9.461  20.771  0.00  0.00    -0.000 A 
ATOM      5  C   UNL A   1      -7.803 -10.117  19.681  0.00  0.00    -0.000 A 
ATOM      6  C   UNL A   1      -8.517 -10.320  18.553  0.00  0.00    +0.001 A 
ENDROOT
BRANCH   1   8
ATOM      7  F   UNL A   1     -11.244 -10.608  17.112  0.00  0.00    -0.193 F 
ATOM      8  C   UNL A   1     -10.279 -10.156  17.293  0.00  0.00    +0.341 C 
ATOM      9  F   UNL A   1      -9.265 -10.861  16.465  0.00  0.00    -0.193 F 
ENDBRANCH   1   8
TORSDOF 1
ENDMDL
ENDMDL
