REMARK  Name = outputs/IAG933/test6/raw/output_3710_IAG933_linker_design_.xyz
REMARK  15 active torsions:
REMARK  status: ('A' for Active; 'I' for Inactive)
REMARK    1  A    between atoms: C_1  and  C_2
REMARK    2  A    between atoms: C_1  and  C_8
REMARK    3  A    between atoms: C_1  and  C_30
REMARK    4  A    between atoms: C_13  and  C_39
REMARK    5  A    between atoms: C_14  and  C_15
REMARK    6  A    between atoms: C_21  and  O_22
REMARK    7  A    between atoms: O_22  and  C_23
REMARK    8  A    between atoms: C_23  and  C_24
REMARK    9  A    between atoms: C_28  and  C_31
REMARK   10  A    between atoms: C_28  and  C_35
REMARK   11  A    between atoms: C_30  and  C_31
REMARK   12  A    between atoms: C_30  and  N_36
REMARK   13  A    between atoms: N_33  and  C_35
REMARK   14  A    between atoms: C_34  and  C_39
REMARK   15  A    between atoms: N_36  and  C_39
REMARK                            x       y       z     vdW  Elec       q    Type
REMARK                         _______ _______ _______ _____ _____    ______ ____
ROOT
ATOM      1  C   UNL A   1     -25.722  -0.114  29.220  0.00  0.00    +0.143 C 
ENDROOT
BRANCH   1   2
ATOM      2  C   UNL A   1     -27.166  -0.330  28.891  0.00  0.00    +0.225 C 
ATOM      3  O   UNL A   1     -27.514  -0.997  27.956  0.00  0.00    -0.287 OA
BRANCH   2   4
ATOM      4  C   UNL A   1     -28.274   0.281  29.702  0.00  0.00    +0.225 C 
ATOM      5  O   UNL A   1     -28.824  -0.350  30.601  0.00  0.00    -0.287 OA
BRANCH   4   6
ATOM      6  C   UNL A   1     -28.619   1.593  29.598  0.00  0.00    +0.145 C 
BRANCH   6   8
ATOM      7  C   UNL A   1     -29.949   4.924  30.369  0.00  0.00    +0.002 C 
ATOM      8  N   UNL A   1     -29.159   2.179  30.686  0.00  0.00    -0.266 NA
ATOM      9  C   UNL A   1     -28.275   2.825  31.489  0.00  0.00    +0.072 C 
ATOM     10  C   UNL A   1     -30.919   3.736  30.552  0.00  0.00    +0.017 C 
ATOM     11  C   UNL A   1     -28.532   4.696  29.752  0.00  0.00    +0.002 C 
ATOM     12  C   UNL A   1     -30.301   2.528  31.122  0.00  0.00    +0.072 C 
ATOM     13  C   UNL A   1     -27.549   3.812  30.570  0.00  0.00    +0.017 C 
ENDBRANCH   6   8
ENDBRANCH   4   6
ENDBRANCH   2   4
ENDBRANCH   1   2
BRANCH   1  14
ATOM     14  C   UNL A   1     -24.855  -1.012  30.143  0.00  0.00    +0.062 C 
BRANCH  14  15
ATOM     15  C   UNL A   1     -24.973  -2.505  29.788  0.00  0.00    -0.019 C 
ATOM     16  C   UNL A   1     -23.906  -3.173  29.146  0.00  0.00    -0.004 C 
ATOM     17  C   UNL A   1     -23.989  -4.549  28.853  0.00  0.00    -0.000 C 
ATOM     18  C   UNL A   1     -25.137  -5.280  29.205  0.00  0.00    -0.000 C 
ATOM     19  C   UNL A   1     -26.232  -4.611  29.784  0.00  0.00    -0.000 C 
ATOM     20  C   UNL A   1     -26.155  -3.232  30.065  0.00  0.00    -0.004 C 
ENDBRANCH  14  15
BRANCH  14  21
ATOM     21  C   UNL A   1     -25.387  -0.679  31.571  0.00  0.00    +0.079 C 
ATOM     22  C   UNL A   1     -25.189   0.773  32.028  0.00  0.00    +0.019 C 
ATOM     23  C   UNL A   1     -25.336   0.684  33.544  0.00  0.00    +0.020 C 
ATOM     24  C   UNL A   1     -24.829  -0.715  33.905  0.00  0.00    +0.089 C 
ATOM     25  N   UNL A   1     -24.758  -1.481  32.646  0.00  0.00    -0.219 NA
ENDBRANCH  14  21
ENDBRANCH   1  14
BRANCH   1  26
ATOM     26  N   UNL A   1     -24.858   0.168  28.166  0.00  0.00    -0.204 NA
BRANCH  26  27
ATOM     27  C   UNL A   1     -24.599   1.123  27.316  0.00  0.00    +0.116 C 
BRANCH  27  28
ATOM     28  C   UNL A   1     -25.688   1.614  26.461  0.00  0.00    +0.035 C 
ATOM     29  C   UNL A   1     -26.250   2.920  26.395  0.00  0.00    +0.074 C 
ATOM     30  C   UNL A   1     -27.438   3.091  25.645  0.00  0.00    +0.106 C 
ATOM     31  N   UNL A   1     -28.075   2.089  25.003  0.00  0.00    -0.208 NA
ATOM     32  C   UNL A   1     -27.543   0.849  25.079  0.00  0.00    +0.253 C 
ATOM     33  C   UNL A   1     -26.354   0.576  25.777  0.00  0.00    +0.191 C 
ATOM     34  F   UNL A   1     -25.860  -0.681  25.795  0.00  0.00    -0.200 F 
BRANCH  29  35
ATOM     35  C   UNL A   1     -25.642   4.093  27.123  0.00  0.00    +0.266 C 
ATOM     36  N   UNL A   1     -25.614   5.252  26.449  0.00  0.00    -0.200 NA
ATOM     37  C   UNL A   1     -25.026   6.479  26.963  0.00  0.00    +0.139 C 
ATOM     38  O   UNL A   1     -25.143   3.966  28.243  0.00  0.00    -0.268 OA
ENDBRANCH  29  35
BRANCH  32  39
ATOM     39  O   UNL A   1     -28.193  -0.208  24.477  0.00  0.00    -0.456 OA
BRANCH  39  40
ATOM     40  C   UNL A   1     -29.460   0.005  23.866  0.00  0.00    +0.243 C 
BRANCH  40  41
ATOM     41  C   UNL A   1     -30.065  -1.377  23.573  0.00  0.00    +0.229 C 
ATOM     42  O   UNL A   1     -30.729  -1.878  24.721  0.00  0.00    -0.216 OA
ENDBRANCH  40  41
ENDBRANCH  39  40
ENDBRANCH  32  39
ENDBRANCH  27  28
BRANCH  27  44
ATOM     43  C   UNL A   1     -22.940   2.057  25.646  0.00  0.00    +0.028 C 
ATOM     44  C   UNL A   1     -23.311   1.518  27.052  0.00  0.00    -0.028 C 
ATOM     45  C   UNL A   1     -22.336   1.478  28.021  0.00  0.00    -0.033 C 
ATOM     46  C   UNL A   1     -20.894   1.622  27.644  0.00  0.00    +0.030 C 
ENDBRANCH  27  44
ENDBRANCH  26  27
ENDBRANCH   1  26
TORSDOF 15
