MODEL 3710
MODEL 1
REMARK VINA RESULT:    -4.450      0.000      0.000
REMARK INTER + INTRA:          -4.450
REMARK INTER:                  -4.450
REMARK INTRA:                   0.000
REMARK UNBOUND:                 0.000
REMARK  Name = No_3710-gen_results/8p0m/2024-11-27-11-27-31/
REMARK  0 active torsions:
REMARK  status: ('A' for Active; 'I' for Inactive)
REMARK                            x       y       z     vdW  Elec       q    Type
REMARK                         _______ _______ _______ _____ _____    ______ ____
ROOT
ATOM      1  C   UNL A   1     -24.004  -4.156  28.751  0.00  0.00    +0.011 A 
ATOM      2  C   UNL A   1     -24.276  -3.042  29.135  0.00  0.00    +0.058 A 
ATOM      3  C   UNL A   1     -25.379  -2.638  29.697  0.00  0.00    +0.011 A 
ATOM      4  C   UNL A   1     -26.424  -3.592  29.889  0.00  0.00    +0.001 A 
ATOM      5  C   UNL A   1     -24.971  -5.205  29.016  0.00  0.00    +0.001 A 
ATOM      6  C   UNL A   1     -26.136  -4.872  29.572  0.00  0.00    +0.000 A 
ATOM      7 CL   UNL A   1     -23.075  -1.752  28.946  0.00  0.00    -0.082 Cl
ENDROOT
TORSDOF 0
ENDMDL
ENDMDL
