MODEL 3711
MODEL 1
REMARK VINA RESULT:    -4.924      0.000      0.000
REMARK INTER + INTRA:          -5.295
REMARK INTER:                  -5.212
REMARK INTRA:                  -0.082
REMARK UNBOUND:                -0.082
REMARK  Name = No_3711-gen_results/8p0m/2024-11-27-11-27-31/
REMARK  1 active torsions:
REMARK  status: ('A' for Active; 'I' for Inactive)
REMARK    1  A    between atoms: C_1  and  C_2
REMARK                            x       y       z     vdW  Elec       q    Type
REMARK                         _______ _______ _______ _____ _____    ______ ____
ROOT
ATOM      1  C   UNL A   1     -24.549  -2.397  28.868  0.00  0.00    +0.019 A 
ATOM      2  C   UNL A   1     -23.934  -3.725  28.983  0.00  0.00    +0.002 A 
ATOM      3  C   UNL A   1     -24.765  -4.944  29.019  0.00  0.00    +0.000 A 
ATOM      4  C   UNL A   1     -26.055  -4.843  29.589  0.00  0.00    +0.000 A 
ATOM      5  C   UNL A   1     -26.580  -3.565  29.906  0.00  0.00    +0.000 A 
ATOM      6  C   UNL A   1     -25.853  -2.453  29.668  0.00  0.00    +0.002 A 
ENDROOT
BRANCH   1   7
ATOM      7  C   UNL A   1     -23.868  -1.606  29.005  0.00  0.00    +0.093 C 
ATOM      8  N   UNL A   1     -22.596  -1.592  28.964  0.00  0.00    -0.267 NA
ATOM      9  C   UNL A   1     -21.699  -0.521  29.036  0.00  0.00    +0.152 C 
ENDBRANCH   1   7
TORSDOF 1
ENDMDL
ENDMDL
