REMARK  Name = outputs/IAG933/test6/raw/output_3712_IAG933_linker_design_.xyz
REMARK  13 active torsions:
REMARK  status: ('A' for Active; 'I' for Inactive)
REMARK    1  A    between atoms: C_1  and  C_2
REMARK    2  A    between atoms: C_1  and  C_8
REMARK    3  A    between atoms: C_1  and  O_31
REMARK    4  A    between atoms: C_9  and  C_30
REMARK    5  A    between atoms: C_13  and  C_39
REMARK    6  A    between atoms: C_14  and  C_15
REMARK    7  A    between atoms: C_21  and  O_22
REMARK    8  A    between atoms: O_22  and  C_23
REMARK    9  A    between atoms: C_23  and  C_24
REMARK   10  A    between atoms: C_30  and  N_35
REMARK   11  A    between atoms: O_31  and  C_36
REMARK   12  A    between atoms: N_35  and  O_40
REMARK   13  A    between atoms: C_36  and  C_42
REMARK                            x       y       z     vdW  Elec       q    Type
REMARK                         _______ _______ _______ _____ _____    ______ ____
ROOT
ATOM      1  C   UNL A   1     -22.871   0.901  28.518  0.00  0.00    +0.120 C 
ATOM      2  C   UNL A   1     -22.124   2.138  25.870  0.00  0.00    -0.004 C 
ATOM      3  C   UNL A   1     -21.256   1.792  26.881  0.00  0.00    -0.019 C 
ATOM      4  C   UNL A   1     -23.499   2.107  25.751  0.00  0.00    -0.004 C 
ATOM      5  F   UNL A   1     -22.974   0.586  29.780  0.00  0.00    -0.209 F 
ATOM      6  C   UNL A   1     -24.386   1.531  26.658  0.00  0.00    -0.015 C 
ATOM      7  C   UNL A   1     -21.592   1.328  28.140  0.00  0.00    +0.082 C 
ATOM      8  C   UNL A   1     -24.000   0.838  27.772  0.00  0.00    +0.027 C 
ENDROOT
BRANCH   6   9
ATOM      9  C   UNL A   1     -25.688   1.614  26.461  0.00  0.00    +0.092 C 
ATOM     10  C   UNL A   1     -26.250   2.920  26.395  0.00  0.00    +0.059 C 
ATOM     11  C   UNL A   1     -27.438   3.091  25.645  0.00  0.00    +0.102 C 
ATOM     12  N   UNL A   1     -28.075   2.089  25.003  0.00  0.00    -0.212 NA
ATOM     13  C   UNL A   1     -27.543   0.849  25.079  0.00  0.00    +0.234 C 
ATOM     14  C   UNL A   1     -26.354   0.576  25.777  0.00  0.00    +0.244 C 
ATOM     15  F   UNL A   1     -25.860  -0.681  25.795  0.00  0.00    -0.227 F 
BRANCH  10  16
ATOM     16  C   UNL A   1     -25.642   4.093  27.123  0.00  0.00    +0.263 C 
ATOM     17  N   UNL A   1     -25.614   5.252  26.449  0.00  0.00    -0.200 NA
ATOM     18  C   UNL A   1     -25.026   6.479  26.963  0.00  0.00    +0.139 C 
ATOM     19  O   UNL A   1     -25.143   3.966  28.243  0.00  0.00    -0.269 OA
ENDBRANCH  10  16
BRANCH  13  20
ATOM     20  O   UNL A   1     -28.193  -0.208  24.477  0.00  0.00    -0.459 OA
BRANCH  20  21
ATOM     21  C   UNL A   1     -29.460   0.005  23.866  0.00  0.00    +0.242 C 
BRANCH  21  22
ATOM     22  C   UNL A   1     -30.065  -1.377  23.573  0.00  0.00    +0.229 C 
ATOM     23  O   UNL A   1     -30.729  -1.878  24.721  0.00  0.00    -0.216 OA
ENDBRANCH  21  22
ENDBRANCH  20  21
ENDBRANCH  13  20
ENDBRANCH   6   9
BRANCH   8  24
ATOM     24  C   UNL A   1     -25.037  -0.113  28.136  0.00  0.00    +0.171 C 
BRANCH  24  25
ATOM     25  O   UNL A   1     -25.601  -0.265  29.240  0.00  0.00    -0.346 OA
BRANCH  25  26
ATOM     26  C   UNL A   1     -24.855  -1.012  30.143  0.00  0.00    +0.154 C 
BRANCH  26  27
ATOM     27  C   UNL A   1     -24.973  -2.505  29.788  0.00  0.00    +0.006 C 
ATOM     28  C   UNL A   1     -23.906  -3.173  29.146  0.00  0.00    -0.002 C 
ATOM     29  C   UNL A   1     -23.989  -4.549  28.853  0.00  0.00    -0.000 C 
ATOM     30  C   UNL A   1     -25.137  -5.280  29.205  0.00  0.00    -0.000 C 
ATOM     31  C   UNL A   1     -26.232  -4.611  29.784  0.00  0.00    -0.000 C 
ATOM     32  C   UNL A   1     -26.155  -3.232  30.065  0.00  0.00    -0.002 C 
ENDBRANCH  26  27
BRANCH  26  33
ATOM     33  C   UNL A   1     -25.387  -0.679  31.571  0.00  0.00    +0.106 C 
ATOM     34  C   UNL A   1     -25.189   0.773  32.028  0.00  0.00    +0.041 C 
ATOM     35  C   UNL A   1     -25.336   0.684  33.544  0.00  0.00    +0.022 C 
ATOM     36  C   UNL A   1     -24.829  -0.715  33.905  0.00  0.00    +0.089 C 
ATOM     37  N   UNL A   1     -24.758  -1.481  32.646  0.00  0.00    -0.217 NA
BRANCH  34  38
ATOM     38  C   UNL A   1     -24.473   1.945  31.626  0.00  0.00    +0.137 C 
BRANCH  38  40
ATOM     39  O   UNL A   1     -26.434   3.217  31.562  0.00  0.00    -0.091 OA
ATOM     40  N   UNL A   1     -25.226   3.169  31.620  0.00  0.00    -0.018 NA
BRANCH  40  42
ATOM     41  C   UNL A   1     -24.885   4.843  32.869  0.00  0.00    +0.203 C 
ATOM     42  O   UNL A   1     -24.414   4.196  31.907  0.00  0.00    -0.254 OA
ENDBRANCH  40  42
ENDBRANCH  38  40
ENDBRANCH  34  38
ENDBRANCH  26  33
ENDBRANCH  25  26
ENDBRANCH  24  25
ENDBRANCH   8  24
TORSDOF 13
