MODEL 3713
MODEL 1
REMARK VINA RESULT:    -4.141      0.000      0.000
REMARK INTER + INTRA:          -4.141
REMARK INTER:                  -4.141
REMARK INTRA:                   0.000
REMARK UNBOUND:                 0.000
REMARK  Name = No_3713-gen_results/8p0m/2024-11-27-11-27-31/
REMARK  0 active torsions:
REMARK  status: ('A' for Active; 'I' for Inactive)
REMARK                            x       y       z     vdW  Elec       q    Type
REMARK                         _______ _______ _______ _____ _____    ______ ____
ROOT
ATOM      1  C   UNL A   1     -10.150  -9.105  19.685  0.00  0.00    +0.000 A 
ATOM      2  C   UNL A   1      -9.238  -9.198  20.204  0.00  0.00    +0.000 A 
ATOM      3  C   UNL A   1     -10.179  -9.834  18.417  0.00  0.00    +0.000 A 
ATOM      4  C   UNL A   1      -9.111 -10.577  17.978  0.00  0.00    +0.000 A 
ATOM      5  C   UNL A   1      -7.972  -9.900  19.991  0.00  0.00    +0.000 A 
ATOM      6  C   UNL A   1      -7.990 -10.608  18.766  0.00  0.00    +0.000 A 
ENDROOT
TORSDOF 0
ENDMDL
ENDMDL
