REMARK  Name = outputs/IAG933/test6/raw/output_3714_IAG933_linker_design_.xyz
REMARK  10 active torsions:
REMARK  status: ('A' for Active; 'I' for Inactive)
REMARK    1  A    between atoms: C_1  and  C_2
REMARK    2  A    between atoms: C_1  and  C_8
REMARK    3  A    between atoms: C_1  and  O_45
REMARK    4  A    between atoms: C_21  and  O_22
REMARK    5  A    between atoms: O_22  and  C_23
REMARK    6  A    between atoms: C_23  and  C_24
REMARK    7  A    between atoms: C_29  and  C_32
REMARK    8  A    between atoms: C_31  and  O_45
REMARK    9  A    between atoms: C_33  and  C_43
REMARK   10  A    between atoms: C_41  and  C_44
REMARK                            x       y       z     vdW  Elec       q    Type
REMARK                         _______ _______ _______ _____ _____    ______ ____
ROOT
ATOM      1  C   UNL A   1     -25.688   1.614  26.461  0.00  0.00    +0.037 C 
ATOM      2  C   UNL A   1     -26.250   2.920  26.395  0.00  0.00    +0.074 C 
ATOM      3  C   UNL A   1     -25.642   4.093  27.123  0.00  0.00    +0.222 C 
ATOM      4  N   UNL A   1     -25.614   5.252  26.449  0.00  0.00    -0.236 NA
ATOM      5  C   UNL A   1     -25.026   6.479  26.963  0.00  0.00    +0.155 C 
ATOM      6  O   UNL A   1     -25.143   3.966  28.243  0.00  0.00    -0.460 OA
ATOM      7  C   UNL A   1     -27.438   3.091  25.645  0.00  0.00    +0.107 C 
ATOM      8  N   UNL A   1     -28.075   2.089  25.003  0.00  0.00    -0.208 NA
ATOM      9  C   UNL A   1     -27.543   0.849  25.079  0.00  0.00    +0.253 C 
ATOM     10  C   UNL A   1     -26.354   0.576  25.777  0.00  0.00    +0.193 C 
ATOM     11  F   UNL A   1     -25.860  -0.681  25.795  0.00  0.00    -0.199 F 
ATOM     12  C   UNL A   1     -22.873   0.757  28.699  0.00  0.00    +0.218 C 
ATOM     13  C   UNL A   1     -23.092   1.710  26.734  0.00  0.00    +0.033 C 
ATOM     14  F   UNL A   1     -22.329  -0.142  29.460  0.00  0.00    -0.232 F 
ATOM     15  C   UNL A   1     -24.302   1.097  28.662  0.00  0.00    +0.203 C 
ATOM     16  C   UNL A   1     -23.944   4.465  30.471  0.00  0.00    +0.152 C 
ATOM     17  N   UNL A   1     -24.743   2.126  29.573  0.00  0.00    -0.189 NA
ATOM     18  C   UNL A   1     -24.907   4.897  29.330  0.00  0.00    +0.219 C 
ATOM     19  C   UNL A   1     -24.425   1.430  27.201  0.00  0.00    +0.021 C 
ATOM     20  C   UNL A   1     -24.166   2.909  30.699  0.00  0.00    +0.105 C 
ATOM     21  C   UNL A   1     -22.174   1.478  27.737  0.00  0.00    +0.151 C 
ENDROOT
BRANCH  13  22
ATOM     22  C   UNL A   1     -22.644   2.077  25.485  0.00  0.00    +0.338 C 
ATOM     23  F   UNL A   1     -21.483   2.522  25.195  0.00  0.00    -0.194 F 
ATOM     24  F   UNL A   1     -23.500   1.860  24.440  0.00  0.00    -0.194 F 
ENDBRANCH  13  22
BRANCH  16  27
ATOM     25  O   UNL A   1     -25.408   5.224  32.392  0.00  0.00    -0.259 OA
ATOM     26  F   UNL A   1     -23.291   4.825  32.733  0.00  0.00    -0.163 F 
ATOM     27  C   UNL A   1     -24.314   4.937  31.925  0.00  0.00    +0.315 C 
ENDBRANCH  16  27
BRANCH  21  28
ATOM     28  C   UNL A   1     -20.800   1.860  27.901  0.00  0.00    +0.317 C 
ATOM     29  O   UNL A   1     -19.889   0.983  28.106  0.00  0.00    -0.259 OA
ATOM     30  F   UNL A   1     -20.420   3.072  27.951  0.00  0.00    -0.163 F 
ENDBRANCH  21  28
BRANCH   9  31
ATOM     31  O   UNL A   1     -28.193  -0.208  24.477  0.00  0.00    -0.456 OA
BRANCH  31  32
ATOM     32  C   UNL A   1     -29.460   0.005  23.866  0.00  0.00    +0.243 C 
BRANCH  32  33
ATOM     33  C   UNL A   1     -30.065  -1.377  23.573  0.00  0.00    +0.229 C 
ATOM     34  O   UNL A   1     -30.729  -1.878  24.721  0.00  0.00    -0.216 OA
ENDBRANCH  32  33
ENDBRANCH  31  32
ENDBRANCH   9  31
BRANCH  15  35
ATOM     35  O   UNL A   1     -25.187  -0.035  29.097  0.00  0.00    -0.334 OA
BRANCH  35  36
ATOM     36  C   UNL A   1     -24.855  -1.012  30.143  0.00  0.00    +0.155 C 
BRANCH  36  37
ATOM     37  C   UNL A   1     -24.973  -2.505  29.788  0.00  0.00    +0.006 C 
ATOM     38  C   UNL A   1     -23.906  -3.173  29.146  0.00  0.00    -0.002 C 
ATOM     39  C   UNL A   1     -23.989  -4.549  28.853  0.00  0.00    -0.000 C 
ATOM     40  C   UNL A   1     -25.137  -5.280  29.205  0.00  0.00    -0.000 C 
ATOM     41  C   UNL A   1     -26.232  -4.611  29.784  0.00  0.00    -0.000 C 
ATOM     42  C   UNL A   1     -26.155  -3.232  30.065  0.00  0.00    -0.002 C 
ENDBRANCH  36  37
BRANCH  36  43
ATOM     43  C   UNL A   1     -25.387  -0.679  31.571  0.00  0.00    +0.104 C 
ATOM     44  C   UNL A   1     -25.189   0.773  32.028  0.00  0.00    +0.022 C 
ATOM     45  C   UNL A   1     -25.336   0.684  33.544  0.00  0.00    +0.020 C 
ATOM     46  C   UNL A   1     -24.829  -0.715  33.905  0.00  0.00    +0.089 C 
ATOM     47  N   UNL A   1     -24.758  -1.481  32.646  0.00  0.00    -0.217 NA
ENDBRANCH  36  43
ENDBRANCH  35  36
ENDBRANCH  15  35
TORSDOF 10
