REMARK  Name = No_3715-gen_results/8p0m/2024-11-27-11-27-31/
REMARK  5 active torsions:
REMARK  status: ('A' for Active; 'I' for Inactive)
REMARK    1  A    between atoms: C_1  and  C_2
REMARK    2  A    between atoms: C_1  and  C_8
REMARK    3  A    between atoms: C_5  and  C_10
REMARK    4  A    between atoms: C_8  and  C_9
REMARK    5  A    between atoms: C_14  and  C_15
REMARK                            x       y       z     vdW  Elec       q    Type
REMARK                         _______ _______ _______ _____ _____    ______ ____
ROOT
ATOM      1  C   UNL A   1     -27.064  -0.119  28.608  0.00  0.00    -0.021 A 
ATOM      2  C   UNL A   1     -27.001   0.691  27.491  0.00  0.00    -0.004 A 
ATOM      3  C   UNL A   1     -25.855   1.482  27.083  0.00  0.00    +0.004 A 
ATOM      4  C   UNL A   1     -24.690   1.453  27.881  0.00  0.00    +0.071 A 
ATOM      5  C   UNL A   1     -24.738   0.601  29.042  0.00  0.00    +0.004 A 
ATOM      6  C   UNL A   1     -25.823  -0.169  29.389  0.00  0.00    -0.004 A 
ENDROOT
BRANCH   4   7
ATOM      7  C   UNL A   1     -23.515   2.199  27.548  0.00  0.00    +0.419 C 
ATOM      8  F   UNL A   1     -22.811   2.543  28.483  0.00  0.00    -0.166 F 
ATOM      9  F   UNL A   1     -23.685   3.181  26.656  0.00  0.00    -0.166 F 
ATOM     10  F   UNL A   1     -22.602   1.320  26.884  0.00  0.00    -0.166 F 
ENDBRANCH   4   7
BRANCH   1  11
ATOM     11  C   UNL A   1     -28.016  -0.814  28.878  0.00  0.00    +0.040 C 
BRANCH  11  12
ATOM     12  C   UNL A   1     -28.735  -0.464  30.142  0.00  0.00    +0.081 C 
BRANCH  12  13
ATOM     13  C   UNL A   1     -29.811  -1.305  30.601  0.00  0.00    -0.086 C 
ATOM     14  C   UNL A   1     -30.885  -1.303  30.425  0.00  0.00    -0.064 C 
BRANCH  14  15
ATOM     15  C   UNL A   1     -31.517  -0.180  29.821  0.00  0.00    +0.049 C 
ATOM     16  C   UNL A   1     -32.745  -0.215  29.291  0.00  0.00    +0.009 C 
ENDBRANCH  14  15
ENDBRANCH  12  13
ENDBRANCH  11  12
ENDBRANCH   1  11
TORSDOF 5
