MODEL 3715
MODEL 1
REMARK VINA RESULT:    -5.926      0.000      0.000
REMARK INTER + INTRA:          -8.724
REMARK INTER:                  -7.658
REMARK INTRA:                  -1.066
REMARK UNBOUND:                -1.066
REMARK  Name = No_3715-gen_results/8p0m/2024-11-27-11-27-31/
REMARK  5 active torsions:
REMARK  status: ('A' for Active; 'I' for Inactive)
REMARK    1  A    between atoms: C_1  and  C_2
REMARK    2  A    between atoms: C_1  and  C_8
REMARK    3  A    between atoms: C_5  and  C_10
REMARK    4  A    between atoms: C_8  and  C_9
REMARK    5  A    between atoms: C_14  and  C_15
REMARK                            x       y       z     vdW  Elec       q    Type
REMARK                         _______ _______ _______ _____ _____    ______ ____
ROOT
ATOM      1  C   UNL A   1     -23.306   0.724  29.864  0.00  0.00    -0.021 A 
ATOM      2  C   UNL A   1     -24.285   1.512  29.292  0.00  0.00    -0.004 A 
ATOM      3  C   UNL A   1     -24.248   2.068  27.952  0.00  0.00    +0.004 A 
ATOM      4  C   UNL A   1     -23.123   1.808  27.139  0.00  0.00    +0.071 A 
ATOM      5  C   UNL A   1     -22.101   0.975  27.719  0.00  0.00    +0.004 A 
ATOM      6  C   UNL A   1     -22.174   0.429  28.978  0.00  0.00    -0.004 A 
ENDROOT
BRANCH   4   7
ATOM      7  C   UNL A   1     -23.009   2.313  25.804  0.00  0.00    +0.419 C 
ATOM      8  F   UNL A   1     -21.899   2.267  25.302  0.00  0.00    -0.166 F 
ATOM      9  F   UNL A   1     -23.620   3.481  25.572  0.00  0.00    -0.166 F 
ATOM     10  F   UNL A   1     -23.696   1.415  24.927  0.00  0.00    -0.166 F 
ENDBRANCH   4   7
BRANCH   1  11
ATOM     11  C   UNL A   1     -23.404   0.225  30.961  0.00  0.00    +0.040 C 
BRANCH  11  12
ATOM     12  C   UNL A   1     -23.554  -1.263  30.985  0.00  0.00    +0.081 C 
BRANCH  12  13
ATOM     13  C   UNL A   1     -24.833  -1.850  30.676  0.00  0.00    -0.086 C 
ATOM     14  C   UNL A   1     -25.155  -2.593  29.949  0.00  0.00    -0.064 C 
BRANCH  14  15
ATOM     15  C   UNL A   1     -24.295  -2.983  28.884  0.00  0.00    +0.049 C 
ATOM     16  C   UNL A   1     -24.015  -4.257  28.585  0.00  0.00    +0.009 C 
ENDBRANCH  14  15
ENDBRANCH  12  13
ENDBRANCH  11  12
ENDBRANCH   1  11
TORSDOF 5
ENDMDL
ENDMDL
