REMARK  Name = outputs/IAG933/test6/raw/output_3716_IAG933_linker_design_.xyz
REMARK  13 active torsions:
REMARK  status: ('A' for Active; 'I' for Inactive)
REMARK    1  A    between atoms: C_1  and  C_2
REMARK    2  A    between atoms: C_1  and  C_8
REMARK    3  A    between atoms: C_1  and  N_41
REMARK    4  A    between atoms: C_13  and  C_31
REMARK    5  A    between atoms: C_14  and  C_15
REMARK    6  A    between atoms: C_21  and  O_22
REMARK    7  A    between atoms: O_22  and  C_23
REMARK    8  A    between atoms: C_23  and  C_24
REMARK    9  A    between atoms: C_28  and  C_29
REMARK   10  A    between atoms: C_28  and  C_42
REMARK   11  A    between atoms: C_33  and  C_39
REMARK   12  A    between atoms: C_39  and  N_41
REMARK   13  A    between atoms: N_41  and  C_42
REMARK                            x       y       z     vdW  Elec       q    Type
REMARK                         _______ _______ _______ _____ _____    ______ ____
ROOT
ATOM      1  O   UNL A   1     -21.702   1.588  25.786  0.00  0.00    -0.327 OA
ATOM      2  C   UNL A   1     -24.241   1.469  26.644  0.00  0.00    +0.073 C 
ATOM      3  C   UNL A   1     -23.603   0.846  27.900  0.00  0.00    +0.053 C 
ATOM      4  C   UNL A   1     -22.974   1.992  25.708  0.00  0.00    +0.279 C 
ATOM      5  O   UNL A   1     -22.371  -0.162  29.728  0.00  0.00    -0.223 OA
ATOM      6  F   UNL A   1     -23.265   2.646  24.802  0.00  0.00    -0.204 F 
ATOM      7  C   UNL A   1     -20.946   1.490  27.032  0.00  0.00    +0.148 C 
ATOM      8  C   UNL A   1     -22.331   0.289  28.634  0.00  0.00    +0.156 C 
ATOM      9  C   UNL A   1     -22.170   1.652  28.089  0.00  0.00    +0.064 C 
ENDROOT
BRANCH   2  10
ATOM     10  C   UNL A   1     -25.688   1.614  26.461  0.00  0.00    +0.075 C 
ATOM     11  C   UNL A   1     -26.250   2.920  26.395  0.00  0.00    +0.055 C 
ATOM     12  C   UNL A   1     -27.438   3.091  25.645  0.00  0.00    +0.102 C 
ATOM     13  N   UNL A   1     -28.075   2.089  25.003  0.00  0.00    -0.212 NA
ATOM     14  C   UNL A   1     -27.543   0.849  25.079  0.00  0.00    +0.234 C 
ATOM     15  C   UNL A   1     -26.354   0.576  25.777  0.00  0.00    +0.240 C 
ATOM     16  F   UNL A   1     -25.860  -0.681  25.795  0.00  0.00    -0.227 F 
BRANCH  11  17
ATOM     17  C   UNL A   1     -25.642   4.093  27.123  0.00  0.00    +0.262 C 
ATOM     18  N   UNL A   1     -25.614   5.252  26.449  0.00  0.00    -0.200 NA
ATOM     19  C   UNL A   1     -25.026   6.479  26.963  0.00  0.00    +0.139 C 
ATOM     20  O   UNL A   1     -25.143   3.966  28.243  0.00  0.00    -0.269 OA
ENDBRANCH  11  17
BRANCH  14  21
ATOM     21  O   UNL A   1     -28.193  -0.208  24.477  0.00  0.00    -0.459 OA
BRANCH  21  22
ATOM     22  C   UNL A   1     -29.460   0.005  23.866  0.00  0.00    +0.242 C 
BRANCH  22  23
ATOM     23  C   UNL A   1     -30.065  -1.377  23.573  0.00  0.00    +0.229 C 
ATOM     24  O   UNL A   1     -30.729  -1.878  24.721  0.00  0.00    -0.216 OA
ENDBRANCH  22  23
ENDBRANCH  21  22
ENDBRANCH  14  21
ENDBRANCH   2  10
BRANCH   3  25
ATOM     25  C   UNL A   1     -24.720   0.990  28.929  0.00  0.00    +0.075 C 
BRANCH  25  26
ATOM     26  N   UNL A   1     -25.478  -0.203  29.036  0.00  0.00    -0.269 NA
BRANCH  26  27
ATOM     27  C   UNL A   1     -24.855  -1.012  30.143  0.00  0.00    +0.096 C 
BRANCH  27  28
ATOM     28  C   UNL A   1     -24.973  -2.505  29.788  0.00  0.00    -0.006 C 
ATOM     29  C   UNL A   1     -23.906  -3.173  29.146  0.00  0.00    -0.003 C 
ATOM     30  C   UNL A   1     -23.989  -4.549  28.853  0.00  0.00    -0.000 C 
ATOM     31  C   UNL A   1     -25.137  -5.280  29.205  0.00  0.00    -0.000 C 
ATOM     32  C   UNL A   1     -26.232  -4.611  29.784  0.00  0.00    -0.000 C 
ATOM     33  C   UNL A   1     -26.155  -3.232  30.065  0.00  0.00    -0.003 C 
ENDBRANCH  27  28
BRANCH  27  34
ATOM     34  C   UNL A   1     -25.387  -0.679  31.571  0.00  0.00    +0.092 C 
ATOM     35  C   UNL A   1     -25.189   0.773  32.028  0.00  0.00    +0.021 C 
ATOM     36  C   UNL A   1     -25.336   0.684  33.544  0.00  0.00    +0.020 C 
ATOM     37  C   UNL A   1     -24.829  -0.715  33.905  0.00  0.00    +0.089 C 
ATOM     38  N   UNL A   1     -24.758  -1.481  32.646  0.00  0.00    -0.218 NA
ENDBRANCH  27  34
ENDBRANCH  26  27
BRANCH  26  39
ATOM     39  C   UNL A   1     -26.976  -0.461  28.610  0.00  0.00    +0.075 C 
BRANCH  39  40
ATOM     40  C   UNL A   1     -28.012   0.200  29.547  0.00  0.00    +0.053 C 
BRANCH  40  41
ATOM     41  C   UNL A   1     -29.321   0.543  28.827  0.00  0.00    +0.183 C 
ATOM     42  O   UNL A   1     -29.981  -0.733  28.537  0.00  0.00    -0.220 OA
ENDBRANCH  40  41
ENDBRANCH  39  40
ENDBRANCH  26  39
ENDBRANCH  25  26
ENDBRANCH   3  25
TORSDOF 13
