MODEL 3716
MODEL 1
REMARK VINA RESULT:    -6.016      0.000      0.000
REMARK INTER + INTRA:          -6.116
REMARK INTER:                  -6.368
REMARK INTRA:                   0.252
REMARK UNBOUND:                 0.252
REMARK  Name = No_3716-gen_results/8p0m/2024-11-27-11-27-31/
REMARK  1 active torsions:
REMARK  status: ('A' for Active; 'I' for Inactive)
REMARK    1  A    between atoms: C_2  and  C_7
REMARK                            x       y       z     vdW  Elec       q    Type
REMARK                         _______ _______ _______ _____ _____    ______ ____
ROOT
ATOM      1  C   UNL A   1     -23.706  -1.230  29.118  0.00  0.00    +0.265 C 
ATOM      2  N   UNL A   1     -23.836  -0.484  28.245  0.00  0.00    -0.272 N 
ATOM      3  C   UNL A   1     -24.813  -0.651  27.364  0.00  0.00    +0.083 A 
ATOM      4  C   UNL A   1     -24.867   0.386  26.276  0.00  0.00    +0.021 A 
ATOM      5  C   UNL A   1     -23.235   0.831  27.863  0.00  0.00    +0.083 A 
ATOM      6  C   UNL A   1     -23.835   1.304  26.715  0.00  0.00    +0.021 A 
ATOM      7  O   UNL A   1     -22.610  -1.050  29.919  0.00  0.00    -0.267 OA
ENDROOT
BRANCH   1   9
ATOM      8  C   UNL A   1     -23.844  -3.491  28.841  0.00  0.00    +0.005 A 
ATOM      9  C   UNL A   1     -24.404  -2.507  29.266  0.00  0.00    +0.057 A 
ATOM     10  C   UNL A   1     -25.676  -2.589  29.821  0.00  0.00    +0.005 A 
ATOM     11  C   UNL A   1     -26.387  -3.841  29.865  0.00  0.00    +0.000 A 
ATOM     12  C   UNL A   1     -25.675  -4.922  29.330  0.00  0.00    +0.000 A 
ATOM     13  C   UNL A   1     -24.480  -4.789  28.802  0.00  0.00    +0.000 A 
ENDBRANCH   1   9
TORSDOF 1
ENDMDL
ENDMDL
