REMARK  Name = outputs/IAG933/test6/raw/output_3717_IAG933_linker_design_.xyz
REMARK  9 active torsions:
REMARK  status: ('A' for Active; 'I' for Inactive)
REMARK    1  A    between atoms: C_1  and  C_2
REMARK    2  A    between atoms: C_1  and  C_8
REMARK    3  A    between atoms: C_1  and  O_36
REMARK    4  A    between atoms: C_21  and  O_22
REMARK    5  A    between atoms: O_22  and  C_23
REMARK    6  A    between atoms: C_23  and  C_24
REMARK    7  A    between atoms: C_29  and  N_39
REMARK    8  A    between atoms: O_36  and  C_43
REMARK    9  A    between atoms: C_44  and  C_46
REMARK                            x       y       z     vdW  Elec       q    Type
REMARK                         _______ _______ _______ _____ _____    ______ ____
ROOT
ATOM      1  C   UNL A   1     -25.688   1.614  26.461  0.00  0.00    +0.038 C 
ATOM      2  C   UNL A   1     -26.250   2.920  26.395  0.00  0.00    +0.072 C 
ATOM      3  C   UNL A   1     -25.642   4.093  27.123  0.00  0.00    +0.225 C 
ATOM      4  N   UNL A   1     -25.614   5.252  26.449  0.00  0.00    -0.236 NA
ATOM      5  C   UNL A   1     -25.026   6.479  26.963  0.00  0.00    +0.155 C 
ATOM      6  O   UNL A   1     -25.143   3.966  28.243  0.00  0.00    -0.423 OA
ATOM      7  C   UNL A   1     -27.438   3.091  25.645  0.00  0.00    +0.106 C 
ATOM      8  N   UNL A   1     -28.075   2.089  25.003  0.00  0.00    -0.208 NA
ATOM      9  C   UNL A   1     -27.543   0.849  25.079  0.00  0.00    +0.253 C 
ATOM     10  C   UNL A   1     -26.354   0.576  25.777  0.00  0.00    +0.191 C 
ATOM     11  F   UNL A   1     -25.860  -0.681  25.795  0.00  0.00    -0.200 F 
ATOM     12  N   UNL A   1     -25.713   2.075  29.555  0.00  0.00    -0.123 NA
ATOM     13  C   UNL A   1     -24.588   1.218  27.465  0.00  0.00    +0.148 C 
ATOM     14  O   UNL A   1     -24.546   3.881  30.440  0.00  0.00    -0.159 OA
ATOM     15  C   UNL A   1     -24.890   1.045  28.977  0.00  0.00    +0.217 C 
ATOM     16  C   UNL A   1     -25.534   3.439  29.558  0.00  0.00    +0.349 C 
ENDROOT
BRANCH  16  24
ATOM     17  C   UNL A   1     -29.857   5.032  32.814  0.00  0.00    +0.031 C 
ATOM     18  C   UNL A   1     -26.733   5.099  30.912  0.00  0.00    -0.001 C 
ATOM     19  C   UNL A   1     -28.191   3.781  29.653  0.00  0.00    +0.003 C 
ATOM     20  C   UNL A   1     -29.257   4.220  30.458  0.00  0.00    -0.005 C 
ATOM     21  C   UNL A   1     -27.371   6.512  32.907  0.00  0.00    +0.031 C 
ATOM     22  C   UNL A   1     -28.966   4.954  31.630  0.00  0.00    -0.026 C 
ATOM     23  C   UNL A   1     -27.707   5.531  31.758  0.00  0.00    -0.026 C 
ATOM     24  C   UNL A   1     -26.869   4.121  29.985  0.00  0.00    +0.060 C 
ENDBRANCH  16  24
BRANCH  13  28
ATOM     25  O   UNL A   1     -21.011   1.637  27.791  0.00  0.00    -0.222 OA
ATOM     26  C   UNL A   1     -22.132   1.224  28.019  0.00  0.00    +0.448 C 
ATOM     27  C   UNL A   1     -22.882   2.172  25.689  0.00  0.00    +0.119 C 
ATOM     28  N   UNL A   1     -23.235   1.730  27.176  0.00  0.00    -0.235 N 
ATOM     29  O   UNL A   1     -22.423   0.514  28.977  0.00  0.00    -0.222 OA
ENDBRANCH  13  28
BRANCH   9  30
ATOM     30  O   UNL A   1     -28.193  -0.208  24.477  0.00  0.00    -0.456 OA
BRANCH  30  31
ATOM     31  C   UNL A   1     -29.460   0.005  23.866  0.00  0.00    +0.243 C 
BRANCH  31  32
ATOM     32  C   UNL A   1     -30.065  -1.377  23.573  0.00  0.00    +0.229 C 
ATOM     33  O   UNL A   1     -30.729  -1.878  24.721  0.00  0.00    -0.216 OA
ENDBRANCH  31  32
ENDBRANCH  30  31
ENDBRANCH   9  30
BRANCH  15  34
ATOM     34  O   UNL A   1     -25.496  -0.196  29.149  0.00  0.00    -0.334 OA
BRANCH  34  35
ATOM     35  C   UNL A   1     -24.855  -1.012  30.143  0.00  0.00    +0.155 C 
BRANCH  35  36
ATOM     36  C   UNL A   1     -24.973  -2.505  29.788  0.00  0.00    +0.006 C 
ATOM     37  C   UNL A   1     -23.906  -3.173  29.146  0.00  0.00    -0.002 C 
ATOM     38  C   UNL A   1     -23.989  -4.549  28.853  0.00  0.00    -0.000 C 
ATOM     39  C   UNL A   1     -25.137  -5.280  29.205  0.00  0.00    -0.000 C 
ATOM     40  C   UNL A   1     -26.232  -4.611  29.784  0.00  0.00    -0.000 C 
ATOM     41  C   UNL A   1     -26.155  -3.232  30.065  0.00  0.00    -0.002 C 
ENDBRANCH  35  36
BRANCH  35  42
ATOM     42  C   UNL A   1     -25.387  -0.679  31.571  0.00  0.00    +0.104 C 
ATOM     43  C   UNL A   1     -25.189   0.773  32.028  0.00  0.00    +0.022 C 
ATOM     44  C   UNL A   1     -25.336   0.684  33.544  0.00  0.00    +0.020 C 
ATOM     45  C   UNL A   1     -24.829  -0.715  33.905  0.00  0.00    +0.089 C 
ATOM     46  N   UNL A   1     -24.758  -1.481  32.646  0.00  0.00    -0.217 NA
ENDBRANCH  35  42
ENDBRANCH  34  35
ENDBRANCH  15  34
TORSDOF 9
