MODEL 3717
MODEL 1
REMARK VINA RESULT:    -6.358      0.000      0.000
REMARK INTER + INTRA:          -6.358
REMARK INTER:                  -6.358
REMARK INTRA:                   0.000
REMARK UNBOUND:                 0.000
REMARK  Name = No_3717-gen_results/8p0m/2024-11-27-11-27-31/
REMARK  0 active torsions:
REMARK  status: ('A' for Active; 'I' for Inactive)
REMARK                            x       y       z     vdW  Elec       q    Type
REMARK                         _______ _______ _______ _____ _____    ______ ____
ROOT
ATOM      1  C   UNL A   1     -24.561   0.817  30.145  0.00  0.00    +0.037 A 
ATOM      2  C   UNL A   1     -24.864  -0.354  30.175  0.00  0.00    +0.139 A 
ATOM      3  C   UNL A   1     -24.171  -1.332  29.539  0.00  0.00    +0.034 A 
ATOM      4  C   UNL A   1     -24.526  -2.769  29.567  0.00  0.00    +0.002 A 
ATOM      5  C   UNL A   1     -23.828  -3.775  28.926  0.00  0.00    -0.000 A 
ATOM      6  C   UNL A   1     -23.343   1.130  29.823  0.00  0.00    +0.003 A 
ATOM      7  C   UNL A   1     -22.466   0.305  29.206  0.00  0.00    +0.000 A 
ATOM      8  C   UNL A   1     -22.825  -1.086  29.121  0.00  0.00    +0.003 A 
ATOM      9  C   UNL A   1     -24.357  -5.050  28.782  0.00  0.00    -0.000 A 
ATOM     10  C   UNL A   1     -25.700  -5.249  29.192  0.00  0.00    -0.000 A 
ATOM     11  C   UNL A   1     -25.891  -3.147  29.866  0.00  0.00    +0.021 A 
ATOM     12  C   UNL A   1     -26.445  -4.327  29.703  0.00  0.00    -0.001 A 
ATOM     13  O   UNL A   1     -26.152  -0.750  30.598  0.00  0.00    -0.471 OA
ATOM     14  C   UNL A   1     -26.715  -2.030  30.447  0.00  0.00    +0.232 C 
ENDROOT
TORSDOF 0
ENDMDL
ENDMDL
