MODEL 3718
MODEL 1
REMARK VINA RESULT:    -4.286      0.000      0.000
REMARK INTER + INTRA:          -4.286
REMARK INTER:                  -4.286
REMARK INTRA:                   0.000
REMARK UNBOUND:                 0.000
REMARK  Name = No_3718-gen_results/8p0m/2024-11-27-11-27-31/
REMARK  0 active torsions:
REMARK  status: ('A' for Active; 'I' for Inactive)
REMARK                            x       y       z     vdW  Elec       q    Type
REMARK                         _______ _______ _______ _____ _____    ______ ____
ROOT
ATOM      1  C   UNL A   1     -26.130  -3.385  29.981  0.00  0.00    +0.007 A 
ATOM      2  C   UNL A   1     -25.325  -2.808  29.622  0.00  0.00    +0.035 A 
ATOM      3  C   UNL A   1     -26.131  -4.812  29.623  0.00  0.00    +0.001 A 
ATOM      4  C   UNL A   1     -25.017  -5.390  28.947  0.00  0.00    +0.000 A 
ATOM      5  C   UNL A   1     -24.039  -3.165  28.962  0.00  0.00    +0.007 A 
ATOM      6  C   UNL A   1     -24.006  -4.480  28.605  0.00  0.00    +0.001 A 
ATOM      7 BR   UNL A   1     -25.298  -0.884  30.103  0.00  0.00    -0.049 Br
ENDROOT
TORSDOF 0
ENDMDL
ENDMDL
