MODEL 3719
MODEL 1
REMARK VINA RESULT:    -6.367      0.000      0.000
REMARK INTER + INTRA:          -7.480
REMARK INTER:                  -7.111
REMARK INTRA:                  -0.369
REMARK UNBOUND:                -0.369
REMARK  Name = No_3719-gen_results/8p0m/2024-11-27-11-27-31/
REMARK  2 active torsions:
REMARK  status: ('A' for Active; 'I' for Inactive)
REMARK    1  A    between atoms: C_2  and  O_7
REMARK    2  A    between atoms: O_7  and  C_8
REMARK                            x       y       z     vdW  Elec       q    Type
REMARK                         _______ _______ _______ _____ _____    ______ ____
ROOT
ATOM      1  O   UNL A   1     -23.720  -1.689  29.426  0.00  0.00    -0.454 OA
ENDROOT
BRANCH   1   3
ATOM      2  C   UNL A   1     -23.836   0.177  28.108  0.00  0.00    +0.037 A 
ATOM      3  C   UNL A   1     -23.194  -0.602  28.774  0.00  0.00    +0.145 A 
ATOM      4  C   UNL A   1     -21.818  -0.457  28.921  0.00  0.00    +0.037 A 
ATOM      5  C   UNL A   1     -21.109   0.600  28.247  0.00  0.00    +0.003 A 
ATOM      6  C   UNL A   1     -21.926   1.440  27.480  0.00  0.00    +0.000 A 
ATOM      7  C   UNL A   1     -23.220   1.250  27.360  0.00  0.00    +0.003 A 
ENDBRANCH   1   3
BRANCH   1   8
ATOM      8  C   UNL A   1     -24.308  -2.531  29.295  0.00  0.00    +0.145 A 
ATOM      9  C   UNL A   1     -23.881  -3.726  28.867  0.00  0.00    +0.037 A 
ATOM     10  C   UNL A   1     -24.652  -4.966  28.870  0.00  0.00    +0.003 A 
ATOM     11  C   UNL A   1     -25.938  -4.858  29.448  0.00  0.00    +0.000 A 
ATOM     12  C   UNL A   1     -25.718  -2.652  29.874  0.00  0.00    +0.037 A 
ATOM     13  C   UNL A   1     -26.464  -3.748  29.887  0.00  0.00    +0.003 A 
ENDBRANCH   1   8
TORSDOF 2
ENDMDL
ENDMDL
