MODEL 371
MODEL 1
REMARK VINA RESULT:    -6.667      0.000      0.000
REMARK INTER + INTRA:          -8.490
REMARK INTER:                  -7.836
REMARK INTRA:                  -0.654
REMARK UNBOUND:                -0.654
REMARK  Name = No_371-gen_results/8p0m/2024-11-27-11-27-31/
REMARK  3 active torsions:
REMARK  status: ('A' for Active; 'I' for Inactive)
REMARK    1  A    between atoms: C_3  and  C_7
REMARK    2  A    between atoms: C_7  and  C_8
REMARK    3  A    between atoms: C_7  and  C_14
REMARK                            x       y       z     vdW  Elec       q    Type
REMARK                         _______ _______ _______ _____ _____    ______ ____
ROOT
ATOM      1  C   UNL A   1     -24.136  -1.380  29.261  0.00  0.00    +0.064 C 
ENDROOT
BRANCH   1   4
ATOM      2  C   UNL A   1     -25.247   0.224  26.135  0.00  0.00    -0.000 A 
ATOM      3  C   UNL A   1     -25.198  -0.550  27.062  0.00  0.00    -0.004 A 
ATOM      4  C   UNL A   1     -24.254  -0.470  28.086  0.00  0.00    -0.017 A 
ATOM      5  C   UNL A   1     -23.232   0.556  28.024  0.00  0.00    -0.004 A 
ATOM      6  C   UNL A   1     -23.314   1.415  26.928  0.00  0.00    -0.000 A 
ATOM      7  C   UNL A   1     -24.236   1.259  25.998  0.00  0.00    -0.000 A 
ENDBRANCH   1   4
BRANCH   1   8
ATOM      8  C   UNL A   1     -24.769  -2.513  29.323  0.00  0.00    -0.017 A 
ATOM      9  C   UNL A   1     -25.805  -2.932  29.703  0.00  0.00    -0.004 A 
ATOM     10  C   UNL A   1     -26.227  -4.289  29.716  0.00  0.00    -0.000 A 
ATOM     11  C   UNL A   1     -25.345  -5.236  29.161  0.00  0.00    -0.000 A 
ATOM     12  C   UNL A   1     -23.846  -3.641  28.687  0.00  0.00    -0.004 A 
ATOM     13  C   UNL A   1     -24.186  -4.896  28.607  0.00  0.00    -0.000 A 
ENDBRANCH   1   8
BRANCH   1  14
ATOM     14  C   UNL A   1     -23.126  -0.912  30.288  0.00  0.00    +0.118 C 
ATOM     15  N   UNL A   1     -23.457  -1.003  31.574  0.00  0.00    -0.131 NA
ENDBRANCH   1  14
TORSDOF 3
ENDMDL
ENDMDL
