REMARK  Name = outputs/IAG933/test6/raw/output_372_IAG933_linker_design_.xyz
REMARK  17 active torsions:
REMARK  status: ('A' for Active; 'I' for Inactive)
REMARK    1  A    between atoms: C_1  and  C_2
REMARK    2  A    between atoms: C_1  and  C_8
REMARK    3  A    between atoms: C_9  and  N_39
REMARK    4  A    between atoms: C_13  and  N_42
REMARK    5  A    between atoms: C_14  and  C_15
REMARK    6  A    between atoms: C_21  and  O_22
REMARK    7  A    between atoms: O_22  and  C_23
REMARK    8  A    between atoms: C_23  and  C_24
REMARK    9  A    between atoms: C_28  and  C_35
REMARK   10  A    between atoms: C_28  and  N_42
REMARK   11  A    between atoms: C_30  and  C_33
REMARK   12  A    between atoms: C_30  and  N_38
REMARK   13  A    between atoms: C_30  and  N_39
REMARK   14  A    between atoms: O_36  and  N_42
REMARK   15  A    between atoms: O_36  and  C_43
REMARK   16  A    between atoms: C_37  and  N_38
REMARK   17  A    between atoms: N_39  and  C_43
REMARK                            x       y       z     vdW  Elec       q    Type
REMARK                         _______ _______ _______ _____ _____    ______ ____
ROOT
ATOM      1  N   UNL A   1     -26.260   1.768  31.373  0.00  0.00    -0.228 NA
ENDROOT
BRANCH   1   3
ATOM      2  C   UNL A   1     -25.387  -0.679  31.571  0.00  0.00    +0.092 C 
ATOM      3  C   UNL A   1     -25.189   0.773  32.028  0.00  0.00    +0.079 C 
ATOM      4  C   UNL A   1     -25.336   0.684  33.544  0.00  0.00    +0.036 C 
ATOM      5  C   UNL A   1     -24.829  -0.715  33.905  0.00  0.00    +0.090 C 
ATOM      6  N   UNL A   1     -24.758  -1.481  32.646  0.00  0.00    -0.218 NA
BRANCH   2   7
ATOM      7  C   UNL A   1     -24.855  -1.012  30.143  0.00  0.00    +0.045 C 
BRANCH   7   8
ATOM      8  C   UNL A   1     -24.973  -2.505  29.788  0.00  0.00    -0.021 C 
ATOM      9  C   UNL A   1     -23.906  -3.173  29.146  0.00  0.00    -0.004 C 
ATOM     10  C   UNL A   1     -23.989  -4.549  28.853  0.00  0.00    -0.000 C 
ATOM     11  C   UNL A   1     -25.137  -5.280  29.205  0.00  0.00    -0.000 C 
ATOM     12  C   UNL A   1     -26.232  -4.611  29.784  0.00  0.00    -0.000 C 
ATOM     13  C   UNL A   1     -26.155  -3.232  30.065  0.00  0.00    -0.004 C 
ENDBRANCH   7   8
ENDBRANCH   2   7
ENDBRANCH   1   3
BRANCH   1  14
ATOM     14  C   UNL A   1     -26.346   3.150  31.784  0.00  0.00    +0.187 C 
BRANCH  14  16
ATOM     15  O   UNL A   1     -27.166   5.381  30.653  0.00  0.00    -0.217 OA
ATOM     16  C   UNL A   1     -27.401   3.946  30.900  0.00  0.00    +0.220 C 
ENDBRANCH  14  16
BRANCH  14  17
ATOM     17  N   UNL A   1     -25.148   3.999  31.664  0.00  0.00    -0.220 NA
BRANCH  17  21
ATOM     18  C   UNL A   1     -25.000   5.041  33.820  0.00  0.00    +0.016 C 
ATOM     19  C   UNL A   1     -23.448   7.072  32.657  0.00  0.00    +0.001 C 
ATOM     20  C   UNL A   1     -23.407   6.880  34.038  0.00  0.00    +0.000 C 
ATOM     21  C   UNL A   1     -24.857   5.122  32.435  0.00  0.00    +0.067 C 
ATOM     22  C   UNL A   1     -24.239   6.247  31.842  0.00  0.00    +0.016 C 
ATOM     23  C   UNL A   1     -24.232   5.910  34.609  0.00  0.00    +0.001 C 
ENDBRANCH  17  21
ENDBRANCH  14  17
ENDBRANCH   1  14
BRANCH   1  24
ATOM     24  C   UNL A   1     -26.881   1.200  30.100  0.00  0.00    +0.244 C 
BRANCH  24  25
ATOM     25  O   UNL A   1     -25.590   0.939  28.933  0.00  0.00    -0.264 OA
BRANCH  25  26
ATOM     26  N   UNL A   1     -24.778   1.245  27.472  0.00  0.00    -0.160 NA
BRANCH  26  27
ATOM     27  C   UNL A   1     -25.688   1.614  26.461  0.00  0.00    +0.154 C 
ATOM     28  C   UNL A   1     -26.250   2.920  26.395  0.00  0.00    +0.072 C 
ATOM     29  C   UNL A   1     -27.438   3.091  25.645  0.00  0.00    +0.103 C 
ATOM     30  N   UNL A   1     -28.075   2.089  25.003  0.00  0.00    -0.212 NA
ATOM     31  C   UNL A   1     -27.543   0.849  25.079  0.00  0.00    +0.236 C 
ATOM     32  C   UNL A   1     -26.354   0.576  25.777  0.00  0.00    +0.257 C 
ATOM     33  F   UNL A   1     -25.860  -0.681  25.795  0.00  0.00    -0.225 F 
BRANCH  28  34
ATOM     34  C   UNL A   1     -25.642   4.093  27.123  0.00  0.00    +0.264 C 
ATOM     35  N   UNL A   1     -25.614   5.252  26.449  0.00  0.00    -0.200 NA
ATOM     36  C   UNL A   1     -25.026   6.479  26.963  0.00  0.00    +0.139 C 
ATOM     37  O   UNL A   1     -25.143   3.966  28.243  0.00  0.00    -0.269 OA
ENDBRANCH  28  34
BRANCH  31  38
ATOM     38  O   UNL A   1     -28.193  -0.208  24.477  0.00  0.00    -0.459 OA
BRANCH  38  39
ATOM     39  C   UNL A   1     -29.460   0.005  23.866  0.00  0.00    +0.242 C 
BRANCH  39  40
ATOM     40  C   UNL A   1     -30.065  -1.377  23.573  0.00  0.00    +0.229 C 
ATOM     41  O   UNL A   1     -30.729  -1.878  24.721  0.00  0.00    -0.216 OA
ENDBRANCH  39  40
ENDBRANCH  38  39
ENDBRANCH  31  38
ENDBRANCH  26  27
BRANCH  26  42
ATOM     42  C   UNL A   1     -23.480   1.881  27.063  0.00  0.00    +0.085 C 
ATOM     43  C   UNL A   1     -23.063   2.281  25.614  0.00  0.00    +0.020 C 
BRANCH  42  44
ATOM     44  C   UNL A   1     -22.397   1.915  28.174  0.00  0.00    +0.018 C 
ATOM     45  C   UNL A   1     -21.146   1.137  27.727  0.00  0.00    +0.002 C 
ENDBRANCH  42  44
ENDBRANCH  26  42
ENDBRANCH  25  26
ENDBRANCH  24  25
ENDBRANCH   1  24
TORSDOF 17
