REMARK  Name = outputs/IAG933/test6/raw/output_3720_IAG933_linker_design_.xyz
REMARK  15 active torsions:
REMARK  status: ('A' for Active; 'I' for Inactive)
REMARK    1  A    between atoms: C_1  and  C_2
REMARK    2  A    between atoms: C_1  and  C_8
REMARK    3  A    between atoms: C_1  and  O_37
REMARK    4  A    between atoms: C_13  and  C_36
REMARK    5  A    between atoms: C_14  and  C_15
REMARK    6  A    between atoms: C_21  and  O_22
REMARK    7  A    between atoms: O_22  and  C_23
REMARK    8  A    between atoms: C_23  and  C_24
REMARK    9  A    between atoms: C_24  and  O_25
REMARK   10  A    between atoms: O_25  and  C_48
REMARK   11  A    between atoms: C_28  and  O_44
REMARK   12  A    between atoms: C_32  and  O_37
REMARK   13  A    between atoms: C_42  and  O_49
REMARK   14  A    between atoms: C_45  and  O_50
REMARK   15  A    between atoms: C_46  and  C_48
REMARK                            x       y       z     vdW  Elec       q    Type
REMARK                         _______ _______ _______ _____ _____    ______ ____
ROOT
ATOM      1  C   UNL A   1     -25.688   1.614  26.461  0.00  0.00    +0.044 C 
ATOM      2  C   UNL A   1     -26.250   2.920  26.395  0.00  0.00    +0.077 C 
ATOM      3  C   UNL A   1     -27.438   3.091  25.645  0.00  0.00    +0.107 C 
ATOM      4  N   UNL A   1     -28.075   2.089  25.003  0.00  0.00    -0.208 NA
ATOM      5  C   UNL A   1     -27.543   0.849  25.079  0.00  0.00    +0.253 C 
ATOM      6  C   UNL A   1     -26.354   0.576  25.777  0.00  0.00    +0.193 C 
ATOM      7  F   UNL A   1     -25.860  -0.681  25.795  0.00  0.00    -0.199 F 
ENDROOT
BRANCH   1  11
ATOM      8  C   UNL A   1     -22.809   0.357  28.987  0.00  0.00    +0.174 C 
ATOM      9  C   UNL A   1     -24.171   0.528  28.449  0.00  0.00    +0.169 C 
ATOM     10  F   UNL A   1     -22.537  -0.341  30.125  0.00  0.00    -0.201 F 
ATOM     11  C   UNL A   1     -24.359   1.336  27.148  0.00  0.00    +0.077 C 
ATOM     12  C   UNL A   1     -21.634   0.896  28.376  0.00  0.00    +0.036 C 
ATOM     13  C   UNL A   1     -21.778   1.685  27.235  0.00  0.00    +0.043 C 
ATOM     14  C   UNL A   1     -23.084   1.813  26.592  0.00  0.00    +0.189 C 
BRANCH  14  16
ATOM     15  O   UNL A   1     -23.748   1.663  24.721  0.00  0.00    +0.028 OA
ATOM     16  O   UNL A   1     -23.052   2.306  25.373  0.00  0.00    -0.303 OA
ENDBRANCH  14  16
BRANCH   9  17
ATOM     17  O   UNL A   1     -25.220   0.009  29.187  0.00  0.00    -0.471 OA
BRANCH  17  18
ATOM     18  C   UNL A   1     -24.855  -1.012  30.143  0.00  0.00    +0.204 C 
BRANCH  18  19
ATOM     19  C   UNL A   1     -24.973  -2.505  29.788  0.00  0.00    +0.019 C 
ATOM     20  C   UNL A   1     -23.906  -3.173  29.146  0.00  0.00    -0.001 C 
ATOM     21  C   UNL A   1     -23.989  -4.549  28.853  0.00  0.00    -0.000 C 
ATOM     22  C   UNL A   1     -25.137  -5.280  29.205  0.00  0.00    -0.000 C 
ATOM     23  C   UNL A   1     -26.232  -4.611  29.784  0.00  0.00    -0.000 C 
ATOM     24  C   UNL A   1     -26.155  -3.232  30.065  0.00  0.00    -0.001 C 
ENDBRANCH  18  19
BRANCH  18  25
ATOM     25  C   UNL A   1     -25.387  -0.679  31.571  0.00  0.00    +0.117 C 
ATOM     26  C   UNL A   1     -25.189   0.773  32.028  0.00  0.00    +0.023 C 
ATOM     27  C   UNL A   1     -25.336   0.684  33.544  0.00  0.00    +0.020 C 
ATOM     28  C   UNL A   1     -24.829  -0.715  33.905  0.00  0.00    +0.089 C 
ATOM     29  N   UNL A   1     -24.758  -1.481  32.646  0.00  0.00    -0.215 NA
ENDBRANCH  18  25
ENDBRANCH  17  18
ENDBRANCH   9  17
ENDBRANCH   1  11
BRANCH   2  30
ATOM     30  C   UNL A   1     -25.642   4.093  27.123  0.00  0.00    +0.266 C 
ATOM     31  N   UNL A   1     -25.614   5.252  26.449  0.00  0.00    -0.200 NA
ATOM     32  C   UNL A   1     -25.026   6.479  26.963  0.00  0.00    +0.139 C 
ATOM     33  O   UNL A   1     -25.143   3.966  28.243  0.00  0.00    -0.268 OA
ENDBRANCH   2  30
BRANCH   5  34
ATOM     34  O   UNL A   1     -28.193  -0.208  24.477  0.00  0.00    -0.455 OA
BRANCH  34  35
ATOM     35  C   UNL A   1     -29.460   0.005  23.866  0.00  0.00    +0.254 C 
BRANCH  35  36
ATOM     36  C   UNL A   1     -30.065  -1.377  23.573  0.00  0.00    +0.256 C 
BRANCH  36  37
ATOM     37  O   UNL A   1     -30.729  -1.878  24.721  0.00  0.00    -0.441 OA
BRANCH  37  39
ATOM     38  O   UNL A   1     -32.829  -1.792  25.640  0.00  0.00    -0.245 OA
ATOM     39  C   UNL A   1     -31.739  -1.406  25.754  0.00  0.00    +0.344 C 
BRANCH  39  46
ATOM     40  C   UNL A   1     -32.149   0.074  28.134  0.00  0.00    +0.145 C 
ATOM     41  C   UNL A   1     -29.724   2.809  29.184  0.00  0.00    +0.034 C 
ATOM     42  C   UNL A   1     -29.983  -0.294  27.048  0.00  0.00    +0.046 C 
ATOM     43  C   UNL A   1     -30.279   1.476  28.707  0.00  0.00    +0.015 C 
ATOM     44  C   UNL A   1     -29.479   0.574  28.003  0.00  0.00    +0.135 C 
ATOM     45  C   UNL A   1     -31.618   1.084  28.902  0.00  0.00    +0.036 C 
ATOM     46  C   UNL A   1     -31.370  -0.511  27.019  0.00  0.00    +0.113 C 
BRANCH  44  48
ATOM     47  C   UNL A   1     -28.024   0.052  29.775  0.00  0.00    +0.253 C 
ATOM     48  O   UNL A   1     -28.132   0.548  28.407  0.00  0.00    -0.472 OA
ENDBRANCH  44  48
BRANCH  40  49
ATOM     49  O   UNL A   1     -33.373  -0.322  28.538  0.00  0.00    -0.471 OA
ATOM     50  C   UNL A   1     -34.029   0.522  29.541  0.00  0.00    +0.253 C 
ENDBRANCH  40  49
ENDBRANCH  39  46
ENDBRANCH  37  39
ENDBRANCH  36  37
ENDBRANCH  35  36
ENDBRANCH  34  35
ENDBRANCH   5  34
TORSDOF 15
