MODEL 3720
MODEL 1
REMARK VINA RESULT:    -5.569      0.000      0.000
REMARK INTER + INTRA:          -5.966
REMARK INTER:                  -5.894
REMARK INTRA:                  -0.072
REMARK UNBOUND:                -0.072
REMARK  Name = No_3720-gen_results/8p0m/2024-11-27-11-27-31/
REMARK  1 active torsions:
REMARK  status: ('A' for Active; 'I' for Inactive)
REMARK    1  A    between atoms: C_4  and  C_7
REMARK                            x       y       z     vdW  Elec       q    Type
REMARK                         _______ _______ _______ _____ _____    ______ ____
ROOT
ATOM      1  C   UNL A   1     -26.657  -3.935  29.905  0.00  0.00    +0.068 C 
ATOM      2  C   UNL A   1     -26.212  -4.837  29.591  0.00  0.00    +0.008 C 
ATOM      3  C   UNL A   1     -25.800  -2.739  29.893  0.00  0.00    +0.188 C 
ATOM      4  C   UNL A   1     -24.485  -2.795  29.348  0.00  0.00    +0.270 C 
ATOM      5  C   UNL A   1     -24.062  -4.029  28.921  0.00  0.00    +0.049 C 
ATOM      6  C   UNL A   1     -24.882  -5.100  28.978  0.00  0.00    +0.004 C 
ATOM      7  F   UNL A   1     -24.656  -2.412  28.370  0.00  0.00    -0.224 F 
ATOM      8  O   UNL A   1     -26.186  -1.620  30.532  0.00  0.00    -0.293 OA
ENDROOT
BRANCH   4   9
ATOM      9  C   UNL A   1     -23.638  -1.630  29.311  0.00  0.00    +0.431 C 
ATOM     10  F   UNL A   1     -22.505  -1.905  28.758  0.00  0.00    -0.167 F 
ATOM     11  F   UNL A   1     -24.163  -0.648  28.542  0.00  0.00    -0.167 F 
ATOM     12  F   UNL A   1     -23.370  -1.075  30.499  0.00  0.00    -0.167 F 
ENDBRANCH   4   9
TORSDOF 1
ENDMDL
ENDMDL
