MODEL 3721
MODEL 1
REMARK VINA RESULT:    -5.476      0.000      0.000
REMARK INTER + INTRA:          -5.892
REMARK INTER:                  -5.796
REMARK INTRA:                  -0.096
REMARK UNBOUND:                -0.096
REMARK  Name = No_3721-gen_results/8p0m/2024-11-27-11-27-31/
REMARK  1 active torsions:
REMARK  status: ('A' for Active; 'I' for Inactive)
REMARK    1  A    between atoms: C_5  and  C_9
REMARK                            x       y       z     vdW  Elec       q    Type
REMARK                         _______ _______ _______ _____ _____    ______ ____
ROOT
ATOM      1  O   UNL A   1     -11.339 -10.511  16.674  0.00  0.00    -0.249 OA
ATOM      2  C   UNL A   1     -10.527 -10.406  17.485  0.00  0.00    +0.340 C 
ATOM      3  N   UNL A   1     -10.741  -9.773  18.570  0.00  0.00    -0.172 NA
ATOM      4  C   UNL A   1      -9.714  -9.350  19.534  0.00  0.00    +0.188 C 
ATOM      5  C   UNL A   1      -8.556  -9.807  19.311  0.00  0.00    +0.160 C 
ATOM      6  N   UNL A   1      -9.216 -10.806  17.089  0.00  0.00    -0.186 NA
ATOM      7  C   UNL A   1      -8.173 -10.447  18.033  0.00  0.00    +0.131 C 
ATOM      8 CL   UNL A   1     -10.133  -8.624  20.943  0.00  0.00    -0.090 Cl
ENDROOT
BRANCH   5   9
ATOM      9  C   UNL A   1      -7.421  -9.505  20.245  0.00  0.00    +0.369 C 
ATOM     10  O   UNL A   1      -6.744  -8.567  20.105  0.00  0.00    -0.245 OA
ATOM     11  O   UNL A   1      -7.032 -10.476  21.058  0.00  0.00    -0.245 OA
ENDBRANCH   5   9
TORSDOF 1
ENDMDL
ENDMDL
