REMARK  Name = No_3721-gen_results/8p0m/2024-11-27-11-27-31/
REMARK  1 active torsions:
REMARK  status: ('A' for Active; 'I' for Inactive)
REMARK    1  A    between atoms: C_5  and  C_9
REMARK                            x       y       z     vdW  Elec       q    Type
REMARK                         _______ _______ _______ _____ _____    ______ ____
ROOT
ATOM      1  O   UNL A   1     -28.123  -1.335  28.487  0.00  0.00    -0.249 OA
ATOM      2  C   UNL A   1     -27.481  -0.404  28.709  0.00  0.00    +0.340 C 
ATOM      3  N   UNL A   1     -26.460  -0.110  28.005  0.00  0.00    -0.172 NA
ATOM      4  C   UNL A   1     -25.430   0.879  28.357  0.00  0.00    +0.188 C 
ATOM      5  C   UNL A   1     -25.698   1.587  29.371  0.00  0.00    +0.160 C 
ATOM      6  N   UNL A   1     -27.753   0.241  29.953  0.00  0.00    -0.186 NA
ATOM      7  C   UNL A   1     -26.784   1.258  30.321  0.00  0.00    +0.131 C 
ATOM      8 CL   UNL A   1     -24.215   1.233  27.316  0.00  0.00    -0.090 Cl
ENDROOT
BRANCH   5   9
ATOM      9  C   UNL A   1     -24.765   2.675  29.813  0.00  0.00    +0.369 C 
ATOM     10  O   UNL A   1     -24.974   3.314  30.765  0.00  0.00    -0.245 OA
ATOM     11  O   UNL A   1     -23.852   3.080  28.942  0.00  0.00    -0.245 OA
ENDBRANCH   5   9
TORSDOF 1
