MODEL 3722
MODEL 1
REMARK VINA RESULT:    -8.476      0.000      0.000
REMARK INTER + INTRA:          -9.155
REMARK INTER:                  -8.972
REMARK INTRA:                  -0.183
REMARK UNBOUND:                -0.183
REMARK  Name = No_3722-gen_results/8p0m/2024-11-27-11-27-31/
REMARK  1 active torsions:
REMARK  status: ('A' for Active; 'I' for Inactive)
REMARK    1  A    between atoms: C_10  and  C_22
REMARK                            x       y       z     vdW  Elec       q    Type
REMARK                         _______ _______ _______ _____ _____    ______ ____
ROOT
ATOM      1  C   UNL A   1     -26.082  -1.470  28.646  0.00  0.00    +0.003 A 
ATOM      2  C   UNL A   1     -25.171  -0.721  28.381  0.00  0.00    -0.012 A 
ATOM      3  C   UNL A   1     -25.257   0.369  27.531  0.00  0.00    +0.056 C 
ATOM      4  C   UNL A   1     -24.170   1.231  27.134  0.00  0.00    -0.012 A 
ATOM      5  C   UNL A   1     -22.878   0.970  27.648  0.00  0.00    +0.036 A 
ATOM      6  C   UNL A   1     -21.734   1.727  27.304  0.00  0.00    +0.003 A 
ATOM      7  C   UNL A   1     -21.534   2.045  26.295  0.00  0.00    +0.000 A 
ATOM      8  C   UNL A   1     -22.699   2.395  25.418  0.00  0.00    -0.000 A 
ATOM      9  C   UNL A   1     -23.995   1.836  25.844  0.00  0.00    -0.004 A 
ATOM     10  C   UNL A   1     -25.833  -2.559  29.612  0.00  0.00    +0.080 A 
ATOM     11  C   UNL A   1     -24.525  -2.937  29.910  0.00  0.00    +0.007 A 
ATOM     12  C   UNL A   1     -23.451  -2.225  29.426  0.00  0.00    +0.003 A 
ATOM     13  C   UNL A   1     -23.694  -1.115  28.635  0.00  0.00    +0.036 A 
ATOM     14  C   UNL A   1     -22.825  -0.217  28.611  0.00  0.00    +0.195 C 
ATOM     15  C   UNL A   1     -26.310   1.383  28.047  0.00  0.00    -0.019 A 
ATOM     16  C   UNL A   1     -26.525   2.375  27.626  0.00  0.00    -0.026 A 
ATOM     17  C   UNL A   1     -27.335   3.206  27.865  0.00  0.00    -0.005 A 
ATOM     18  C   UNL A   1     -28.371   2.927  28.812  0.00  0.00    -0.000 A 
ATOM     19  C   UNL A   1     -28.312   1.657  29.340  0.00  0.00    -0.000 A 
ATOM     20  C   UNL A   1     -27.314   0.859  29.023  0.00  0.00    -0.004 A 
ATOM     21  C   UNL A   1     -25.953  -0.181  26.194  0.00  0.00    +0.013 C 
ATOM     22  O   UNL A   1     -21.573  -0.307  29.169  0.00  0.00    -0.287 OA
ATOM     23  C   UNL A   1     -26.680   0.720  25.467  0.00  0.00    +0.005 C 
ATOM     24  C   UNL A   1     -27.438   0.281  24.329  0.00  0.00    +0.000 C 
ATOM     25  C   UNL A   1     -26.926   2.127  25.767  0.00  0.00    +0.026 C 
ENDROOT
BRANCH  10  26
ATOM     26  C   UNL A   1     -27.020  -3.430  29.981  0.00  0.00    +0.388 C 
ATOM     27  O   UNL A   1     -26.952  -4.580  30.075  0.00  0.00    -0.241 OA
ATOM     28  O   UNL A   1     -28.155  -2.853  30.132  0.00  0.00    -0.241 OA
ENDBRANCH  10  26
TORSDOF 1
ENDMDL
ENDMDL
