REMARK  Name = outputs/IAG933/test6/raw/output_3722_IAG933_linker_design_.xyz
REMARK  12 active torsions:
REMARK  status: ('A' for Active; 'I' for Inactive)
REMARK    1  A    between atoms: C_1  and  C_2
REMARK    2  A    between atoms: C_1  and  C_8
REMARK    3  A    between atoms: C_9  and  C_36
REMARK    4  A    between atoms: C_13  and  N_28
REMARK    5  A    between atoms: C_14  and  C_15
REMARK    6  A    between atoms: C_21  and  O_22
REMARK    7  A    between atoms: O_22  and  C_23
REMARK    8  A    between atoms: C_23  and  C_24
REMARK    9  A    between atoms: C_29  and  C_34
REMARK   10  A    between atoms: C_34  and  N_37
REMARK   11  A    between atoms: C_36  and  N_37
REMARK   12  A    between atoms: C_36  and  C_38
REMARK                            x       y       z     vdW  Elec       q    Type
REMARK                         _______ _______ _______ _____ _____    ______ ____
ROOT
ATOM      1  C   UNL A   1     -23.497   1.620  29.734  0.00  0.00    +0.090 C 
ENDROOT
BRANCH   1   3
ATOM      2  N   UNL A   1     -24.439   1.364  26.802  0.00  0.00    -0.268 NA
ATOM      3  C   UNL A   1     -22.904   0.850  28.502  0.00  0.00    +0.035 C 
ATOM      4  C   UNL A   1     -22.224   1.730  27.425  0.00  0.00    +0.020 C 
ATOM      5  C   UNL A   1     -24.151   0.331  27.763  0.00  0.00    +0.074 C 
ATOM      6  C   UNL A   1     -23.270   2.095  26.322  0.00  0.00    +0.072 C 
BRANCH   2   7
ATOM      7  C   UNL A   1     -25.688   1.614  26.461  0.00  0.00    +0.128 C 
ATOM      8  C   UNL A   1     -26.250   2.920  26.395  0.00  0.00    +0.070 C 
ATOM      9  C   UNL A   1     -27.438   3.091  25.645  0.00  0.00    +0.103 C 
ATOM     10  N   UNL A   1     -28.075   2.089  25.003  0.00  0.00    -0.212 NA
ATOM     11  C   UNL A   1     -27.543   0.849  25.079  0.00  0.00    +0.235 C 
ATOM     12  C   UNL A   1     -26.354   0.576  25.777  0.00  0.00    +0.255 C 
ATOM     13  F   UNL A   1     -25.860  -0.681  25.795  0.00  0.00    -0.225 F 
BRANCH   8  14
ATOM     14  C   UNL A   1     -25.642   4.093  27.123  0.00  0.00    +0.264 C 
ATOM     15  N   UNL A   1     -25.614   5.252  26.449  0.00  0.00    -0.200 NA
ATOM     16  C   UNL A   1     -25.026   6.479  26.963  0.00  0.00    +0.139 C 
ATOM     17  O   UNL A   1     -25.143   3.966  28.243  0.00  0.00    -0.269 OA
ENDBRANCH   8  14
BRANCH  11  18
ATOM     18  O   UNL A   1     -28.193  -0.208  24.477  0.00  0.00    -0.459 OA
BRANCH  18  19
ATOM     19  C   UNL A   1     -29.460   0.005  23.866  0.00  0.00    +0.242 C 
BRANCH  19  20
ATOM     20  C   UNL A   1     -30.065  -1.377  23.573  0.00  0.00    +0.229 C 
ATOM     21  O   UNL A   1     -30.729  -1.878  24.721  0.00  0.00    -0.216 OA
ENDBRANCH  19  20
ENDBRANCH  18  19
ENDBRANCH  11  18
ENDBRANCH   2   7
ENDBRANCH   1   3
BRANCH   1  22
ATOM     22  N   UNL A   1     -24.975   1.786  29.840  0.00  0.00    -0.215 NA
BRANCH  22  23
ATOM     23  C   UNL A   1     -25.709   1.722  30.984  0.00  0.00    +0.096 C 
BRANCH  23  28
ATOM     24  C   UNL A   1     -28.020   2.466  30.832  0.00  0.00    -0.003 C 
ATOM     25  C   UNL A   1     -28.846   4.320  32.156  0.00  0.00    -0.000 C 
ATOM     26  C   UNL A   1     -29.063   3.315  31.181  0.00  0.00    -0.000 C 
ATOM     27  C   UNL A   1     -27.605   4.429  32.785  0.00  0.00    -0.000 C 
ATOM     28  C   UNL A   1     -26.774   2.571  31.480  0.00  0.00    -0.006 C 
ATOM     29  C   UNL A   1     -26.567   3.529  32.510  0.00  0.00    -0.003 C 
ENDBRANCH  23  28
BRANCH  23  31
ATOM     30  C   UNL A   1     -25.387  -0.679  31.571  0.00  0.00    +0.079 C 
ATOM     31  C   UNL A   1     -25.189   0.773  32.028  0.00  0.00    +0.038 C 
ATOM     32  C   UNL A   1     -25.336   0.684  33.544  0.00  0.00    +0.022 C 
ATOM     33  C   UNL A   1     -24.829  -0.715  33.905  0.00  0.00    +0.089 C 
ATOM     34  N   UNL A   1     -24.758  -1.481  32.646  0.00  0.00    -0.219 NA
BRANCH  30  35
ATOM     35  C   UNL A   1     -24.855  -1.012  30.143  0.00  0.00    +0.044 C 
BRANCH  35  36
ATOM     36  C   UNL A   1     -24.973  -2.505  29.788  0.00  0.00    -0.021 C 
ATOM     37  C   UNL A   1     -23.906  -3.173  29.146  0.00  0.00    -0.004 C 
ATOM     38  C   UNL A   1     -23.989  -4.549  28.853  0.00  0.00    -0.000 C 
ATOM     39  C   UNL A   1     -25.137  -5.280  29.205  0.00  0.00    -0.000 C 
ATOM     40  C   UNL A   1     -26.232  -4.611  29.784  0.00  0.00    -0.000 C 
ATOM     41  C   UNL A   1     -26.155  -3.232  30.065  0.00  0.00    -0.004 C 
ENDBRANCH  35  36
ENDBRANCH  30  35
ENDBRANCH  23  31
ENDBRANCH  22  23
ENDBRANCH   1  22
TORSDOF 12
