MODEL 3723
MODEL 1
REMARK VINA RESULT:    -8.205      0.000      0.000
REMARK INTER + INTRA:         -11.558
REMARK INTER:                 -10.124
REMARK INTRA:                  -1.434
REMARK UNBOUND:                -1.434
REMARK  Name = No_3723-gen_results/8p0m/2024-11-27-11-27-31/
REMARK  4 active torsions:
REMARK  status: ('A' for Active; 'I' for Inactive)
REMARK    1  A    between atoms: C_2  and  C_8
REMARK    2  A    between atoms: C_3  and  O_11
REMARK    3  A    between atoms: O_11  and  C_12
REMARK    4  A    between atoms: C_14  and  C_18
REMARK                            x       y       z     vdW  Elec       q    Type
REMARK                         _______ _______ _______ _____ _____    ______ ____
ROOT
ATOM      1  C   UNL A   1     -26.980  -0.235  30.585  0.00  0.00    +0.102 C 
ATOM      2  N   UNL A   1     -26.469   0.703  31.301  0.00  0.00    -0.267 N 
ATOM      3  C   UNL A   1     -25.184   1.065  31.289  0.00  0.00    +0.325 C 
ATOM      4  C   UNL A   1     -24.471   0.943  30.204  0.00  0.00    +0.396 C 
ATOM      5  O   UNL A   1     -23.703   1.709  29.837  0.00  0.00    -0.240 OA
ATOM      6  O   UNL A   1     -24.658  -0.166  29.539  0.00  0.00    -0.442 OA
ATOM      7  O   UNL A   1     -24.719   1.730  32.364  0.00  0.00    -0.263 OA
ATOM      8  C   UNL A   1     -27.311   1.165  32.499  0.00  0.00    +0.116 C 
ATOM      9  C   UNL A   1     -23.407  -0.798  29.020  0.00  0.00    +0.217 C 
ATOM     10  C   UNL A   1     -23.469  -2.212  29.262  0.00  0.00    +0.111 C 
ATOM     11  C   UNL A   1     -24.582  -2.845  29.638  0.00  0.00    +0.116 C 
ATOM     12  C   UNL A   1     -24.640  -4.284  29.501  0.00  0.00    +0.008 C 
ATOM     13  C   UNL A   1     -25.890  -4.888  29.600  0.00  0.00    -0.003 C 
ATOM     14  C   UNL A   1     -27.018  -4.152  29.864  0.00  0.00    +0.016 C 
ATOM     15  C   UNL A   1     -26.948  -2.822  30.071  0.00  0.00    +0.189 C 
ATOM     16  C   UNL A   1     -26.911  -1.560  30.966  0.00  0.00    +0.072 C 
ATOM     17  O   UNL A   1     -25.581  -2.732  29.270  0.00  0.00    -0.479 OA
ATOM     18  C   UNL A   1     -23.917  -4.768  28.199  0.00  0.00    +0.034 C 
ENDROOT
BRANCH   1  21
ATOM     19  C   UNL A   1     -28.031   0.819  27.238  0.00  0.00    +0.145 A 
ATOM     20  C   UNL A   1     -27.323   0.565  28.213  0.00  0.00    +0.035 A 
ATOM     21  C   UNL A   1     -27.830   0.058  29.346  0.00  0.00    -0.001 A 
ATOM     22  C   UNL A   1     -29.263  -0.097  29.493  0.00  0.00    -0.003 A 
ATOM     23  C   UNL A   1     -30.076   0.237  28.459  0.00  0.00    +0.003 A 
ATOM     24  C   UNL A   1     -29.512   0.754  27.316  0.00  0.00    +0.037 A 
BRANCH  19  25
ATOM     25  O   UNL A   1     -27.615   1.272  25.954  0.00  0.00    -0.453 OA
BRANCH  25  28
ATOM     26  C   UNL A   1     -26.047   3.254  26.410  0.00  0.00    +0.045 A 
ATOM     27  C   UNL A   1     -25.058   3.589  26.268  0.00  0.00    +0.083 A 
ATOM     28  C   UNL A   1     -26.360   1.900  25.926  0.00  0.00    +0.156 A 
ATOM     29  C   UNL A   1     -25.329   1.053  25.425  0.00  0.00    +0.092 A 
ATOM     30  C   UNL A   1     -24.076   1.607  25.355  0.00  0.00    +0.015 A 
ATOM     31  C   UNL A   1     -23.850   2.865  25.790  0.00  0.00    +0.008 A 
ATOM     32 CL   UNL A   1     -25.484  -0.555  24.983  0.00  0.00    -0.079 Cl
BRANCH  27  33
ATOM     33  C   UNL A   1     -24.669   5.072  26.733  0.00  0.00    +0.388 C 
ATOM     34  O   UNL A   1     -24.248   5.952  25.842  0.00  0.00    -0.241 OA
ATOM     35  O   UNL A   1     -24.874   5.359  27.901  0.00  0.00    -0.241 OA
ENDBRANCH  27  33
ENDBRANCH  25  28
ENDBRANCH  19  25
ENDBRANCH   1  21
TORSDOF 4
ENDMDL
ENDMDL
