MODEL 3724
MODEL 1
REMARK VINA RESULT:    -6.004      0.000      0.000
REMARK INTER + INTRA:          -7.129
REMARK INTER:                  -6.707
REMARK INTRA:                  -0.422
REMARK UNBOUND:                -0.422
REMARK  Name = No_3724-gen_results/8p0m/2024-11-27-11-27-31/
REMARK  2 active torsions:
REMARK  status: ('A' for Active; 'I' for Inactive)
REMARK    1  A    between atoms: C_2  and  C_14
REMARK    2  A    between atoms: C_4  and  C_7
REMARK                            x       y       z     vdW  Elec       q    Type
REMARK                         _______ _______ _______ _____ _____    ______ ____
ROOT
ATOM      1  C   UNL A   1     -28.926 -10.493  32.722  0.00  0.00    +0.007 A 
ATOM      2  C   UNL A   1     -28.175 -11.219  32.588  0.00  0.00    +0.080 A 
ATOM      3  C   UNL A   1     -29.773 -10.197  31.556  0.00  0.00    +0.000 A 
ATOM      4  C   UNL A   1     -29.657 -10.967  30.362  0.00  0.00    +0.001 A 
ATOM      5  C   UNL A   1     -27.885 -12.185  31.493  0.00  0.00    +0.007 A 
ATOM      6  C   UNL A   1     -28.645 -11.936  30.389  0.00  0.00    +0.000 A 
ENDROOT
BRANCH   4   7
ATOM      7  C   UNL A   1     -30.460 -10.730  29.208  0.00  0.00    +0.017 A 
ATOM      8  C   UNL A   1     -30.010 -10.679  28.019  0.00  0.00    +0.001 A 
ATOM      9  C   UNL A   1     -30.875 -10.651  26.835  0.00  0.00    +0.000 A 
ATOM     10  C   UNL A   1     -31.671 -11.602  29.001  0.00  0.00    +0.089 A 
ATOM     11  N   UNL A   1     -32.407 -11.936  30.156  0.00  0.00    -0.128 NA
ATOM     12  C   UNL A   1     -31.807 -12.476  27.998  0.00  0.00    +0.018 A 
ATOM     13  C   UNL A   1     -31.768 -11.559  26.686  0.00  0.00    +0.001 A 
ENDBRANCH   4   7
BRANCH   2  14
ATOM     14  C   UNL A   1     -27.240 -11.567  33.872  0.00  0.00    +0.388 C 
ATOM     15  O   UNL A   1     -27.045 -10.657  34.722  0.00  0.00    -0.241 OA
ATOM     16  O   UNL A   1     -26.836 -12.717  33.983  0.00  0.00    -0.241 OA
ENDBRANCH   2  14
TORSDOF 2
ENDMDL
ENDMDL
