REMARK  Name = No_3724-gen_results/8p0m/2024-11-27-11-27-31/
REMARK  2 active torsions:
REMARK  status: ('A' for Active; 'I' for Inactive)
REMARK    1  A    between atoms: C_2  and  C_14
REMARK    2  A    between atoms: C_4  and  C_7
REMARK                            x       y       z     vdW  Elec       q    Type
REMARK                         _______ _______ _______ _____ _____    ______ ____
ROOT
ATOM      1  C   UNL A   1     -28.016  -0.814  28.878  0.00  0.00    +0.007 A 
ATOM      2  C   UNL A   1     -28.469  -0.785  29.829  0.00  0.00    +0.080 A 
ATOM      3  C   UNL A   1     -26.546  -0.876  28.850  0.00  0.00    +0.000 A 
ATOM      4  C   UNL A   1     -25.804  -1.032  30.057  0.00  0.00    +0.001 A 
ATOM      5  C   UNL A   1     -27.944  -0.987  31.207  0.00  0.00    +0.007 A 
ATOM      6  C   UNL A   1     -26.582  -1.039  31.223  0.00  0.00    +0.000 A 
ENDROOT
BRANCH   4   7
ATOM      7  C   UNL A   1     -24.381  -1.108  30.085  0.00  0.00    +0.017 A 
ATOM      8  C   UNL A   1     -23.642  -1.118  29.049  0.00  0.00    +0.001 A 
ATOM      9  C   UNL A   1     -22.183  -0.978  29.104  0.00  0.00    +0.000 A 
ATOM     10  C   UNL A   1     -23.639  -0.109  30.936  0.00  0.00    +0.089 A 
ATOM     11  N   UNL A   1     -24.224   0.213  32.177  0.00  0.00    -0.128 NA
ATOM     12  C   UNL A   1     -22.834   0.843  30.450  0.00  0.00    +0.018 A 
ATOM     13  C   UNL A   1     -21.669   0.021  29.721  0.00  0.00    +0.001 A 
ENDBRANCH   4   7
BRANCH   2  14
ATOM     14  C   UNL A   1     -30.093  -0.731  29.876  0.00  0.00    +0.388 C 
ATOM     15  O   UNL A   1     -30.633   0.243  30.467  0.00  0.00    -0.241 OA
ATOM     16  O   UNL A   1     -30.706  -1.601  29.272  0.00  0.00    -0.241 OA
ENDBRANCH   2  14
TORSDOF 2
