MODEL 3725
MODEL 1
REMARK VINA RESULT:    -5.196      0.000      0.000
REMARK INTER + INTRA:          -5.546
REMARK INTER:                  -5.499
REMARK INTRA:                  -0.046
REMARK UNBOUND:                -0.046
REMARK  Name = No_3725-gen_results/8p0m/2024-11-27-11-27-31/
REMARK  1 active torsions:
REMARK  status: ('A' for Active; 'I' for Inactive)
REMARK    1  A    between atoms: C_6  and  C_8
REMARK                            x       y       z     vdW  Elec       q    Type
REMARK                         _______ _______ _______ _____ _____    ______ ____
ROOT
ATOM      1  C   UNL A   1     -28.296 -11.772  30.962  0.00  0.00    +0.018 A 
ATOM      2  C   UNL A   1     -29.132 -11.237  30.271  0.00  0.00    +0.058 A 
ATOM      3  C   UNL A   1     -29.929 -10.213  30.771  0.00  0.00    +0.011 A 
ATOM      4  C   UNL A   1     -29.816  -9.789  32.143  0.00  0.00    +0.001 A 
ATOM      5  C   UNL A   1     -28.841 -10.477  32.877  0.00  0.00    +0.007 A 
ATOM      6  C   UNL A   1     -28.124 -11.450  32.362  0.00  0.00    +0.081 A 
ATOM      7 CL   UNL A   1     -29.436 -11.647  28.636  0.00  0.00    -0.082 Cl
ENDROOT
BRANCH   6   8
ATOM      8  C   UNL A   1     -27.167 -12.130  33.264  0.00  0.00    +0.388 C 
ATOM      9  O   UNL A   1     -26.453 -12.930  32.770  0.00  0.00    -0.241 OA
ATOM     10  O   UNL A   1     -27.538 -12.368  34.526  0.00  0.00    -0.241 OA
ENDBRANCH   6   8
TORSDOF 1
ENDMDL
ENDMDL
