REMARK  Name = No_3726-gen_results/8p0m/2024-11-27-11-27-31/
REMARK  1 active torsions:
REMARK  status: ('A' for Active; 'I' for Inactive)
REMARK    1  A    between atoms: C_4  and  C_8
REMARK                            x       y       z     vdW  Elec       q    Type
REMARK                         _______ _______ _______ _____ _____    ______ ____
ROOT
ATOM      1  C   UNL A   1     -28.016  -0.814  28.878  0.00  0.00    +0.036 A 
ATOM      2  C   UNL A   1     -28.469  -0.785  29.829  0.00  0.00    +0.037 A 
ATOM      3  C   UNL A   1     -26.504  -0.778  28.877  0.00  0.00    +0.145 A 
ATOM      4  C   UNL A   1     -25.810  -0.853  30.103  0.00  0.00    +0.084 A 
ATOM      5  C   UNL A   1     -27.991  -0.892  31.226  0.00  0.00    +0.007 A 
ATOM      6  C   UNL A   1     -26.604  -0.868  31.265  0.00  0.00    +0.007 A 
ATOM      7 BR   UNL A   1     -30.462  -0.840  29.838  0.00  0.00    -0.049 Br
ATOM      8  F   UNL A   1     -25.803  -0.773  27.771  0.00  0.00    -0.204 F 
ENDROOT
BRANCH   4   9
ATOM      9  C   UNL A   1     -24.362  -0.820  30.139  0.00  0.00    +0.284 C 
ATOM     10  N   UNL A   1     -23.700  -1.450  30.779  0.00  0.00    -0.089 NA
ATOM     11  O   UNL A   1     -23.761   0.046  29.334  0.00  0.00    -0.267 OA
ATOM     12  N   UNL A   1     -22.538  -1.346  31.172  0.00  0.00    +0.007 NA
ENDBRANCH   4   9
TORSDOF 1
