MODEL 3726
MODEL 1
REMARK VINA RESULT:    -5.139      0.000      0.000
REMARK INTER + INTRA:          -5.570
REMARK INTER:                  -5.440
REMARK INTRA:                  -0.130
REMARK UNBOUND:                -0.130
REMARK  Name = No_3726-gen_results/8p0m/2024-11-27-11-27-31/
REMARK  1 active torsions:
REMARK  status: ('A' for Active; 'I' for Inactive)
REMARK    1  A    between atoms: C_4  and  C_8
REMARK                            x       y       z     vdW  Elec       q    Type
REMARK                         _______ _______ _______ _____ _____    ______ ____
ROOT
ATOM      1  C   UNL A   1     -30.357 -13.393  31.351  0.00  0.00    +0.036 A 
ATOM      2  C   UNL A   1     -30.010 -13.003  30.436  0.00  0.00    +0.037 A 
ATOM      3  C   UNL A   1     -29.502 -13.080  32.558  0.00  0.00    +0.145 A 
ATOM      4  C   UNL A   1     -28.411 -12.196  32.422  0.00  0.00    +0.084 A 
ATOM      5  C   UNL A   1     -28.952 -12.049  30.033  0.00  0.00    +0.007 A 
ATOM      6  C   UNL A   1     -28.147 -11.733  31.119  0.00  0.00    +0.007 A 
ATOM      7 BR   UNL A   1     -31.137 -13.406  28.842  0.00  0.00    -0.049 Br
ATOM      8  F   UNL A   1     -29.788 -13.526  33.756  0.00  0.00    -0.204 F 
ENDROOT
BRANCH   4   9
ATOM      9  C   UNL A   1     -27.570 -11.875  33.557  0.00  0.00    +0.284 C 
ATOM     10  N   UNL A   1     -27.589 -10.930  34.150  0.00  0.00    -0.089 NA
ATOM     11  O   UNL A   1     -26.687 -12.792  33.929  0.00  0.00    -0.267 OA
ATOM     12  N   UNL A   1     -26.783 -10.368  34.892  0.00  0.00    +0.007 NA
ENDBRANCH   4   9
TORSDOF 1
ENDMDL
ENDMDL
