REMARK  Name = outputs/IAG933/test6/raw/output_3727_IAG933_linker_design_.xyz
REMARK  4 active torsions:
REMARK  status: ('A' for Active; 'I' for Inactive)
REMARK    1  A    between atoms: C_1  and  C_2
REMARK    2  A    between atoms: C_1  and  C_8
REMARK    3  A    between atoms: C_1  and  C_29
REMARK    4  A    between atoms: C_14  and  C_15
REMARK                            x       y       z     vdW  Elec       q    Type
REMARK                         _______ _______ _______ _____ _____    ______ ____
ROOT
ATOM      1  C   UNL A   1     -25.688   1.614  26.461  0.00  0.00    +0.016 C 
ATOM      2  C   UNL A   1     -26.250   2.920  26.395  0.00  0.00    +0.073 C 
ATOM      3  C   UNL A   1     -27.438   3.091  25.645  0.00  0.00    +0.106 C 
ATOM      4  N   UNL A   1     -28.075   2.089  25.003  0.00  0.00    -0.208 NA
ATOM      5  C   UNL A   1     -27.543   0.849  25.079  0.00  0.00    +0.253 C 
ATOM      6  O   UNL A   1     -28.193  -0.208  24.477  0.00  0.00    -0.456 OA
ATOM      7  C   UNL A   1     -29.460   0.005  23.866  0.00  0.00    +0.239 C 
ATOM      8  C   UNL A   1     -30.065  -1.377  23.573  0.00  0.00    +0.191 C 
ATOM      9  O   UNL A   1     -30.729  -1.878  24.721  0.00  0.00    -0.330 OA
ATOM     10  C   UNL A   1     -26.354   0.576  25.777  0.00  0.00    +0.189 C 
ATOM     11  F   UNL A   1     -25.860  -0.681  25.795  0.00  0.00    -0.200 F 
ATOM     12  O   UNL A   1     -28.016  -0.773  29.455  0.00  0.00    -0.344 OA
ATOM     13  C   UNL A   1     -25.437  -0.065  29.104  0.00  0.00    +0.043 C 
ATOM     14  C   UNL A   1     -32.607  -3.190  27.187  0.00  0.00    +0.117 C 
ATOM     15  S   UNL A   1     -30.793   1.917  29.552  0.00  0.00    -0.127 S 
ATOM     16  C   UNL A   1     -24.284   0.680  28.469  0.00  0.00    +0.008 C 
ATOM     17  O   UNL A   1     -32.977  -0.982  28.447  0.00  0.00    -0.275 OA
ATOM     18  C   UNL A   1     -22.002   1.511  27.736  0.00  0.00    +0.000 C 
ATOM     19  C   UNL A   1     -31.674   0.568  27.262  0.00  0.00    +0.097 C 
ATOM     20  C   UNL A   1     -29.233  -0.371  29.060  0.00  0.00    +0.165 C 
ATOM     21  C   UNL A   1     -29.224   1.001  29.127  0.00  0.00    +0.127 C 
ATOM     22  C   UNL A   1     -22.796   0.386  28.505  0.00  0.00    +0.001 C 
ATOM     23  C   UNL A   1     -31.978  -2.003  25.283  0.00  0.00    +0.243 C 
ATOM     24  C   UNL A   1     -32.109   1.478  28.435  0.00  0.00    +0.068 C 
ATOM     25  C   UNL A   1     -23.043   1.928  26.606  0.00  0.00    +0.004 C 
ATOM     26  C   UNL A   1     -32.200  -0.839  27.497  0.00  0.00    +0.228 C 
ATOM     27  S   UNL A   1     -27.881   1.533  28.536  0.00  0.00    -0.099 S 
ATOM     28  C   UNL A   1     -26.991   0.256  28.697  0.00  0.00    +0.164 C 
ATOM     29  N   UNL A   1     -31.822  -1.952  26.789  0.00  0.00    -0.252 N 
ATOM     30  C   UNL A   1     -24.402   1.266  27.100  0.00  0.00    +0.025 C 
ENDROOT
BRANCH   2  31
ATOM     31  C   UNL A   1     -25.642   4.093  27.123  0.00  0.00    +0.266 C 
ATOM     32  N   UNL A   1     -25.614   5.252  26.449  0.00  0.00    -0.200 NA
ATOM     33  C   UNL A   1     -25.026   6.479  26.963  0.00  0.00    +0.139 C 
ATOM     34  O   UNL A   1     -25.143   3.966  28.243  0.00  0.00    -0.268 OA
ENDBRANCH   2  31
BRANCH  13  35
ATOM     35  C   UNL A   1     -24.855  -1.012  30.143  0.00  0.00    +0.042 C 
BRANCH  35  36
ATOM     36  C   UNL A   1     -24.973  -2.505  29.788  0.00  0.00    -0.021 C 
ATOM     37  C   UNL A   1     -23.906  -3.173  29.146  0.00  0.00    -0.004 C 
ATOM     38  C   UNL A   1     -23.989  -4.549  28.853  0.00  0.00    -0.000 C 
ATOM     39  C   UNL A   1     -25.137  -5.280  29.205  0.00  0.00    -0.000 C 
ATOM     40  C   UNL A   1     -26.232  -4.611  29.784  0.00  0.00    -0.000 C 
ATOM     41  C   UNL A   1     -26.155  -3.232  30.065  0.00  0.00    -0.004 C 
ENDBRANCH  35  36
BRANCH  35  42
ATOM     42  C   UNL A   1     -25.387  -0.679  31.571  0.00  0.00    +0.077 C 
ATOM     43  C   UNL A   1     -25.189   0.773  32.028  0.00  0.00    +0.019 C 
ATOM     44  C   UNL A   1     -25.336   0.684  33.544  0.00  0.00    +0.020 C 
ATOM     45  C   UNL A   1     -24.829  -0.715  33.905  0.00  0.00    +0.089 C 
ATOM     46  N   UNL A   1     -24.758  -1.481  32.646  0.00  0.00    -0.219 NA
ENDBRANCH  35  42
ENDBRANCH  13  35
TORSDOF 4
