MODEL 3727
MODEL 1
REMARK VINA RESULT:    -6.462      0.000      0.000
REMARK INTER + INTRA:          -6.462
REMARK INTER:                  -6.462
REMARK INTRA:                   0.000
REMARK UNBOUND:                 0.000
REMARK  Name = No_3727-gen_results/8p0m/2024-11-27-11-27-31/
REMARK  0 active torsions:
REMARK  status: ('A' for Active; 'I' for Inactive)
REMARK                            x       y       z     vdW  Elec       q    Type
REMARK                         _______ _______ _______ _____ _____    ______ ____
ROOT
ATOM      1  C   UNL A   1     -27.211 -12.392  32.704  0.00  0.00    -0.000 A 
ATOM      2  C   UNL A   1     -27.844 -12.313  31.677  0.00  0.00    -0.000 A 
ATOM      3  C   UNL A   1     -28.714 -11.253  31.449  0.00  0.00    -0.000 A 
ATOM      4  C   UNL A   1     -28.924 -10.238  32.449  0.00  0.00    -0.000 A 
ATOM      5  C   UNL A   1     -29.758  -9.170  32.318  0.00  0.00    -0.000 A 
ATOM      6  C   UNL A   1     -27.408 -11.507  33.833  0.00  0.00    +0.000 A 
ATOM      7  C   UNL A   1     -28.238 -10.416  33.692  0.00  0.00    -0.000 A 
ATOM      8  C   UNL A   1     -30.732  -9.174  31.154  0.00  0.00    -0.000 A 
ATOM      9  C   UNL A   1     -30.488 -10.149  30.095  0.00  0.00    -0.000 A 
ATOM     10  C   UNL A   1     -29.557 -11.167  30.256  0.00  0.00    -0.000 A 
ATOM     11  C   UNL A   1     -29.415 -12.056  29.130  0.00  0.00    -0.004 A 
ATOM     12  C   UNL A   1     -29.476 -11.551  27.830  0.00  0.00    -0.022 A 
ATOM     13  C   UNL A   1     -30.588 -10.661  27.530  0.00  0.00    -0.004 A 
ATOM     14  C   UNL A   1     -31.066  -9.821  28.732  0.00  0.00    -0.000 A 
ATOM     15  C   UNL A   1     -28.788 -12.084  26.714  0.00  0.00    +0.031 C 
ENDROOT
TORSDOF 0
ENDMDL
ENDMDL
