MODEL 3728
MODEL 1
REMARK VINA RESULT:    -6.301      0.000      0.000
REMARK INTER + INTRA:          -7.018
REMARK INTER:                  -6.669
REMARK INTRA:                  -0.349
REMARK UNBOUND:                -0.349
REMARK  Name = No_3728-gen_results/8p0m/2024-11-27-11-27-31/
REMARK  1 active torsions:
REMARK  status: ('A' for Active; 'I' for Inactive)
REMARK    1  A    between atoms: C_5  and  C_8
REMARK                            x       y       z     vdW  Elec       q    Type
REMARK                         _______ _______ _______ _____ _____    ______ ____
ROOT
ATOM      1  O   UNL A   1     -24.674  -5.813  28.924  0.00  0.00    -0.273 OA
ATOM      2  C   UNL A   1     -25.055  -4.747  29.137  0.00  0.00    +0.242 C 
ATOM      3  C   UNL A   1     -24.281  -3.636  28.867  0.00  0.00    +0.091 C 
ATOM      4  N   UNL A   1     -26.318  -4.461  29.844  0.00  0.00    -0.205 NA
ATOM      5  C   UNL A   1     -24.874  -2.385  28.890  0.00  0.00    +0.034 C 
ATOM      6  C   UNL A   1     -26.051  -2.162  29.630  0.00  0.00    +0.028 C 
ATOM      7  C   UNL A   1     -26.789  -3.264  30.007  0.00  0.00    +0.116 C 
ENDROOT
BRANCH   5   8
ATOM      8  C   UNL A   1     -24.085  -1.149  28.523  0.00  0.00    -0.011 A 
ATOM      9  C   UNL A   1     -24.069  -0.334  27.881  0.00  0.00    +0.054 A 
ATOM     10  C   UNL A   1     -23.129   0.743  27.647  0.00  0.00    +0.011 A 
ATOM     11  C   UNL A   1     -22.783  -1.218  29.327  0.00  0.00    -0.003 A 
ATOM     12  C   UNL A   1     -21.849  -0.259  29.171  0.00  0.00    -0.000 A 
ATOM     13  C   UNL A   1     -22.026   0.727  28.256  0.00  0.00    +0.001 A 
ATOM     14 CL   UNL A   1     -25.652  -0.058  26.859  0.00  0.00    -0.083 Cl
ENDBRANCH   5   8
TORSDOF 1
ENDMDL
ENDMDL
