MODEL 372
MODEL 1
REMARK VINA RESULT:    -6.502      0.000      0.000
REMARK INTER + INTRA:          -7.193
REMARK INTER:                  -6.882
REMARK INTRA:                  -0.311
REMARK UNBOUND:                -0.311
REMARK  Name = No_372-gen_results/8p0m/2024-11-27-11-27-31/
REMARK  1 active torsions:
REMARK  status: ('A' for Active; 'I' for Inactive)
REMARK    1  A    between atoms: C_3  and  C_7
REMARK                            x       y       z     vdW  Elec       q    Type
REMARK                         _______ _______ _______ _____ _____    ______ ____
ROOT
ATOM      1  C   UNL A   1     -24.832  -4.958  28.923  0.00  0.00    +0.000 A 
ATOM      2  C   UNL A   1     -24.173  -3.983  28.647  0.00  0.00    +0.000 A 
ATOM      3  C   UNL A   1     -24.522  -2.685  29.020  0.00  0.00    +0.000 A 
ATOM      4  C   UNL A   1     -25.769  -2.466  29.727  0.00  0.00    +0.000 A 
ATOM      5  C   UNL A   1     -26.490  -3.649  30.005  0.00  0.00    +0.000 A 
ATOM      6  C   UNL A   1     -26.083  -4.828  29.607  0.00  0.00    +0.000 A 
ENDROOT
BRANCH   3   7
ATOM      7  C   UNL A   1     -23.757  -1.445  28.728  0.00  0.00    +0.000 A 
ATOM      8  C   UNL A   1     -24.248  -0.467  27.918  0.00  0.00    +0.000 A 
ATOM      9  C   UNL A   1     -23.483   0.665  27.626  0.00  0.00    +0.000 A 
ATOM     10  C   UNL A   1     -22.182   0.846  28.197  0.00  0.00    +0.000 A 
ATOM     11  C   UNL A   1     -22.463  -1.192  29.217  0.00  0.00    +0.000 A 
ATOM     12  C   UNL A   1     -21.726  -0.096  28.949  0.00  0.00    +0.000 A 
ENDBRANCH   3   7
TORSDOF 1
ENDMDL
ENDMDL
