REMARK  Name = outputs/IAG933/test6/raw/output_3730_IAG933_linker_design_.xyz
REMARK  17 active torsions:
REMARK  status: ('A' for Active; 'I' for Inactive)
REMARK    1  A    between atoms: C_1  and  C_2
REMARK    2  A    between atoms: C_1  and  C_8
REMARK    3  A    between atoms: C_1  and  C_37
REMARK    4  A    between atoms: C_13  and  C_32
REMARK    5  A    between atoms: C_14  and  C_15
REMARK    6  A    between atoms: C_21  and  O_22
REMARK    7  A    between atoms: O_22  and  C_23
REMARK    8  A    between atoms: C_23  and  C_24
REMARK    9  A    between atoms: C_30  and  O_44
REMARK   10  A    between atoms: N_31  and  C_43
REMARK   11  A    between atoms: C_32  and  N_33
REMARK   12  A    between atoms: N_33  and  C_37
REMARK   13  A    between atoms: N_33  and  C_42
REMARK   14  A    between atoms: C_36  and  C_42
REMARK   15  A    between atoms: C_37  and  O_44
REMARK   16  A    between atoms: C_38  and  C_43
REMARK   17  A    between atoms: O_40  and  C_41
REMARK                            x       y       z     vdW  Elec       q    Type
REMARK                         _______ _______ _______ _____ _____    ______ ____
ROOT
ATOM      1  C   UNL A   1     -25.518  -0.130  29.017  0.00  0.00    +0.234 C 
ENDROOT
BRANCH   1   2
ATOM      2  C   UNL A   1     -24.855  -1.012  30.143  0.00  0.00    +0.095 C 
BRANCH   2   3
ATOM      3  C   UNL A   1     -24.973  -2.505  29.788  0.00  0.00    -0.016 C 
ATOM      4  C   UNL A   1     -23.906  -3.173  29.146  0.00  0.00    -0.004 C 
ATOM      5  C   UNL A   1     -23.989  -4.549  28.853  0.00  0.00    -0.000 C 
ATOM      6  C   UNL A   1     -25.137  -5.280  29.205  0.00  0.00    -0.000 C 
ATOM      7  C   UNL A   1     -26.232  -4.611  29.784  0.00  0.00    -0.000 C 
ATOM      8  C   UNL A   1     -26.155  -3.232  30.065  0.00  0.00    -0.004 C 
ENDBRANCH   2   3
BRANCH   2   9
ATOM      9  C   UNL A   1     -25.387  -0.679  31.571  0.00  0.00    +0.082 C 
ATOM     10  C   UNL A   1     -25.189   0.773  32.028  0.00  0.00    +0.019 C 
ATOM     11  C   UNL A   1     -25.336   0.684  33.544  0.00  0.00    +0.020 C 
ATOM     12  C   UNL A   1     -24.829  -0.715  33.905  0.00  0.00    +0.089 C 
ATOM     13  N   UNL A   1     -24.758  -1.481  32.646  0.00  0.00    -0.219 NA
ENDBRANCH   2   9
ENDBRANCH   1   2
BRANCH   1  14
ATOM     14  N   UNL A   1     -24.360   0.504  28.132  0.00  0.00    -0.226 NA
BRANCH  14  15
ATOM     15  C   UNL A   1     -24.275   1.331  26.787  0.00  0.00    +0.084 C 
BRANCH  15  16
ATOM     16  C   UNL A   1     -25.688   1.614  26.461  0.00  0.00    +0.086 C 
ATOM     17  C   UNL A   1     -26.250   2.920  26.395  0.00  0.00    +0.056 C 
ATOM     18  C   UNL A   1     -27.438   3.091  25.645  0.00  0.00    +0.102 C 
ATOM     19  N   UNL A   1     -28.075   2.089  25.003  0.00  0.00    -0.212 NA
ATOM     20  C   UNL A   1     -27.543   0.849  25.079  0.00  0.00    +0.234 C 
ATOM     21  C   UNL A   1     -26.354   0.576  25.777  0.00  0.00    +0.241 C 
ATOM     22  F   UNL A   1     -25.860  -0.681  25.795  0.00  0.00    -0.227 F 
BRANCH  17  23
ATOM     23  C   UNL A   1     -25.642   4.093  27.123  0.00  0.00    +0.263 C 
ATOM     24  N   UNL A   1     -25.614   5.252  26.449  0.00  0.00    -0.200 NA
ATOM     25  C   UNL A   1     -25.026   6.479  26.963  0.00  0.00    +0.139 C 
ATOM     26  O   UNL A   1     -25.143   3.966  28.243  0.00  0.00    -0.269 OA
ENDBRANCH  17  23
BRANCH  20  27
ATOM     27  O   UNL A   1     -28.193  -0.208  24.477  0.00  0.00    -0.459 OA
BRANCH  27  28
ATOM     28  C   UNL A   1     -29.460   0.005  23.866  0.00  0.00    +0.242 C 
BRANCH  28  29
ATOM     29  C   UNL A   1     -30.065  -1.377  23.573  0.00  0.00    +0.229 C 
ATOM     30  O   UNL A   1     -30.729  -1.878  24.721  0.00  0.00    -0.216 OA
ENDBRANCH  28  29
ENDBRANCH  27  28
ENDBRANCH  20  27
ENDBRANCH  15  16
ENDBRANCH  14  15
BRANCH  14  31
ATOM     31  C   UNL A   1     -23.004   0.215  28.694  0.00  0.00    +0.182 C 
BRANCH  31  32
ATOM     32  C   UNL A   1     -22.076   0.948  27.826  0.00  0.00    +0.091 C 
ATOM     33  N   UNL A   1     -21.179   1.518  27.258  0.00  0.00    -0.194 NA
ENDBRANCH  31  32
ENDBRANCH  14  31
ENDBRANCH   1  14
BRANCH   1  34
ATOM     34  O   UNL A   1     -26.913  -0.690  28.863  0.00  0.00    -0.460 OA
BRANCH  34  35
ATOM     35  C   UNL A   1     -28.018  -0.160  28.148  0.00  0.00    +0.171 C 
ATOM     36  C   UNL A   1     -29.053   0.532  28.732  0.00  0.00    +0.035 C 
BRANCH  36  37
ATOM     37  C   UNL A   1     -29.026   0.677  30.082  0.00  0.00    +0.125 C 
BRANCH  37  40
ATOM     38  N   UNL A   1     -30.306   3.023  32.566  0.00  0.00    -0.211 NA
ATOM     39  C   UNL A   1     -29.858   1.879  32.165  0.00  0.00    +0.226 C 
ATOM     40  N   UNL A   1     -29.529   1.727  30.861  0.00  0.00    -0.247 N 
ATOM     41  C   UNL A   1     -29.932   2.993  30.275  0.00  0.00    +0.304 C 
ATOM     42  O   UNL A   1     -30.002   3.280  29.102  0.00  0.00    -0.265 OA
ATOM     43  C   UNL A   1     -30.395   3.703  31.413  0.00  0.00    +0.278 C 
BRANCH  43  45
ATOM     44  C   UNL A   1     -30.857   5.856  32.142  0.00  0.00    +0.254 C 
ATOM     45  O   UNL A   1     -30.997   4.873  31.189  0.00  0.00    -0.453 OA
ENDBRANCH  43  45
ENDBRANCH  37  40
ENDBRANCH  36  37
ENDBRANCH  34  35
ENDBRANCH   1  34
TORSDOF 17
