MODEL 3731
MODEL 1
REMARK VINA RESULT:    -4.905      0.000      0.000
REMARK INTER + INTRA:          -5.265
REMARK INTER:                  -5.192
REMARK INTRA:                  -0.073
REMARK UNBOUND:                -0.073
REMARK  Name = No_3731-gen_results/8p0m/2024-11-27-11-27-31/
REMARK  1 active torsions:
REMARK  status: ('A' for Active; 'I' for Inactive)
REMARK    1  A    between atoms: C_2  and  C_7
REMARK                            x       y       z     vdW  Elec       q    Type
REMARK                         _______ _______ _______ _____ _____    ______ ____
ROOT
ATOM      1  C   UNL A   1     -23.855  -3.545  28.553  0.00  0.00    -0.000 A 
ATOM      2  C   UNL A   1     -24.614  -2.675  28.911  0.00  0.00    -0.000 A 
ATOM      3  C   UNL A   1     -25.829  -2.984  29.511  0.00  0.00    -0.000 A 
ATOM      4  C   UNL A   1     -26.244  -4.352  29.684  0.00  0.00    -0.000 A 
ATOM      5  C   UNL A   1     -25.317  -5.295  29.220  0.00  0.00    -0.000 A 
ATOM      6  C   UNL A   1     -24.188  -4.950  28.644  0.00  0.00    -0.000 A 
ENDROOT
BRANCH   2   7
ATOM      7  C   UNL A   1     -24.363  -1.213  28.787  0.00  0.00    -0.005 C 
ATOM      8  C   UNL A   1     -23.528  -0.577  29.528  0.00  0.00    -0.026 C 
ATOM      9  C   UNL A   1     -23.293  -1.103  30.940  0.00  0.00    +0.031 C 
ENDBRANCH   2   7
TORSDOF 1
ENDMDL
ENDMDL
