MODEL 3732
MODEL 1
REMARK VINA RESULT:    -6.837      0.000      0.000
REMARK INTER + INTRA:         -13.181
REMARK INTER:                 -10.834
REMARK INTRA:                  -2.347
REMARK UNBOUND:                -2.347
REMARK  Name = No_3732-gen_results/8p0m/2024-11-27-11-27-31/
REMARK  10 active torsions:
REMARK  status: ('A' for Active; 'I' for Inactive)
REMARK    1  A    between atoms: C_1  and  C_2
REMARK    2  A    between atoms: C_1  and  C_8
REMARK    3  A    between atoms: C_3  and  C_24
REMARK    4  A    between atoms: C_5  and  C_10
REMARK    5  A    between atoms: C_8  and  C_9
REMARK    6  A    between atoms: C_8  and  N_33
REMARK    7  A    between atoms: N_14  and  C_16
REMARK    8  A    between atoms: C_16  and  C_17
REMARK    9  A    between atoms: N_26  and  C_27
REMARK   10  A    between atoms: N_33  and  C_34
REMARK                            x       y       z     vdW  Elec       q    Type
REMARK                         _______ _______ _______ _____ _____    ______ ____
ROOT
ATOM      1  C   UNL A   1     -29.211 -15.339   9.322  0.00  0.00    -0.015 A 
ATOM      2  C   UNL A   1     -29.238 -13.966   9.169  0.00  0.00    +0.051 A 
ATOM      3  C   UNL A   1     -29.590 -13.007  10.199  0.00  0.00    +0.008 A 
ATOM      4  C   UNL A   1     -29.953 -13.484  11.478  0.00  0.00    +0.071 A 
ATOM      5  C   UNL A   1     -29.915 -14.914  11.655  0.00  0.00    +0.004 A 
ATOM      6  C   UNL A   1     -29.542 -15.802  10.674  0.00  0.00    -0.004 A 
ENDROOT
BRANCH   4   7
ATOM      7  C   UNL A   1     -30.309 -12.606  12.550  0.00  0.00    +0.419 C 
ATOM      8  F   UNL A   1     -30.676 -13.114  13.574  0.00  0.00    -0.166 F 
ATOM      9  F   UNL A   1     -29.348 -11.700  12.885  0.00  0.00    -0.166 F 
ATOM     10  F   UNL A   1     -31.320 -11.705  12.149  0.00  0.00    -0.166 F 
ENDBRANCH   4   7
BRANCH   2  11
ATOM     11  C   UNL A   1     -28.879 -13.356   7.907  0.00  0.00    +0.269 C 
ATOM     12  O   UNL A   1     -29.325 -13.219   7.022  0.00  0.00    -0.268 OA
ATOM     13  N   UNL A   1     -27.599 -12.660   8.034  0.00  0.00    -0.175 NA
BRANCH  13  14
ATOM     14  C   UNL A   1     -27.040 -11.935   6.938  0.00  0.00    +0.074 A 
ATOM     15  C   UNL A   1     -27.110 -10.739   7.068  0.00  0.00    +0.017 A 
ATOM     16  C   UNL A   1     -26.461  -9.869   6.347  0.00  0.00    +0.001 A 
ATOM     17  C   UNL A   1     -25.635 -10.395   5.260  0.00  0.00    +0.000 A 
ATOM     18  C   UNL A   1     -25.515 -11.756   5.148  0.00  0.00    +0.001 A 
ATOM     19  C   UNL A   1     -26.221 -12.579   6.051  0.00  0.00    +0.017 A 
ENDBRANCH  13  14
ENDBRANCH   2  11
BRANCH   1  20
ATOM     20  C   UNL A   1     -28.848 -16.102   8.457  0.00  0.00    +0.058 C 
BRANCH  20  21
ATOM     21  C   UNL A   1     -27.388 -16.067   8.135  0.00  0.00    +0.174 C 
BRANCH  21  22
ATOM     22  C   UNL A   1     -26.959 -16.253   6.772  0.00  0.00    +0.262 C 
ATOM     23  N   UNL A   1     -25.803 -16.209   6.519  0.00  0.00    -0.199 NA
ATOM     24  O   UNL A   1     -27.811 -16.625   5.854  0.00  0.00    -0.272 OA
BRANCH  23  25
ATOM     25  C   UNL A   1     -25.317 -16.411   5.100  0.00  0.00    +0.141 C 
BRANCH  25  26
ATOM     26  C   UNL A   1     -24.224 -15.536   4.901  0.00  0.00    -0.001 A 
ATOM     27  C   UNL A   1     -24.001 -15.022   3.673  0.00  0.00    -0.002 A 
ATOM     28  C   UNL A   1     -23.015 -14.167   3.454  0.00  0.00    +0.006 A 
ATOM     29  C   UNL A   1     -22.270 -13.568   4.534  0.00  0.00    +0.035 A 
ATOM     30  C   UNL A   1     -22.554 -14.028   5.816  0.00  0.00    +0.006 A 
ATOM     31  C   UNL A   1     -23.457 -14.946   5.949  0.00  0.00    -0.002 A 
ATOM     32 BR   UNL A   1     -20.963 -12.206   4.354  0.00  0.00    -0.049 Br
ENDBRANCH  25  26
ENDBRANCH  23  25
ENDBRANCH  21  22
BRANCH  21  33
ATOM     33  N   UNL A   1     -26.568 -16.878   9.093  0.00  0.00    -0.228 NA
BRANCH  33  34
ATOM     34  C   UNL A   1     -26.890 -18.208   9.294  0.00  0.00    +0.081 C 
ATOM     35  C   UNL A   1     -26.262 -19.092   8.896  0.00  0.00    +0.019 C 
ENDBRANCH  33  34
ENDBRANCH  21  33
ENDBRANCH  20  21
ENDBRANCH   1  20
TORSDOF 10
ENDMDL
ENDMDL
