REMARK  Name = outputs/IAG933/test6/raw/output_3732_IAG933_linker_design_.xyz
REMARK  13 active torsions:
REMARK  status: ('A' for Active; 'I' for Inactive)
REMARK    1  A    between atoms: C_1  and  C_2
REMARK    2  A    between atoms: C_1  and  C_8
REMARK    3  A    between atoms: C_1  and  C_29
REMARK    4  A    between atoms: C_13  and  C_35
REMARK    5  A    between atoms: C_14  and  C_15
REMARK    6  A    between atoms: C_21  and  O_22
REMARK    7  A    between atoms: O_22  and  C_23
REMARK    8  A    between atoms: C_23  and  C_24
REMARK    9  A    between atoms: C_29  and  C_31
REMARK   10  A    between atoms: C_29  and  C_45
REMARK   11  A    between atoms: C_31  and  C_32
REMARK   12  A    between atoms: C_32  and  C_47
REMARK   13  A    between atoms: C_37  and  C_47
REMARK                            x       y       z     vdW  Elec       q    Type
REMARK                         _______ _______ _______ _____ _____    ______ ____
ROOT
ATOM      1  C   UNL A   1     -24.981   0.040  29.062  0.00  0.00    +0.031 C 
ENDROOT
BRANCH   1   7
ATOM      2  O   UNL A   1     -22.087   0.118  29.664  0.00  0.00    -0.280 OA
ATOM      3  C   UNL A   1     -22.621   0.585  28.654  0.00  0.00    +0.217 C 
ATOM      4  C   UNL A   1     -23.068   2.104  26.748  0.00  0.00    +0.091 C 
ATOM      5  C   UNL A   1     -24.163   1.390  27.188  0.00  0.00    -0.009 C 
ATOM      6  S   UNL A   1     -21.741   1.669  27.597  0.00  0.00    -0.068 S 
ATOM      7  C   UNL A   1     -24.003   0.566  28.326  0.00  0.00    +0.020 C 
BRANCH   5   8
ATOM      8  C   UNL A   1     -25.688   1.614  26.461  0.00  0.00    +0.035 C 
ATOM      9  C   UNL A   1     -26.250   2.920  26.395  0.00  0.00    +0.076 C 
ATOM     10  C   UNL A   1     -27.438   3.091  25.645  0.00  0.00    +0.107 C 
ATOM     11  N   UNL A   1     -28.075   2.089  25.003  0.00  0.00    -0.208 NA
ATOM     12  C   UNL A   1     -27.543   0.849  25.079  0.00  0.00    +0.253 C 
ATOM     13  C   UNL A   1     -26.354   0.576  25.777  0.00  0.00    +0.193 C 
ATOM     14  F   UNL A   1     -25.860  -0.681  25.795  0.00  0.00    -0.199 F 
BRANCH   9  15
ATOM     15  C   UNL A   1     -25.642   4.093  27.123  0.00  0.00    +0.266 C 
ATOM     16  N   UNL A   1     -25.614   5.252  26.449  0.00  0.00    -0.200 NA
ATOM     17  C   UNL A   1     -25.026   6.479  26.963  0.00  0.00    +0.139 C 
ATOM     18  O   UNL A   1     -25.143   3.966  28.243  0.00  0.00    -0.268 OA
ENDBRANCH   9  15
BRANCH  12  19
ATOM     19  O   UNL A   1     -28.193  -0.208  24.477  0.00  0.00    -0.456 OA
BRANCH  19  20
ATOM     20  C   UNL A   1     -29.460   0.005  23.866  0.00  0.00    +0.243 C 
BRANCH  20  21
ATOM     21  C   UNL A   1     -30.065  -1.377  23.573  0.00  0.00    +0.229 C 
ATOM     22  O   UNL A   1     -30.729  -1.878  24.721  0.00  0.00    -0.216 OA
ENDBRANCH  20  21
ENDBRANCH  19  20
ENDBRANCH  12  19
ENDBRANCH   5   8
ENDBRANCH   1   7
BRANCH   1  23
ATOM     23  C   UNL A   1     -24.855  -1.012  30.143  0.00  0.00    +0.043 C 
BRANCH  23  24
ATOM     24  C   UNL A   1     -24.973  -2.505  29.788  0.00  0.00    -0.021 C 
ATOM     25  C   UNL A   1     -23.906  -3.173  29.146  0.00  0.00    -0.004 C 
ATOM     26  C   UNL A   1     -23.989  -4.549  28.853  0.00  0.00    -0.000 C 
ATOM     27  C   UNL A   1     -25.137  -5.280  29.205  0.00  0.00    -0.000 C 
ATOM     28  C   UNL A   1     -26.232  -4.611  29.784  0.00  0.00    -0.000 C 
ATOM     29  C   UNL A   1     -26.155  -3.232  30.065  0.00  0.00    -0.004 C 
ENDBRANCH  23  24
BRANCH  23  30
ATOM     30  C   UNL A   1     -25.387  -0.679  31.571  0.00  0.00    +0.077 C 
ATOM     31  C   UNL A   1     -25.189   0.773  32.028  0.00  0.00    +0.019 C 
ATOM     32  C   UNL A   1     -25.336   0.684  33.544  0.00  0.00    +0.020 C 
ATOM     33  C   UNL A   1     -24.829  -0.715  33.905  0.00  0.00    +0.089 C 
ATOM     34  N   UNL A   1     -24.758  -1.481  32.646  0.00  0.00    -0.219 NA
ENDBRANCH  23  30
ENDBRANCH   1  23
BRANCH   1  35
ATOM     35  C   UNL A   1     -26.439   0.593  28.883  0.00  0.00    +0.013 C 
BRANCH  35  36
ATOM     36  C   UNL A   1     -27.464  -0.608  28.557  0.00  0.00    +0.094 C 
BRANCH  36  39
ATOM     37  O   UNL A   1     -29.180  -1.647  29.907  0.00  0.00    -0.273 OA
ATOM     38  O   UNL A   1     -29.757  -0.681  28.079  0.00  0.00    -0.273 OA
ATOM     39  C   UNL A   1     -28.916  -0.460  29.101  0.00  0.00    +0.373 C 
BRANCH  39  42
ATOM     40  N   UNL A   1     -28.570   1.843  30.446  0.00  0.00    -0.227 NA
ATOM     41  C   UNL A   1     -29.594   2.153  28.987  0.00  0.00    +0.020 C 
ATOM     42  C   UNL A   1     -29.402   0.876  29.779  0.00  0.00    +0.200 C 
ATOM     43  C   UNL A   1     -28.879   2.651  29.847  0.00  0.00    +0.064 C 
ATOM     44  C   UNL A   1     -30.167   3.019  27.937  0.00  0.00    -0.001 C 
ATOM     45  C   UNL A   1     -28.841   4.876  28.809  0.00  0.00    +0.001 C 
ATOM     46  C   UNL A   1     -28.422   4.044  29.835  0.00  0.00    +0.016 C 
ATOM     47  C   UNL A   1     -29.818   4.382  27.923  0.00  0.00    -0.000 C 
ENDBRANCH  39  42
ENDBRANCH  36  39
ENDBRANCH  35  36
ENDBRANCH   1  35
TORSDOF 13
