MODEL 3733
MODEL 1
REMARK VINA RESULT:    -4.218      0.000      0.000
REMARK INTER + INTRA:          -4.218
REMARK INTER:                  -4.218
REMARK INTRA:                   0.000
REMARK UNBOUND:                 0.000
REMARK  Name = No_3733-gen_results/8p0m/2024-11-27-11-27-31/
REMARK  0 active torsions:
REMARK  status: ('A' for Active; 'I' for Inactive)
REMARK                            x       y       z     vdW  Elec       q    Type
REMARK                         _______ _______ _______ _____ _____    ______ ____
ROOT
ATOM      1  C   UNL A   1     -25.091  -5.288  29.109  0.00  0.00    +0.000 A 
ATOM      2  C   UNL A   1     -26.085  -4.812  29.606  0.00  0.00    +0.000 A 
ATOM      3  C   UNL A   1     -26.219  -3.472  29.914  0.00  0.00    +0.000 A 
ATOM      4  C   UNL A   1     -25.140  -2.602  29.591  0.00  0.00    +0.000 A 
ATOM      5  C   UNL A   1     -24.124  -3.151  28.884  0.00  0.00    +0.000 A 
ATOM      6  C   UNL A   1     -24.099  -4.439  28.597  0.00  0.00    +0.000 A 
ENDROOT
TORSDOF 0
ENDMDL
ENDMDL
