REMARK  Name = outputs/IAG933/test6/raw/output_3733_IAG933_linker_design_.xyz
REMARK  13 active torsions:
REMARK  status: ('A' for Active; 'I' for Inactive)
REMARK    1  A    between atoms: C_1  and  C_2
REMARK    2  A    between atoms: C_1  and  C_8
REMARK    3  A    between atoms: C_1  and  N_42
REMARK    4  A    between atoms: C_13  and  C_41
REMARK    5  A    between atoms: C_14  and  C_15
REMARK    6  A    between atoms: C_21  and  O_22
REMARK    7  A    between atoms: O_22  and  C_23
REMARK    8  A    between atoms: C_23  and  C_24
REMARK    9  A    between atoms: N_30  and  C_45
REMARK   10  A    between atoms: C_31  and  O_44
REMARK   11  A    between atoms: C_32  and  C_38
REMARK   12  A    between atoms: C_41  and  C_46
REMARK   13  A    between atoms: N_42  and  C_45
REMARK                            x       y       z     vdW  Elec       q    Type
REMARK                         _______ _______ _______ _____ _____    ______ ____
ROOT
ATOM      1  C   UNL A   1     -21.798   1.241  27.100  0.00  0.00    +0.182 C 
ATOM      2  C   UNL A   1     -21.515   0.029  29.340  0.00  0.00    +0.003 C 
ATOM      3  C   UNL A   1     -23.576   0.886  28.638  0.00  0.00    +0.053 C 
ATOM      4  C   UNL A   1     -20.970   0.625  28.056  0.00  0.00    +0.041 C 
ATOM      5  C   UNL A   1     -22.776   0.209  29.546  0.00  0.00    +0.004 C 
ATOM      6  C   UNL A   1     -23.308   1.281  27.334  0.00  0.00    +0.021 C 
ENDROOT
BRANCH   3   7
ATOM      7  C   UNL A   1     -24.949   1.101  29.182  0.00  0.00    +0.250 C 
ATOM      8  O   UNL A   1     -25.031   2.050  29.981  0.00  0.00    -0.270 OA
ATOM      9  N   UNL A   1     -25.626  -0.088  29.248  0.00  0.00    -0.258 N 
BRANCH   9  10
ATOM     10  C   UNL A   1     -24.855  -1.012  30.143  0.00  0.00    +0.115 C 
BRANCH  10  11
ATOM     11  C   UNL A   1     -24.973  -2.505  29.788  0.00  0.00    -0.003 C 
ATOM     12  C   UNL A   1     -23.906  -3.173  29.146  0.00  0.00    -0.003 C 
ATOM     13  C   UNL A   1     -23.989  -4.549  28.853  0.00  0.00    -0.000 C 
ATOM     14  C   UNL A   1     -25.137  -5.280  29.205  0.00  0.00    -0.000 C 
ATOM     15  C   UNL A   1     -26.232  -4.611  29.784  0.00  0.00    -0.000 C 
ATOM     16  C   UNL A   1     -26.155  -3.232  30.065  0.00  0.00    -0.003 C 
ENDBRANCH  10  11
BRANCH  10  17
ATOM     17  C   UNL A   1     -25.387  -0.679  31.571  0.00  0.00    +0.095 C 
ATOM     18  C   UNL A   1     -25.189   0.773  32.028  0.00  0.00    +0.021 C 
ATOM     19  C   UNL A   1     -25.336   0.684  33.544  0.00  0.00    +0.020 C 
ATOM     20  C   UNL A   1     -24.829  -0.715  33.905  0.00  0.00    +0.089 C 
ATOM     21  N   UNL A   1     -24.758  -1.481  32.646  0.00  0.00    -0.217 NA
ENDBRANCH  10  17
ENDBRANCH   9  10
BRANCH   9  22
ATOM     22  C   UNL A   1     -27.040  -0.339  28.767  0.00  0.00    +0.172 C 
BRANCH  22  25
ATOM     23  C   UNL A   1     -28.667   3.093  29.372  0.00  0.00    +0.160 C 
ATOM     24  C   UNL A   1     -29.037   0.660  28.093  0.00  0.00    +0.106 C 
ATOM     25  N   UNL A   1     -28.045   0.710  29.189  0.00  0.00    -0.251 NA
ATOM     26  C   UNL A   1     -30.273   1.460  28.534  0.00  0.00    +0.160 C 
ATOM     27  O   UNL A   1     -29.925   2.415  29.574  0.00  0.00    -0.351 OA
ATOM     28  C   UNL A   1     -27.665   2.046  29.773  0.00  0.00    +0.106 C 
ENDBRANCH  22  25
ENDBRANCH   9  22
ENDBRANCH   3   7
BRANCH   1  30
ATOM     29  O   UNL A   1     -22.451   2.095  25.292  0.00  0.00    +0.028 OA
ATOM     30  O   UNL A   1     -21.359   1.547  26.092  0.00  0.00    -0.303 OA
ENDBRANCH   1  30
BRANCH   6  31
ATOM     31  C   UNL A   1     -24.244   1.494  26.447  0.00  0.00    +0.037 C 
BRANCH  31  32
ATOM     32  C   UNL A   1     -25.688   1.614  26.461  0.00  0.00    +0.075 C 
ATOM     33  C   UNL A   1     -26.250   2.920  26.395  0.00  0.00    +0.055 C 
ATOM     34  C   UNL A   1     -27.438   3.091  25.645  0.00  0.00    +0.102 C 
ATOM     35  N   UNL A   1     -28.075   2.089  25.003  0.00  0.00    -0.212 NA
ATOM     36  C   UNL A   1     -27.543   0.849  25.079  0.00  0.00    +0.234 C 
ATOM     37  C   UNL A   1     -26.354   0.576  25.777  0.00  0.00    +0.240 C 
ATOM     38  F   UNL A   1     -25.860  -0.681  25.795  0.00  0.00    -0.227 F 
BRANCH  33  39
ATOM     39  C   UNL A   1     -25.642   4.093  27.123  0.00  0.00    +0.262 C 
ATOM     40  N   UNL A   1     -25.614   5.252  26.449  0.00  0.00    -0.200 NA
ATOM     41  C   UNL A   1     -25.026   6.479  26.963  0.00  0.00    +0.139 C 
ATOM     42  O   UNL A   1     -25.143   3.966  28.243  0.00  0.00    -0.269 OA
ENDBRANCH  33  39
BRANCH  36  43
ATOM     43  O   UNL A   1     -28.193  -0.208  24.477  0.00  0.00    -0.459 OA
BRANCH  43  44
ATOM     44  C   UNL A   1     -29.460   0.005  23.866  0.00  0.00    +0.242 C 
BRANCH  44  45
ATOM     45  C   UNL A   1     -30.065  -1.377  23.573  0.00  0.00    +0.229 C 
ATOM     46  O   UNL A   1     -30.729  -1.878  24.721  0.00  0.00    -0.216 OA
ENDBRANCH  44  45
ENDBRANCH  43  44
ENDBRANCH  36  43
ENDBRANCH  31  32
ENDBRANCH   6  31
TORSDOF 13
