MODEL 3734
MODEL 1
REMARK VINA RESULT:    -8.117      0.000      0.000
REMARK INTER + INTRA:         -11.343
REMARK INTER:                 -10.015
REMARK INTRA:                  -1.328
REMARK UNBOUND:                -1.328
REMARK  Name = No_3734-gen_results/8p0m/2024-11-27-11-27-31/
REMARK  4 active torsions:
REMARK  status: ('A' for Active; 'I' for Inactive)
REMARK    1  A    between atoms: C_2  and  C_13
REMARK    2  A    between atoms: C_4  and  C_7
REMARK    3  A    between atoms: N_14  and  C_15
REMARK    4  A    between atoms: C_19  and  C_22
REMARK                            x       y       z     vdW  Elec       q    Type
REMARK                         _______ _______ _______ _____ _____    ______ ____
ROOT
ATOM      1  C   UNL A   1     -24.968   2.296  26.434  0.00  0.00    +0.269 C 
ATOM      2  N   UNL A   1     -25.021   1.954  27.606  0.00  0.00    -0.175 NA
ATOM      3  O   UNL A   1     -23.922   2.572  25.842  0.00  0.00    -0.268 OA
ENDROOT
BRANCH   1   5
ATOM      4  C   UNL A   1     -26.975   3.283  25.948  0.00  0.00    +0.005 A 
ATOM      5  C   UNL A   1     -26.429   2.406  25.740  0.00  0.00    +0.055 A 
ATOM      6  C   UNL A   1     -28.321   3.388  25.265  0.00  0.00    +0.000 A 
ATOM      7  C   UNL A   1     -28.813   2.286  24.534  0.00  0.00    +0.000 A 
ATOM      8  C   UNL A   1     -26.717   1.123  25.060  0.00  0.00    +0.005 A 
ATOM      9  C   UNL A   1     -27.950   1.180  24.424  0.00  0.00    +0.000 A 
BRANCH   7  10
ATOM     10  C   UNL A   1     -30.063   2.335  23.856  0.00  0.00    +0.000 A 
ATOM     11  C   UNL A   1     -30.289   1.895  22.865  0.00  0.00    +0.000 A 
ATOM     12  C   UNL A   1     -31.561   1.972  22.052  0.00  0.00    +0.000 A 
ATOM     13  C   UNL A   1     -32.510   2.678  22.684  0.00  0.00    +0.000 A 
ATOM     14  C   UNL A   1     -31.124   3.085  24.585  0.00  0.00    +0.000 A 
ATOM     15  C   UNL A   1     -32.325   3.252  23.938  0.00  0.00    +0.000 A 
ENDBRANCH   7  10
ENDBRANCH   1   5
BRANCH   2  16
ATOM     16  C   UNL A   1     -24.176   1.009  28.180  0.00  0.00    +0.074 A 
ATOM     17  C   UNL A   1     -23.258   1.351  29.207  0.00  0.00    +0.017 A 
ATOM     18  C   UNL A   1     -22.928   0.626  30.077  0.00  0.00    +0.001 A 
ATOM     19  C   UNL A   1     -23.257  -0.844  30.107  0.00  0.00    +0.000 A 
ATOM     20  C   UNL A   1     -24.182  -1.217  29.111  0.00  0.00    +0.001 A 
ATOM     21  C   UNL A   1     -24.751  -0.261  28.265  0.00  0.00    +0.017 A 
BRANCH  20  22
ATOM     22  C   UNL A   1     -24.633  -2.637  29.199  0.00  0.00    +0.000 A 
ATOM     23  C   UNL A   1     -23.866  -3.464  28.696  0.00  0.00    +0.000 A 
ATOM     24  C   UNL A   1     -24.234  -4.873  28.647  0.00  0.00    +0.000 A 
ATOM     25  C   UNL A   1     -25.482  -5.203  29.188  0.00  0.00    +0.000 A 
ATOM     26  C   UNL A   1     -26.336  -4.253  29.698  0.00  0.00    +0.000 A 
ATOM     27  C   UNL A   1     -25.931  -2.906  29.648  0.00  0.00    +0.000 A 
ENDBRANCH  20  22
ENDBRANCH   2  16
TORSDOF 4
ENDMDL
ENDMDL
