MODEL 3735
MODEL 1
REMARK VINA RESULT:    -6.365      0.000      0.000
REMARK INTER + INTRA:          -6.818
REMARK INTER:                  -6.737
REMARK INTRA:                  -0.081
REMARK UNBOUND:                -0.081
REMARK  Name = No_3735-gen_results/8p0m/2024-11-27-11-27-31/
REMARK  1 active torsions:
REMARK  status: ('A' for Active; 'I' for Inactive)
REMARK    1  A    between atoms: C_9  and  C_11
REMARK                            x       y       z     vdW  Elec       q    Type
REMARK                         _______ _______ _______ _____ _____    ______ ____
ROOT
ATOM      1  C   UNL A   1     -30.700  -9.808  29.656  0.00  0.00    +0.000 A 
ATOM      2  C   UNL A   1     -30.576 -10.151  28.667  0.00  0.00    +0.000 A 
ATOM      3  C   UNL A   1     -30.005 -10.488  30.680  0.00  0.00    +0.000 A 
ATOM      4  C   UNL A   1     -29.983 -10.069  32.106  0.00  0.00    +0.000 A 
ATOM      5  C   UNL A   1     -29.790 -11.269  28.116  0.00  0.00    +0.000 A 
ATOM      6  C   UNL A   1     -29.077 -11.990  29.074  0.00  0.00    +0.000 A 
ATOM      7  C   UNL A   1     -29.126 -11.595  30.373  0.00  0.00    +0.000 A 
ATOM      8  C   UNL A   1     -29.269 -10.197  32.977  0.00  0.00    +0.005 A 
ATOM      9  C   UNL A   1     -28.142 -11.199  32.669  0.00  0.00    +0.057 A 
ATOM     10  C   UNL A   1     -28.108 -11.860  31.418  0.00  0.00    +0.005 A 
ENDROOT
BRANCH   9  11
ATOM     11  C   UNL A   1     -27.201 -11.592  33.791  0.00  0.00    +0.284 C 
ATOM     12  N   UNL A   1     -26.922 -10.806  34.553  0.00  0.00    -0.084 NA
ATOM     13  O   UNL A   1     -26.743 -12.761  33.799  0.00  0.00    -0.267 OA
ENDBRANCH   9  11
TORSDOF 1
ENDMDL
ENDMDL
