REMARK  Name = No_3735-gen_results/8p0m/2024-11-27-11-27-31/
REMARK  1 active torsions:
REMARK  status: ('A' for Active; 'I' for Inactive)
REMARK    1  A    between atoms: C_9  and  C_11
REMARK                            x       y       z     vdW  Elec       q    Type
REMARK                         _______ _______ _______ _____ _____    ______ ____
ROOT
ATOM      1  C   UNL A   1     -28.016  -0.814  28.878  0.00  0.00    +0.000 A 
ATOM      2  C   UNL A   1     -28.469  -0.785  29.829  0.00  0.00    +0.000 A 
ATOM      3  C   UNL A   1     -27.136   0.236  28.535  0.00  0.00    +0.000 A 
ATOM      4  C   UNL A   1     -26.335   0.290  27.284  0.00  0.00    +0.000 A 
ATOM      5  C   UNL A   1     -28.369   0.196  30.924  0.00  0.00    +0.000 A 
ATOM      6  C   UNL A   1     -27.516   1.266  30.654  0.00  0.00    +0.000 A 
ATOM      7  C   UNL A   1     -26.841   1.294  29.476  0.00  0.00    +0.000 A 
ATOM      8  C   UNL A   1     -25.361   0.775  26.967  0.00  0.00    +0.005 A 
ATOM      9  C   UNL A   1     -24.830   1.767  28.017  0.00  0.00    +0.057 A 
ATOM     10  C   UNL A   1     -25.567   2.002  29.202  0.00  0.00    +0.005 A 
ENDROOT
BRANCH   9  11
ATOM     11  C   UNL A   1     -23.619   2.609  27.665  0.00  0.00    +0.284 C 
ATOM     12  N   UNL A   1     -22.914   2.904  28.497  0.00  0.00    -0.084 NA
ATOM     13  O   UNL A   1     -23.477   2.974  26.472  0.00  0.00    -0.267 OA
ENDBRANCH   9  11
TORSDOF 1
