REMARK  Name = No_3736-gen_results/8p0m/2024-11-27-11-27-31/
REMARK  3 active torsions:
REMARK  status: ('A' for Active; 'I' for Inactive)
REMARK    1  A    between atoms: C_3  and  C_13
REMARK    2  A    between atoms: C_14  and  C_15
REMARK    3  A    between atoms: C_16  and  C_17
REMARK                            x       y       z     vdW  Elec       q    Type
REMARK                         _______ _______ _______ _____ _____    ______ ____
ROOT
ATOM      1  O   UNL A   1     -28.123  -1.335  28.487  0.00  0.00    -0.273 OA
ATOM      2  C   UNL A   1     -27.481  -0.404  28.709  0.00  0.00    +0.251 C 
ATOM      3  C   UNL A   1     -27.190   0.246  29.527  0.00  0.00    +0.105 C 
ATOM      4  N   UNL A   1     -26.602  -0.158  27.552  0.00  0.00    -0.160 NA
ATOM      5  C   UNL A   1     -25.642   0.903  27.582  0.00  0.00    +0.155 A 
ATOM      6  C   UNL A   1     -25.500   1.614  28.737  0.00  0.00    +0.031 A 
ATOM      7  C   UNL A   1     -26.267   1.289  29.809  0.00  0.00    +0.044 C 
ATOM      8  N   UNL A   1     -24.885   1.149  26.488  0.00  0.00    -0.195 NA
ATOM      9  C   UNL A   1     -23.889   2.136  26.660  0.00  0.00    +0.258 A 
ATOM     10  N   UNL A   1     -23.678   2.795  27.713  0.00  0.00    -0.210 NA
ATOM     11  C   UNL A   1     -24.411   2.598  28.750  0.00  0.00    +0.101 A 
ATOM     12  N   UNL A   1     -23.105   2.387  25.545  0.00  0.00    -0.086 NA
ENDROOT
BRANCH   3  13
ATOM     13  C   UNL A   1     -28.066  -0.033  30.894  0.00  0.00    -0.017 C 
ATOM     14  C   UNL A   1     -27.730   0.083  31.934  0.00  0.00    -0.004 C 
BRANCH  14  15
ATOM     15  C   UNL A   1     -27.678   0.191  32.938  0.00  0.00    -0.003 C 
ATOM     16  C   UNL A   1     -27.221   0.550  34.259  0.00  0.00    -0.006 C 
BRANCH  16  17
ATOM     17  C   UNL A   1     -26.770   0.575  35.304  0.00  0.00    +0.135 C 
ATOM     18  N   UNL A   1     -26.850   1.776  35.640  0.00  0.00    -0.126 NA
ENDBRANCH  16  17
ENDBRANCH  14  15
ENDBRANCH   3  13
TORSDOF 3
