MODEL 3736
MODEL 1
REMARK VINA RESULT:    -6.705      0.000      0.000
REMARK INTER + INTRA:          -8.249
REMARK INTER:                  -7.881
REMARK INTRA:                  -0.368
REMARK UNBOUND:                -0.368
REMARK  Name = No_3736-gen_results/8p0m/2024-11-27-11-27-31/
REMARK  3 active torsions:
REMARK  status: ('A' for Active; 'I' for Inactive)
REMARK    1  A    between atoms: C_3  and  C_13
REMARK    2  A    between atoms: C_14  and  C_15
REMARK    3  A    between atoms: C_16  and  C_17
REMARK                            x       y       z     vdW  Elec       q    Type
REMARK                         _______ _______ _______ _____ _____    ______ ____
ROOT
ATOM      1  O   UNL A   1     -26.697 -12.753  33.395  0.00  0.00    -0.273 OA
ATOM      2  C   UNL A   1     -27.247 -11.740  33.365  0.00  0.00    +0.251 C 
ATOM      3  C   UNL A   1     -28.068 -11.239  32.865  0.00  0.00    +0.105 C 
ATOM      4  N   UNL A   1     -26.841 -10.955  34.544  0.00  0.00    -0.160 NA
ATOM      5  C   UNL A   1     -27.424  -9.674  34.800  0.00  0.00    +0.155 A 
ATOM      6  C   UNL A   1     -28.426  -9.245  33.980  0.00  0.00    +0.031 A 
ATOM      7  C   UNL A   1     -28.832 -10.045  32.961  0.00  0.00    +0.044 C 
ATOM      8  N   UNL A   1     -26.996  -8.944  35.855  0.00  0.00    -0.195 NA
ATOM      9  C   UNL A   1     -27.716  -7.751  36.089  0.00  0.00    +0.258 A 
ATOM     10  N   UNL A   1     -28.678  -7.323  35.396  0.00  0.00    -0.210 NA
ATOM     11  C   UNL A   1     -29.074  -7.987  34.370  0.00  0.00    +0.101 A 
ATOM     12  N   UNL A   1     -27.287  -7.002  37.173  0.00  0.00    -0.086 NA
ENDROOT
BRANCH   3  13
ATOM     13  C   UNL A   1     -28.645 -12.102  31.585  0.00  0.00    -0.017 C 
ATOM     14  C   UNL A   1     -28.833 -11.736  30.567  0.00  0.00    -0.004 C 
BRANCH  14  15
ATOM     15  C   UNL A   1     -29.000 -11.653  29.573  0.00  0.00    -0.003 C 
ATOM     16  C   UNL A   1     -29.199 -11.981  28.182  0.00  0.00    -0.006 C 
BRANCH  16  17
ATOM     17  C   UNL A   1     -29.090 -12.175  27.065  0.00  0.00    +0.135 C 
ATOM     18  N   UNL A   1     -29.759 -11.264  26.533  0.00  0.00    -0.126 NA
ENDBRANCH  16  17
ENDBRANCH  14  15
ENDBRANCH   3  13
TORSDOF 3
ENDMDL
ENDMDL
