MODEL 3737
MODEL 1
REMARK VINA RESULT:    -4.983      0.000      0.000
REMARK INTER + INTRA:          -5.432
REMARK INTER:                  -5.275
REMARK INTRA:                  -0.158
REMARK UNBOUND:                -0.158
REMARK  Name = No_3737-gen_results/8p0m/2024-11-27-11-27-31/
REMARK  1 active torsions:
REMARK  status: ('A' for Active; 'I' for Inactive)
REMARK    1  A    between atoms: C_5  and  C_8
REMARK                            x       y       z     vdW  Elec       q    Type
REMARK                         _______ _______ _______ _____ _____    ______ ____
ROOT
ATOM      1 CL   UNL A   1     -24.147  -2.993  29.593  0.00  0.00    -0.082 Cl
ATOM      2  C   UNL A   1     -23.779  -1.854  28.944  0.00  0.00    +0.058 A 
ATOM      3  C   UNL A   1     -22.661  -1.256  29.204  0.00  0.00    +0.011 A 
ATOM      4  C   UNL A   1     -22.239   0.026  28.638  0.00  0.00    +0.005 A 
ATOM      5  C   UNL A   1     -23.140   0.659  27.748  0.00  0.00    +0.071 A 
ATOM      6  C   UNL A   1     -24.368   0.045  27.531  0.00  0.00    +0.005 A 
ATOM      7  C   UNL A   1     -24.721  -1.126  28.124  0.00  0.00    +0.011 A 
ENDROOT
BRANCH   5   8
ATOM      8  C   UNL A   1     -22.790   1.950  27.156  0.00  0.00    +0.419 C 
ATOM      9  F   UNL A   1     -23.359   2.917  27.547  0.00  0.00    -0.166 F 
ATOM     10  F   UNL A   1     -21.445   2.142  27.432  0.00  0.00    -0.166 F 
ATOM     11  F   UNL A   1     -22.776   1.744  25.792  0.00  0.00    -0.166 F 
ENDBRANCH   5   8
TORSDOF 1
ENDMDL
ENDMDL
