MODEL 3738
MODEL 1
REMARK VINA RESULT:    -8.065      0.000      0.000
REMARK INTER + INTRA:         -10.397
REMARK INTER:                  -9.479
REMARK INTRA:                  -0.918
REMARK UNBOUND:                -0.918
REMARK  Name = No_3738-gen_results/8p0m/2024-11-27-11-27-31/
REMARK  3 active torsions:
REMARK  status: ('A' for Active; 'I' for Inactive)
REMARK    1  A    between atoms: C_1  and  C_23
REMARK    2  A    between atoms: C_3  and  C_10
REMARK    3  A    between atoms: C_5  and  C_7
REMARK                            x       y       z     vdW  Elec       q    Type
REMARK                         _______ _______ _______ _____ _____    ______ ____
ROOT
ATOM      1  C   UNL A   1     -25.545   0.178  26.394  0.00  0.00    +0.055 A 
ATOM      2  C   UNL A   1     -26.201  -0.173  27.347  0.00  0.00    +0.005 A 
ATOM      3  C   UNL A   1     -25.737  -0.253  28.649  0.00  0.00    +0.000 A 
ATOM      4  C   UNL A   1     -24.385   0.139  28.880  0.00  0.00    +0.007 A 
ATOM      5  C   UNL A   1     -23.729   0.674  27.838  0.00  0.00    +0.080 A 
ATOM      6  C   UNL A   1     -24.264   0.751  26.653  0.00  0.00    +0.011 A 
ENDROOT
BRANCH   3   7
ATOM      7  C   UNL A   1     -26.561  -0.894  29.761  0.00  0.00    +0.002 A 
ATOM      8  C   UNL A   1     -26.220  -2.279  30.065  0.00  0.00    +0.019 A 
ATOM      9  C   UNL A   1     -25.632  -2.940  29.556  0.00  0.00    +0.019 A 
ATOM     10  C   UNL A   1     -24.598  -2.954  29.162  0.00  0.00    +0.002 A 
ATOM     11  C   UNL A   1     -23.813  -3.690  28.821  0.00  0.00    +0.000 A 
ATOM     12  C   UNL A   1     -24.218  -5.109  28.664  0.00  0.00    +0.002 A 
ATOM     13  C   UNL A   1     -25.451  -5.473  29.071  0.00  0.00    +0.019 A 
ATOM     14  C   UNL A   1     -26.189  -4.495  29.659  0.00  0.00    +0.081 A 
ATOM     15  C   UNL A   1     -27.564  -2.901  30.493  0.00  0.00    +0.081 A 
ATOM     16  N   UNL A   1     -27.389  -4.375  30.174  0.00  0.00    -0.245 NA
ATOM     17  C   UNL A   1     -27.331  -0.123  30.542  0.00  0.00    +0.000 A 
ATOM     18  C   UNL A   1     -28.620  -2.312  31.049  0.00  0.00    +0.019 A 
ATOM     19  C   UNL A   1     -28.560  -0.887  31.064  0.00  0.00    +0.002 A 
ENDBRANCH   3   7
BRANCH   1  20
ATOM     20  C   UNL A   1     -26.100   0.349  25.010  0.00  0.00    +0.265 C 
ATOM     21  N   UNL A   1     -27.229   0.596  24.638  0.00  0.00    -0.200 NA
ATOM     22  O   UNL A   1     -25.174   0.196  24.100  0.00  0.00    -0.268 OA
ATOM     23  C   UNL A   1     -27.772   0.992  23.717  0.00  0.00    +0.139 C 
ENDBRANCH   1  20
BRANCH   5  24
ATOM     24  C   UNL A   1     -22.338   1.100  28.129  0.00  0.00    +0.388 C 
ATOM     25  O   UNL A   1     -21.487   0.371  28.573  0.00  0.00    -0.241 OA
ATOM     26  O   UNL A   1     -21.941   2.281  27.683  0.00  0.00    -0.241 OA
ENDBRANCH   5  24
TORSDOF 3
ENDMDL
ENDMDL
