REMARK  Name = outputs/IAG933/test6/raw/output_3738_IAG933_linker_design_.xyz
REMARK  14 active torsions:
REMARK  status: ('A' for Active; 'I' for Inactive)
REMARK    1  A    between atoms: C_1  and  C_2
REMARK    2  A    between atoms: C_1  and  C_8
REMARK    3  A    between atoms: C_9  and  C_40
REMARK    4  A    between atoms: C_13  and  C_29
REMARK    5  A    between atoms: C_14  and  C_15
REMARK    6  A    between atoms: C_21  and  O_22
REMARK    7  A    between atoms: O_22  and  C_23
REMARK    8  A    between atoms: C_23  and  C_24
REMARK    9  A    between atoms: C_29  and  C_44
REMARK   10  A    between atoms: C_32  and  N_38
REMARK   11  A    between atoms: C_33  and  C_44
REMARK   12  A    between atoms: C_37  and  C_41
REMARK   13  A    between atoms: C_40  and  C_41
REMARK   14  A    between atoms: C_40  and  C_43
REMARK                            x       y       z     vdW  Elec       q    Type
REMARK                         _______ _______ _______ _____ _____    ______ ____
ROOT
ATOM      1  C   UNL A   1     -25.655   2.138  31.448  0.00  0.00    +0.040 C 
ENDROOT
BRANCH   1   3
ATOM      2  C   UNL A   1     -25.387  -0.679  31.571  0.00  0.00    +0.077 C 
ATOM      3  C   UNL A   1     -25.189   0.773  32.028  0.00  0.00    +0.023 C 
ATOM      4  C   UNL A   1     -25.336   0.684  33.544  0.00  0.00    +0.021 C 
ATOM      5  C   UNL A   1     -24.829  -0.715  33.905  0.00  0.00    +0.089 C 
ATOM      6  N   UNL A   1     -24.758  -1.481  32.646  0.00  0.00    -0.219 NA
BRANCH   2   7
ATOM      7  C   UNL A   1     -24.855  -1.012  30.143  0.00  0.00    +0.044 C 
BRANCH   7   8
ATOM      8  C   UNL A   1     -24.973  -2.505  29.788  0.00  0.00    -0.021 C 
ATOM      9  C   UNL A   1     -23.906  -3.173  29.146  0.00  0.00    -0.004 C 
ATOM     10  C   UNL A   1     -23.989  -4.549  28.853  0.00  0.00    -0.000 C 
ATOM     11  C   UNL A   1     -25.137  -5.280  29.205  0.00  0.00    -0.000 C 
ATOM     12  C   UNL A   1     -26.232  -4.611  29.784  0.00  0.00    -0.000 C 
ATOM     13  C   UNL A   1     -26.155  -3.232  30.065  0.00  0.00    -0.004 C 
ENDBRANCH   7   8
ENDBRANCH   2   7
ENDBRANCH   1   3
BRANCH   1  16
ATOM     14  C   UNL A   1     -22.858   1.524  28.440  0.00  0.00    +0.207 C 
ATOM     15  O   UNL A   1     -21.791   0.827  28.462  0.00  0.00    -0.283 OA
ATOM     16  C   UNL A   1     -25.225   2.092  29.963  0.00  0.00    +0.018 C 
ATOM     17  C   UNL A   1     -24.043   1.846  29.472  0.00  0.00    -0.069 C 
BRANCH  14  19
ATOM     18  C   UNL A   1     -22.084   2.154  26.237  0.00  0.00    +0.009 C 
ATOM     19  C   UNL A   1     -23.235   2.173  27.181  0.00  0.00    +0.070 C 
BRANCH  19  20
ATOM     20  C   UNL A   1     -24.243   1.258  26.558  0.00  0.00    +0.016 C 
BRANCH  20  21
ATOM     21  C   UNL A   1     -25.688   1.614  26.461  0.00  0.00    +0.071 C 
ATOM     22  C   UNL A   1     -26.250   2.920  26.395  0.00  0.00    +0.055 C 
ATOM     23  C   UNL A   1     -27.438   3.091  25.645  0.00  0.00    +0.102 C 
ATOM     24  N   UNL A   1     -28.075   2.089  25.003  0.00  0.00    -0.212 NA
ATOM     25  C   UNL A   1     -27.543   0.849  25.079  0.00  0.00    +0.234 C 
ATOM     26  C   UNL A   1     -26.354   0.576  25.777  0.00  0.00    +0.240 C 
ATOM     27  F   UNL A   1     -25.860  -0.681  25.795  0.00  0.00    -0.227 F 
BRANCH  22  28
ATOM     28  C   UNL A   1     -25.642   4.093  27.123  0.00  0.00    +0.262 C 
ATOM     29  N   UNL A   1     -25.614   5.252  26.449  0.00  0.00    -0.200 NA
ATOM     30  C   UNL A   1     -25.026   6.479  26.963  0.00  0.00    +0.139 C 
ATOM     31  O   UNL A   1     -25.143   3.966  28.243  0.00  0.00    -0.269 OA
ENDBRANCH  22  28
BRANCH  25  32
ATOM     32  O   UNL A   1     -28.193  -0.208  24.477  0.00  0.00    -0.459 OA
BRANCH  32  33
ATOM     33  C   UNL A   1     -29.460   0.005  23.866  0.00  0.00    +0.242 C 
BRANCH  33  34
ATOM     34  C   UNL A   1     -30.065  -1.377  23.573  0.00  0.00    +0.229 C 
ATOM     35  O   UNL A   1     -30.729  -1.878  24.721  0.00  0.00    -0.216 OA
ENDBRANCH  33  34
ENDBRANCH  32  33
ENDBRANCH  25  32
ENDBRANCH  20  21
ENDBRANCH  19  20
ENDBRANCH  14  19
ENDBRANCH   1  16
BRANCH   1  36
ATOM     36  C   UNL A   1     -24.968   3.356  32.145  0.00  0.00    +0.092 C 
BRANCH  36  38
ATOM     37  O   UNL A   1     -25.248   5.281  33.482  0.00  0.00    -0.273 OA
ATOM     38  C   UNL A   1     -25.593   4.748  32.392  0.00  0.00    +0.242 C 
ATOM     39  N   UNL A   1     -26.345   5.204  31.492  0.00  0.00    -0.207 NA
BRANCH  39  42
ATOM     40  C   UNL A   1     -27.741   5.737  28.743  0.00  0.00    +0.144 C 
ATOM     41  O   UNL A   1     -29.082   5.292  28.886  0.00  0.00    -0.354 OA
ATOM     42  C   UNL A   1     -27.578   6.019  31.153  0.00  0.00    +0.100 C 
ATOM     43  C   UNL A   1     -29.234   4.486  30.075  0.00  0.00    +0.144 C 
ATOM     44  C   UNL A   1     -28.934   5.331  31.297  0.00  0.00    +0.054 C 
ATOM     45  C   UNL A   1     -27.463   6.597  29.867  0.00  0.00    +0.054 C 
ENDBRANCH  39  42
ENDBRANCH  36  38
ENDBRANCH   1  36
TORSDOF 14
