REMARK  Name = No_3739-gen_results/8p0m/2024-11-27-11-27-31/
REMARK  5 active torsions:
REMARK  status: ('A' for Active; 'I' for Inactive)
REMARK    1  A    between atoms: C_3  and  C_7
REMARK    2  A    between atoms: C_9  and  C_10
REMARK    3  A    between atoms: C_14  and  C_20
REMARK    4  A    between atoms: C_17  and  C_23
REMARK    5  A    between atoms: C_23  and  N_24
REMARK                            x       y       z     vdW  Elec       q    Type
REMARK                         _______ _______ _______ _____ _____    ______ ____
ROOT
ATOM      1  C   UNL A   1     -26.317   0.399  27.365  0.00  0.00    +0.053 C 
ATOM      2  C   UNL A   1     -24.941   0.255  27.503  0.00  0.00    -0.020 C 
ATOM      3  C   UNL A   1     -26.913   0.586  26.140  0.00  0.00    +0.060 C 
ATOM      4  C   UNL A   1     -26.035   0.678  25.015  0.00  0.00    +0.020 C 
ATOM      5  C   UNL A   1     -24.080   1.279  27.214  0.00  0.00    +0.043 C 
ATOM      6  C   UNL A   1     -23.941   1.730  25.803  0.00  0.00    +0.042 C 
ATOM      7  C   UNL A   1     -24.671   1.412  24.882  0.00  0.00    -0.105 C 
ENDROOT
BRANCH   1  10
ATOM      8  C   UNL A   1     -28.016  -0.814  28.878  0.00  0.00    -0.004 A 
ATOM      9  C   UNL A   1     -28.469  -0.785  29.829  0.00  0.00    -0.000 A 
ATOM     10  C   UNL A   1     -27.087   0.290  28.638  0.00  0.00    -0.018 A 
ATOM     11  C   UNL A   1     -26.832   1.249  29.587  0.00  0.00    -0.004 A 
ATOM     12  C   UNL A   1     -28.391   0.080  31.006  0.00  0.00    -0.000 A 
ATOM     13  C   UNL A   1     -27.494   1.152  30.784  0.00  0.00    -0.000 A 
ENDBRANCH   1  10
BRANCH   3  14
ATOM     14  C   UNL A   1     -28.269   0.717  25.985  0.00  0.00    -0.017 A 
ATOM     15  C   UNL A   1     -28.766   0.732  24.686  0.00  0.00    -0.004 A 
ATOM     16  C   UNL A   1     -30.160   0.870  24.463  0.00  0.00    -0.000 A 
ATOM     17  C   UNL A   1     -30.994   0.958  25.541  0.00  0.00    +0.007 A 
ATOM     18  C   UNL A   1     -30.508   0.951  26.839  0.00  0.00    +0.080 A 
ATOM     19  C   UNL A   1     -29.200   0.871  27.078  0.00  0.00    +0.003 A 
BRANCH  18  20
ATOM     20  C   UNL A   1     -31.538   1.133  27.937  0.00  0.00    +0.388 C 
ATOM     21  O   UNL A   1     -32.486   1.659  27.754  0.00  0.00    -0.241 OA
ATOM     22  O   UNL A   1     -31.026   1.037  29.195  0.00  0.00    -0.241 OA
ENDBRANCH  18  20
ENDBRANCH   3  14
BRANCH   5  23
ATOM     23  C   UNL A   1     -22.909   1.556  28.136  0.00  0.00    +0.284 C 
ATOM     24  F   UNL A   1     -23.186   1.510  29.343  0.00  0.00    -0.198 F 
ATOM     25 BR   UNL A   1     -22.009   0.924  28.070  0.00  0.00    -0.016 Br
BRANCH  23  26
ATOM     26  N   UNL A   1     -21.792   1.899  27.618  0.00  0.00    -0.227 NA
ATOM     27  C   UNL A   1     -21.038   2.371  26.832  0.00  0.00    +0.117 C 
ENDBRANCH  23  26
ENDBRANCH   5  23
TORSDOF 5
