MODEL 3739
MODEL 1
REMARK VINA RESULT:    -8.069      0.000      0.000
REMARK INTER + INTRA:         -11.476
REMARK INTER:                  -9.955
REMARK INTRA:                  -1.521
REMARK UNBOUND:                -1.521
REMARK  Name = No_3739-gen_results/8p0m/2024-11-27-11-27-31/
REMARK  5 active torsions:
REMARK  status: ('A' for Active; 'I' for Inactive)
REMARK    1  A    between atoms: C_3  and  C_7
REMARK    2  A    between atoms: C_9  and  C_10
REMARK    3  A    between atoms: C_14  and  C_20
REMARK    4  A    between atoms: C_17  and  C_23
REMARK    5  A    between atoms: C_23  and  N_24
REMARK                            x       y       z     vdW  Elec       q    Type
REMARK                         _______ _______ _______ _____ _____    ______ ____
ROOT
ATOM      1  C   UNL A   1     -25.464  -0.645  29.056  0.00  0.00    +0.053 C 
ATOM      2  C   UNL A   1     -25.986  -0.156  27.864  0.00  0.00    -0.020 C 
ATOM      3  C   UNL A   1     -25.068   0.188  30.076  0.00  0.00    +0.060 C 
ATOM      4  C   UNL A   1     -25.172   1.592  29.825  0.00  0.00    +0.020 C 
ATOM      5  C   UNL A   1     -25.226   0.582  26.997  0.00  0.00    +0.043 C 
ATOM      6  C   UNL A   1     -24.770   1.937  27.410  0.00  0.00    +0.042 C 
ATOM      7  C   UNL A   1     -24.835   2.394  28.536  0.00  0.00    -0.105 C 
ENDROOT
BRANCH   1  10
ATOM      8  C   UNL A   1     -26.482  -2.895  29.796  0.00  0.00    -0.004 A 
ATOM      9  C   UNL A   1     -26.333  -3.938  29.767  0.00  0.00    -0.000 A 
ATOM     10  C   UNL A   1     -25.412  -2.132  29.153  0.00  0.00    -0.018 A 
ATOM     11  C   UNL A   1     -24.337  -2.744  28.556  0.00  0.00    -0.004 A 
ATOM     12  C   UNL A   1     -25.323  -4.842  29.217  0.00  0.00    -0.000 A 
ATOM     13  C   UNL A   1     -24.283  -4.113  28.592  0.00  0.00    -0.000 A 
ENDBRANCH   1  10
BRANCH   3  14
ATOM     14  C   UNL A   1     -24.564  -0.277  31.263  0.00  0.00    -0.017 A 
ATOM     15  C   UNL A   1     -23.282  -0.816  31.246  0.00  0.00    -0.004 A 
ATOM     16  C   UNL A   1     -22.709  -1.318  32.443  0.00  0.00    -0.000 A 
ATOM     17  C   UNL A   1     -23.426  -1.234  33.602  0.00  0.00    +0.007 A 
ATOM     18  C   UNL A   1     -24.707  -0.705  33.628  0.00  0.00    +0.080 A 
ATOM     19  C   UNL A   1     -25.289  -0.270  32.512  0.00  0.00    +0.003 A 
BRANCH  18  20
ATOM     20  C   UNL A   1     -25.416  -0.744  34.968  0.00  0.00    +0.388 C 
ATOM     21  O   UNL A   1     -24.927  -1.150  35.865  0.00  0.00    -0.241 OA
ATOM     22  O   UNL A   1     -26.774  -0.697  34.875  0.00  0.00    -0.241 OA
ENDBRANCH  18  20
ENDBRANCH   3  14
BRANCH   5  23
ATOM     23  C   UNL A   1     -25.320   0.320  25.507  0.00  0.00    +0.284 C 
ATOM     24  F   UNL A   1     -24.228   0.282  24.924  0.00  0.00    -0.198 F 
ATOM     25 BR   UNL A   1     -25.816  -0.598  25.151  0.00  0.00    -0.016 Br
BRANCH  23  26
ATOM     26  N   UNL A   1     -26.479   0.257  24.971  0.00  0.00    -0.227 NA
ATOM     27  C   UNL A   1     -27.346   0.466  24.187  0.00  0.00    +0.117 C 
ENDBRANCH  23  26
ENDBRANCH   5  23
TORSDOF 5
ENDMDL
ENDMDL
