MODEL 373
MODEL 1
REMARK VINA RESULT:    -5.278      0.000      0.000
REMARK INTER + INTRA:          -5.650
REMARK INTER:                  -5.587
REMARK INTRA:                  -0.063
REMARK UNBOUND:                -0.063
REMARK  Name = No_373-gen_results/8p0m/2024-11-27-11-27-31/
REMARK  1 active torsions:
REMARK  status: ('A' for Active; 'I' for Inactive)
REMARK    1  A    between atoms: C_2  and  C_5
REMARK                            x       y       z     vdW  Elec       q    Type
REMARK                         _______ _______ _______ _____ _____    ______ ____
ROOT
ATOM      1  C   UNL A   1     -23.862  -3.732  28.740  0.00  0.00    +0.005 A 
ATOM      2  C   UNL A   1     -24.346  -2.861  29.083  0.00  0.00    +0.055 A 
ATOM      3  C   UNL A   1     -24.647  -4.952  28.933  0.00  0.00    +0.000 A 
ATOM      4  C   UNL A   1     -25.901  -4.932  29.491  0.00  0.00    +0.000 A 
ATOM      5  C   UNL A   1     -26.422  -3.680  29.869  0.00  0.00    +0.000 A 
ATOM      6  C   UNL A   1     -25.664  -2.533  29.626  0.00  0.00    +0.005 A 
ENDROOT
BRANCH   2   7
ATOM      7  C   UNL A   1     -23.596  -1.510  28.879  0.00  0.00    +0.265 C 
ATOM      8  O   UNL A   1     -24.101  -0.459  28.486  0.00  0.00    -0.268 OA
ATOM      9  N   UNL A   1     -22.216  -1.407  29.130  0.00  0.00    -0.200 NA
ATOM     10  C   UNL A   1     -21.506  -0.224  28.863  0.00  0.00    +0.139 C 
ENDBRANCH   2   7
TORSDOF 1
ENDMDL
ENDMDL
