MODEL 3740
MODEL 1
REMARK VINA RESULT:    -4.845      0.000      0.000
REMARK INTER + INTRA:          -5.828
REMARK INTER:                  -5.694
REMARK INTRA:                  -0.133
REMARK UNBOUND:                -0.133
REMARK  Name = No_3740-gen_results/8p0m/2024-11-27-11-27-31/
REMARK  3 active torsions:
REMARK  status: ('A' for Active; 'I' for Inactive)
REMARK    1  A    between atoms: C_2  and  C_7
REMARK    2  A    between atoms: C_7  and  N_8
REMARK    3  A    between atoms: N_8  and  C_9
REMARK                            x       y       z     vdW  Elec       q    Type
REMARK                         _______ _______ _______ _____ _____    ______ ____
ROOT
ATOM      1  C   UNL A   1     -23.839  -3.461  28.646  0.00  0.00    -0.003 A 
ATOM      2  C   UNL A   1     -24.499  -2.778  29.102  0.00  0.00    -0.001 A 
ATOM      3  C   UNL A   1     -24.254  -4.913  28.719  0.00  0.00    -0.000 A 
ATOM      4  C   UNL A   1     -25.522  -5.244  29.242  0.00  0.00    -0.000 A 
ATOM      5  C   UNL A   1     -25.864  -2.853  29.671  0.00  0.00    -0.003 A 
ATOM      6  C   UNL A   1     -26.283  -4.174  29.748  0.00  0.00    -0.000 A 
ENDROOT
BRANCH   2   7
ATOM      7  C   UNL A   1     -24.091  -1.226  29.028  0.00  0.00    +0.139 C 
BRANCH   7   8
ATOM      8  N   UNL A   1     -22.866  -1.004  28.917  0.00  0.00    -0.232 NA
BRANCH   8   9
ATOM      9  C   UNL A   1     -22.174  -0.241  29.173  0.00  0.00    +0.081 C 
ATOM     10  C   UNL A   1     -20.872   0.003  28.513  0.00  0.00    +0.019 C 
ENDBRANCH   8   9
ENDBRANCH   7   8
ENDBRANCH   2   7
TORSDOF 3
ENDMDL
ENDMDL
