REMARK  Name = outputs/IAG933/test6/raw/output_3741_IAG933_linker_design_.xyz
REMARK  14 active torsions:
REMARK  status: ('A' for Active; 'I' for Inactive)
REMARK    1  A    between atoms: C_1  and  C_2
REMARK    2  A    between atoms: C_1  and  C_8
REMARK    3  A    between atoms: C_1  and  N_28
REMARK    4  A    between atoms: C_13  and  C_33
REMARK    5  A    between atoms: C_14  and  C_15
REMARK    6  A    between atoms: C_21  and  O_22
REMARK    7  A    between atoms: O_22  and  C_23
REMARK    8  A    between atoms: C_23  and  C_24
REMARK    9  A    between atoms: N_28  and  C_34
REMARK   10  A    between atoms: N_28  and  C_39
REMARK   11  A    between atoms: C_31  and  O_45
REMARK   12  A    between atoms: C_34  and  C_44
REMARK   13  A    between atoms: C_41  and  N_43
REMARK   14  A    between atoms: C_41  and  C_44
REMARK                            x       y       z     vdW  Elec       q    Type
REMARK                         _______ _______ _______ _____ _____    ______ ____
ROOT
ATOM      1  N   UNL A   1     -25.230  -0.183  28.985  0.00  0.00    -0.270 NA
ENDROOT
BRANCH   1   6
ATOM      2  C   UNL A   1     -22.055   1.603  26.892  0.00  0.00    +0.000 C 
ATOM      3  C   UNL A   1     -24.610   1.301  27.340  0.00  0.00    +0.040 C 
ATOM      4  C   UNL A   1     -23.283   1.237  29.219  0.00  0.00    +0.016 C 
ATOM      5  C   UNL A   1     -22.197   1.362  28.403  0.00  0.00    +0.001 C 
ATOM      6  C   UNL A   1     -24.185   0.481  28.315  0.00  0.00    +0.062 C 
ATOM      7  C   UNL A   1     -23.151   1.557  26.268  0.00  0.00    +0.006 C 
BRANCH   3   8
ATOM      8  C   UNL A   1     -25.688   1.614  26.461  0.00  0.00    +0.017 C 
ATOM      9  C   UNL A   1     -26.250   2.920  26.395  0.00  0.00    +0.073 C 
ATOM     10  C   UNL A   1     -27.438   3.091  25.645  0.00  0.00    +0.106 C 
ATOM     11  N   UNL A   1     -28.075   2.089  25.003  0.00  0.00    -0.208 NA
ATOM     12  C   UNL A   1     -27.543   0.849  25.079  0.00  0.00    +0.253 C 
ATOM     13  C   UNL A   1     -26.354   0.576  25.777  0.00  0.00    +0.189 C 
ATOM     14  F   UNL A   1     -25.860  -0.681  25.795  0.00  0.00    -0.200 F 
BRANCH   9  15
ATOM     15  C   UNL A   1     -25.642   4.093  27.123  0.00  0.00    +0.266 C 
ATOM     16  N   UNL A   1     -25.614   5.252  26.449  0.00  0.00    -0.200 NA
ATOM     17  C   UNL A   1     -25.026   6.479  26.963  0.00  0.00    +0.139 C 
ATOM     18  O   UNL A   1     -25.143   3.966  28.243  0.00  0.00    -0.268 OA
ENDBRANCH   9  15
BRANCH  12  19
ATOM     19  O   UNL A   1     -28.193  -0.208  24.477  0.00  0.00    -0.456 OA
BRANCH  19  20
ATOM     20  C   UNL A   1     -29.460   0.005  23.866  0.00  0.00    +0.243 C 
BRANCH  20  21
ATOM     21  C   UNL A   1     -30.065  -1.377  23.573  0.00  0.00    +0.229 C 
ATOM     22  O   UNL A   1     -30.729  -1.878  24.721  0.00  0.00    -0.216 OA
ENDBRANCH  20  21
ENDBRANCH  19  20
ENDBRANCH  12  19
ENDBRANCH   3   8
ENDBRANCH   1   6
BRANCH   1  23
ATOM     23  C   UNL A   1     -24.855  -1.012  30.143  0.00  0.00    +0.096 C 
BRANCH  23  24
ATOM     24  C   UNL A   1     -24.973  -2.505  29.788  0.00  0.00    -0.006 C 
ATOM     25  C   UNL A   1     -23.906  -3.173  29.146  0.00  0.00    -0.003 C 
ATOM     26  C   UNL A   1     -23.989  -4.549  28.853  0.00  0.00    -0.000 C 
ATOM     27  C   UNL A   1     -25.137  -5.280  29.205  0.00  0.00    -0.000 C 
ATOM     28  C   UNL A   1     -26.232  -4.611  29.784  0.00  0.00    -0.000 C 
ATOM     29  C   UNL A   1     -26.155  -3.232  30.065  0.00  0.00    -0.003 C 
ENDBRANCH  23  24
BRANCH  23  30
ATOM     30  C   UNL A   1     -25.387  -0.679  31.571  0.00  0.00    +0.092 C 
ATOM     31  C   UNL A   1     -25.189   0.773  32.028  0.00  0.00    +0.021 C 
ATOM     32  C   UNL A   1     -25.336   0.684  33.544  0.00  0.00    +0.020 C 
ATOM     33  C   UNL A   1     -24.829  -0.715  33.905  0.00  0.00    +0.089 C 
ATOM     34  N   UNL A   1     -24.758  -1.481  32.646  0.00  0.00    -0.218 NA
ENDBRANCH  23  30
ENDBRANCH   1  23
BRANCH   1  35
ATOM     35  C   UNL A   1     -26.651   0.266  29.045  0.00  0.00    +0.074 C 
BRANCH  35  36
ATOM     36  C   UNL A   1     -27.678  -0.824  29.520  0.00  0.00    +0.035 C 
BRANCH  36  37
ATOM     37  C   UNL A   1     -28.910  -0.102  30.075  0.00  0.00    +0.073 C 
BRANCH  37  43
ATOM     38  C   UNL A   1     -30.864  -0.802  28.727  0.00  0.00    +0.075 C 
ATOM     39  C   UNL A   1     -31.763  -3.128  29.340  0.00  0.00    +0.118 C 
ATOM     40  C   UNL A   1     -29.487  -2.303  30.190  0.00  0.00    +0.075 C 
ATOM     41  C   UNL A   1     -30.348  -3.469  29.719  0.00  0.00    +0.047 C 
ATOM     42  C   UNL A   1     -32.063  -1.752  28.715  0.00  0.00    +0.047 C 
ATOM     43  N   UNL A   1     -30.098  -0.991  30.005  0.00  0.00    -0.273 NA
BRANCH  39  45
ATOM     44  C   UNL A   1     -31.973  -5.510  29.139  0.00  0.00    +0.174 C 
ATOM     45  O   UNL A   1     -32.476  -4.247  28.835  0.00  0.00    -0.353 OA
ENDBRANCH  39  45
ENDBRANCH  37  43
ENDBRANCH  36  37
ENDBRANCH  35  36
ENDBRANCH   1  35
TORSDOF 14
