MODEL 3741
MODEL 1
REMARK VINA RESULT:    -7.216      0.000      0.000
REMARK INTER + INTRA:          -9.060
REMARK INTER:                  -8.481
REMARK INTRA:                  -0.579
REMARK UNBOUND:                -0.579
REMARK  Name = No_3741-gen_results/8p0m/2024-11-27-11-27-31/
REMARK  3 active torsions:
REMARK  status: ('A' for Active; 'I' for Inactive)
REMARK    1  A    between atoms: C_3  and  C_7
REMARK    2  A    between atoms: C_5  and  C_16
REMARK    3  A    between atoms: C_9  and  C_13
REMARK                            x       y       z     vdW  Elec       q    Type
REMARK                         _______ _______ _______ _____ _____    ______ ____
ROOT
ATOM      1  C   UNL A   1     -26.186  -1.538  29.977  0.00  0.00    +0.000 A 
ATOM      2  C   UNL A   1     -25.384  -0.800  29.453  0.00  0.00    +0.000 A 
ATOM      3  C   UNL A   1     -24.233  -1.208  28.800  0.00  0.00    +0.000 A 
ATOM      4  C   UNL A   1     -23.997  -2.612  28.717  0.00  0.00    +0.007 A 
ATOM      5  C   UNL A   1     -24.978  -3.412  29.166  0.00  0.00    +0.080 A 
ATOM      6  C   UNL A   1     -26.052  -2.937  29.728  0.00  0.00    +0.007 A 
ENDROOT
BRANCH   3   7
ATOM      7  C   UNL A   1     -23.196  -0.244  28.286  0.00  0.00    -0.000 A 
ATOM      8  C   UNL A   1     -23.697   0.684  27.453  0.00  0.00    +0.001 A 
ATOM      9  C   UNL A   1     -22.778   1.636  26.800  0.00  0.00    +0.044 A 
ATOM     10  C   UNL A   1     -21.526   1.797  27.368  0.00  0.00    +0.001 A 
ATOM     11  C   UNL A   1     -21.906  -0.090  28.720  0.00  0.00    -0.000 A 
ATOM     12  C   UNL A   1     -20.998   0.831  28.160  0.00  0.00    -0.000 A 
BRANCH   9  13
ATOM     13  C   UNL A   1     -23.338   2.643  25.858  0.00  0.00    +0.341 C 
ATOM     14  F   UNL A   1     -22.703   2.925  24.861  0.00  0.00    -0.193 F 
ATOM     15  F   UNL A   1     -24.644   2.410  25.578  0.00  0.00    -0.193 F 
ENDBRANCH   9  13
ENDBRANCH   3   7
BRANCH   5  16
ATOM     16  C   UNL A   1     -24.756  -4.876  29.028  0.00  0.00    +0.388 C 
ATOM     17  O   UNL A   1     -25.342  -5.691  29.722  0.00  0.00    -0.241 OA
ATOM     18  O   UNL A   1     -23.830  -5.352  28.230  0.00  0.00    -0.241 OA
ENDBRANCH   5  16
TORSDOF 3
ENDMDL
ENDMDL
