MODEL 3742
MODEL 1
REMARK VINA RESULT:    -8.100      0.000      0.000
REMARK INTER + INTRA:         -11.870
REMARK INTER:                 -10.468
REMARK INTRA:                  -1.402
REMARK UNBOUND:                -1.402
REMARK  Name = No_3742-gen_results/8p0m/2024-11-27-11-27-31/
REMARK  5 active torsions:
REMARK  status: ('A' for Active; 'I' for Inactive)
REMARK    1  A    between atoms: C_2  and  C_31
REMARK    2  A    between atoms: C_15  and  C_16
REMARK    3  A    between atoms: C_18  and  C_19
REMARK    4  A    between atoms: C_25  and  C_26
REMARK    5  A    between atoms: C_26  and  O_30
REMARK                            x       y       z     vdW  Elec       q    Type
REMARK                         _______ _______ _______ _____ _____    ______ ____
ROOT
ATOM      1  C   UNL A   1     -29.112 -11.993  10.841  0.00  0.00    +0.021 A 
ATOM      2  C   UNL A   1     -30.005 -12.443  11.174  0.00  0.00    +0.081 A 
ATOM      3  C   UNL A   1     -29.221 -10.621  10.319  0.00  0.00    +0.055 A 
ATOM      4  C   UNL A   1     -30.453  -9.910  10.401  0.00  0.00    -0.004 A 
ATOM      5  C   UNL A   1     -31.376 -11.916  11.415  0.00  0.00    +0.006 A 
ATOM      6  C   UNL A   1     -30.621  -8.600   9.920  0.00  0.00    +0.055 C 
ATOM      7  C   UNL A   1     -31.519 -10.615  10.959  0.00  0.00    -0.003 A 
ATOM      8  C   UNL A   1     -29.701  -7.954   9.235  0.00  0.00    -0.004 A 
ATOM      9  C   UNL A   1     -29.967  -6.663   8.591  0.00  0.00    -0.003 A 
ATOM     10  C   UNL A   1     -29.081  -6.157   7.674  0.00  0.00    -0.000 A 
ATOM     11  C   UNL A   1     -28.365  -7.150   6.886  0.00  0.00    +0.001 A 
ATOM     12  C   UNL A   1     -28.317  -8.523   7.306  0.00  0.00    +0.015 A 
ATOM     13  C   UNL A   1     -29.004  -8.921   8.372  0.00  0.00    +0.055 A 
ATOM     14  N   UNL A   1     -28.370 -10.080   9.323  0.00  0.00    -0.234 N 
ATOM     15  C   UNL A   1     -27.187 -10.653   8.895  0.00  0.00    +0.257 C 
ATOM     16  O   UNL A   1     -26.184 -10.180   9.375  0.00  0.00    -0.269 OA
ENDROOT
BRANCH  15  17
ATOM     17  C   UNL A   1     -27.190 -11.549   7.848  0.00  0.00    +0.054 A 
ATOM     18  C   UNL A   1     -26.082 -11.514   7.010  0.00  0.00    +0.004 A 
ATOM     19  C   UNL A   1     -25.980 -12.494   6.003  0.00  0.00    +0.000 A 
ATOM     20  C   UNL A   1     -28.142 -12.437   7.509  0.00  0.00    +0.004 A 
ATOM     21  C   UNL A   1     -28.178 -13.409   6.546  0.00  0.00    +0.000 A 
ATOM     22  C   UNL A   1     -27.080 -13.414   5.800  0.00  0.00    +0.000 A 
BRANCH  19  23
ATOM     23  C   UNL A   1     -24.934 -12.631   5.128  0.00  0.00    +0.000 A 
ATOM     24  C   UNL A   1     -24.112 -13.613   5.317  0.00  0.00    +0.000 A 
ATOM     25  C   UNL A   1     -22.938 -13.886   4.484  0.00  0.00    +0.006 A 
ATOM     26  C   UNL A   1     -22.697 -12.932   3.490  0.00  0.00    +0.076 A 
ATOM     27  C   UNL A   1     -24.639 -11.768   4.041  0.00  0.00    +0.000 A 
ATOM     28  C   UNL A   1     -23.557 -11.886   3.259  0.00  0.00    +0.006 A 
BRANCH  26  29
ATOM     29  C   UNL A   1     -21.575 -13.126   2.655  0.00  0.00    +0.341 C 
ATOM     30  O   UNL A   1     -21.559 -13.509   1.600  0.00  0.00    -0.245 OA
BRANCH  29  31
ATOM     31  O   UNL A   1     -20.392 -12.786   3.226  0.00  0.00    -0.441 OA
ATOM     32  C   UNL A   1     -19.397 -12.066   2.622  0.00  0.00    +0.256 C 
ENDBRANCH  29  31
ENDBRANCH  26  29
ENDBRANCH  19  23
ENDBRANCH  15  17
BRANCH   2  33
ATOM     33  C   UNL A   1     -29.910 -13.955  11.797  0.00  0.00    +0.388 C 
ATOM     34  O   UNL A   1     -29.839 -14.055  12.992  0.00  0.00    -0.241 OA
ATOM     35  O   UNL A   1     -29.467 -14.922  10.990  0.00  0.00    -0.241 OA
ENDBRANCH   2  33
TORSDOF 5
ENDMDL
ENDMDL
