MODEL 3743
MODEL 1
REMARK VINA RESULT:    -5.400      0.000      0.000
REMARK INTER + INTRA:          -6.292
REMARK INTER:                  -6.031
REMARK INTRA:                  -0.261
REMARK UNBOUND:                -0.261
REMARK  Name = No_3743-gen_results/8p0m/2024-11-27-11-27-31/
REMARK  2 active torsions:
REMARK  status: ('A' for Active; 'I' for Inactive)
REMARK    1  A    between atoms: C_3  and  C_4
REMARK    2  A    between atoms: C_4  and  C_8
REMARK                            x       y       z     vdW  Elec       q    Type
REMARK                         _______ _______ _______ _____ _____    ______ ____
ROOT
ATOM      1  C   UNL A   1     -23.873  -3.846  28.566  0.00  0.00    -0.004 A 
ATOM      2  C   UNL A   1     -24.328  -4.782  28.735  0.00  0.00    -0.000 A 
ATOM      3  C   UNL A   1     -24.571  -2.690  28.979  0.00  0.00    -0.018 A 
ATOM      4  C   UNL A   1     -25.625  -5.138  29.336  0.00  0.00    -0.000 A 
ATOM      5  C   UNL A   1     -26.374  -4.042  29.766  0.00  0.00    -0.000 A 
ATOM      6  C   UNL A   1     -25.851  -2.794  29.643  0.00  0.00    -0.004 A 
ENDROOT
BRANCH   3   7
ATOM      7  C   UNL A   1     -24.026  -1.309  28.914  0.00  0.00    +0.052 C 
BRANCH   7   8
ATOM      8  C   UNL A   1     -22.628  -1.141  29.156  0.00  0.00    -0.026 C 
ATOM      9  C   UNL A   1     -21.965   0.010  28.862  0.00  0.00    -0.030 C 
ATOM     10  C   UNL A   1     -22.528   0.892  27.920  0.00  0.00    +0.030 C 
ENDBRANCH   7   8
ENDBRANCH   3   7
TORSDOF 2
ENDMDL
ENDMDL
