MODEL 3744
MODEL 1
REMARK VINA RESULT:    -9.309      0.000      0.000
REMARK INTER + INTRA:          -8.849
REMARK INTER:                  -9.853
REMARK INTRA:                   1.005
REMARK UNBOUND:                 1.005
REMARK  Name = No_3744-gen_results/8p0m/2024-11-27-11-27-31/
REMARK  1 active torsions:
REMARK  status: ('A' for Active; 'I' for Inactive)
REMARK    1  A    between atoms: C_7  and  N_8
REMARK                            x       y       z     vdW  Elec       q    Type
REMARK                         _______ _______ _______ _____ _____    ______ ____
ROOT
ATOM      1  C   UNL A   1     -23.784  -3.298  28.912  0.00  0.00    -0.001 A 
ATOM      2  C   UNL A   1     -24.207  -4.264  28.915  0.00  0.00    -0.000 A 
ATOM      3  C   UNL A   1     -24.613  -2.215  29.280  0.00  0.00    +0.015 A 
ATOM      4  C   UNL A   1     -25.939  -2.393  29.621  0.00  0.00    +0.046 A 
ATOM      5  C   UNL A   1     -26.411  -3.695  29.604  0.00  0.00    +0.014 A 
ATOM      6  C   UNL A   1     -25.556  -4.725  29.275  0.00  0.00    +0.001 A 
ATOM      7  C   UNL A   1     -24.134  -0.795  29.341  0.00  0.00    +0.136 C 
ATOM      8  C   UNL A   1     -24.794  -0.038  28.236  0.00  0.00    -0.005 A 
ATOM      9  N   UNL A   1     -26.608  -1.385  30.016  0.00  0.00    -0.297 N 
ATOM     10  C   UNL A   1     -27.740  -1.655  30.822  0.00  0.00    +0.132 C 
ATOM     11  C   UNL A   1     -27.001  -0.237  29.395  0.00  0.00    +0.156 C 
ATOM     12  C   UNL A   1     -26.712  -0.036  28.162  0.00  0.00    +0.001 A 
ATOM     13  C   UNL A   1     -28.478   0.163  29.443  0.00  0.00    +0.204 C 
ATOM     14  C   UNL A   1     -24.196   0.706  27.173  0.00  0.00    -0.024 A 
ATOM     15  O   UNL A   1     -28.946   1.324  29.197  0.00  0.00    -0.291 OA
ATOM     16  C   UNL A   1     -28.951  -0.432  30.902  0.00  0.00    +0.230 C 
ATOM     17  O   UNL A   1     -30.191  -0.935  30.979  0.00  0.00    -0.213 OA
ATOM     18  C   UNL A   1     -24.707   0.718  25.911  0.00  0.00    -0.004 A 
ATOM     19  C   UNL A   1     -22.944   1.245  27.496  0.00  0.00    +0.034 C 
ATOM     20  C   UNL A   1     -25.870   0.060  25.485  0.00  0.00    -0.001 A 
ATOM     21  C   UNL A   1     -27.023   0.165  26.786  0.00  0.00    -0.003 A 
ATOM     22  C   UNL A   1     -22.615  -0.730  28.955  0.00  0.00    +0.172 C 
ATOM     23  C   UNL A   1     -22.084   0.484  28.369  0.00  0.00    +0.071 C 
ATOM     24  O   UNL A   1     -21.995  -1.640  29.217  0.00  0.00    -0.294 OA
ENDROOT
BRANCH   7  25
ATOM     25  N   UNL A   1     -24.169  -0.222  30.489  0.00  0.00    -0.263 NA
ATOM     26  C   UNL A   1     -24.667   1.072  30.661  0.00  0.00    +0.073 C 
ATOM     27  C   UNL A   1     -25.130   1.430  31.983  0.00  0.00    +0.017 C 
ATOM     28  C   UNL A   1     -24.960   0.524  33.041  0.00  0.00    +0.003 C 
ATOM     29  C   UNL A   1     -24.402  -0.760  32.817  0.00  0.00    +0.017 C 
ATOM     30  C   UNL A   1     -24.081  -1.109  31.570  0.00  0.00    +0.073 C 
ENDBRANCH   7  25
TORSDOF 1
ENDMDL
ENDMDL
