REMARK  Name = outputs/IAG933/test6/raw/output_3744_IAG933_linker_design_.xyz
REMARK  14 active torsions:
REMARK  status: ('A' for Active; 'I' for Inactive)
REMARK    1  A    between atoms: C_1  and  C_2
REMARK    2  A    between atoms: C_1  and  C_8
REMARK    3  A    between atoms: C_1  and  N_43
REMARK    4  A    between atoms: C_13  and  C_35
REMARK    5  A    between atoms: C_14  and  C_15
REMARK    6  A    between atoms: C_21  and  O_22
REMARK    7  A    between atoms: O_22  and  C_23
REMARK    8  A    between atoms: C_23  and  C_24
REMARK    9  A    between atoms: O_29  and  C_36
REMARK   10  A    between atoms: O_29  and  C_39
REMARK   11  A    between atoms: C_33  and  C_39
REMARK   12  A    between atoms: C_36  and  O_45
REMARK   13  A    between atoms: C_37  and  N_43
REMARK   14  A    between atoms: N_43  and  O_45
REMARK                            x       y       z     vdW  Elec       q    Type
REMARK                         _______ _______ _______ _____ _____    ______ ____
ROOT
ATOM      1  N   UNL A   1     -25.399  -0.172  28.973  0.00  0.00    -0.235 N 
ENDROOT
BRANCH   1   5
ATOM      2  C   UNL A   1     -22.203   1.307  27.776  0.00  0.00    -0.021 C 
ATOM      3  C   UNL A   1     -20.726   1.525  27.825  0.00  0.00    +0.028 C 
ATOM      4  C   UNL A   1     -24.408   1.398  27.143  0.00  0.00    +0.017 C 
ATOM      5  C   UNL A   1     -24.385   0.679  28.363  0.00  0.00    +0.082 C 
ATOM      6  C   UNL A   1     -23.079   1.727  26.732  0.00  0.00    -0.005 C 
ATOM      7  C   UNL A   1     -22.997   0.689  28.797  0.00  0.00    +0.150 C 
ATOM      8  N   UNL A   1     -22.471   0.117  29.909  0.00  0.00    -0.122 NA
BRANCH   4   9
ATOM      9  C   UNL A   1     -25.688   1.614  26.461  0.00  0.00    +0.039 C 
ATOM     10  C   UNL A   1     -26.250   2.920  26.395  0.00  0.00    +0.077 C 
ATOM     11  C   UNL A   1     -27.438   3.091  25.645  0.00  0.00    +0.107 C 
ATOM     12  N   UNL A   1     -28.075   2.089  25.003  0.00  0.00    -0.208 NA
ATOM     13  C   UNL A   1     -27.543   0.849  25.079  0.00  0.00    +0.253 C 
ATOM     14  C   UNL A   1     -26.354   0.576  25.777  0.00  0.00    +0.193 C 
ATOM     15  F   UNL A   1     -25.860  -0.681  25.795  0.00  0.00    -0.199 F 
BRANCH  10  16
ATOM     16  C   UNL A   1     -25.642   4.093  27.123  0.00  0.00    +0.266 C 
ATOM     17  N   UNL A   1     -25.614   5.252  26.449  0.00  0.00    -0.200 NA
ATOM     18  C   UNL A   1     -25.026   6.479  26.963  0.00  0.00    +0.139 C 
ATOM     19  O   UNL A   1     -25.143   3.966  28.243  0.00  0.00    -0.268 OA
ENDBRANCH  10  16
BRANCH  13  20
ATOM     20  O   UNL A   1     -28.193  -0.208  24.477  0.00  0.00    -0.456 OA
BRANCH  20  21
ATOM     21  C   UNL A   1     -29.460   0.005  23.866  0.00  0.00    +0.243 C 
BRANCH  21  22
ATOM     22  C   UNL A   1     -30.065  -1.377  23.573  0.00  0.00    +0.229 C 
ATOM     23  O   UNL A   1     -30.729  -1.878  24.721  0.00  0.00    -0.216 OA
ENDBRANCH  21  22
ENDBRANCH  20  21
ENDBRANCH  13  20
ENDBRANCH   4   9
ENDBRANCH   1   5
BRANCH   1  24
ATOM     24  C   UNL A   1     -24.855  -1.012  30.143  0.00  0.00    +0.147 C 
BRANCH  24  25
ATOM     25  C   UNL A   1     -24.973  -2.505  29.788  0.00  0.00    +0.002 C 
ATOM     26  C   UNL A   1     -23.906  -3.173  29.146  0.00  0.00    -0.002 C 
ATOM     27  C   UNL A   1     -23.989  -4.549  28.853  0.00  0.00    -0.000 C 
ATOM     28  C   UNL A   1     -25.137  -5.280  29.205  0.00  0.00    -0.000 C 
ATOM     29  C   UNL A   1     -26.232  -4.611  29.784  0.00  0.00    -0.000 C 
ATOM     30  C   UNL A   1     -26.155  -3.232  30.065  0.00  0.00    -0.002 C 
ENDBRANCH  24  25
BRANCH  24  31
ATOM     31  C   UNL A   1     -25.387  -0.679  31.571  0.00  0.00    +0.100 C 
ATOM     32  C   UNL A   1     -25.189   0.773  32.028  0.00  0.00    +0.021 C 
ATOM     33  C   UNL A   1     -25.336   0.684  33.544  0.00  0.00    +0.020 C 
ATOM     34  C   UNL A   1     -24.829  -0.715  33.905  0.00  0.00    +0.089 C 
ATOM     35  N   UNL A   1     -24.758  -1.481  32.646  0.00  0.00    -0.217 NA
ENDBRANCH  24  31
ENDBRANCH   1  24
BRANCH   1  36
ATOM     36  O   UNL A   1     -26.825  -0.419  28.463  0.00  0.00    -0.224 OA
BRANCH  36  37
ATOM     37  C   UNL A   1     -28.302  -0.165  28.633  0.00  0.00    +0.322 C 
BRANCH  37  38
ATOM     38  O   UNL A   1     -28.724   0.303  30.045  0.00  0.00    -0.300 OA
BRANCH  38  42
ATOM     39  C   UNL A   1     -29.136   2.814  29.307  0.00  0.00    +0.097 C 
ATOM     40  O   UNL A   1     -27.529   3.281  31.095  0.00  0.00    -0.218 OA
ATOM     41  O   UNL A   1     -27.886   1.954  31.365  0.00  0.00    -0.195 OA
ATOM     42  C   UNL A   1     -29.066   1.753  30.446  0.00  0.00    +0.254 C 
ATOM     43  C   UNL A   1     -28.127   3.818  29.882  0.00  0.00    +0.187 C 
BRANCH  42  44
ATOM     44  C   UNL A   1     -30.365   1.854  31.208  0.00  0.00    +0.241 C 
ATOM     45  O   UNL A   1     -30.611   0.689  31.971  0.00  0.00    -0.215 OA
ENDBRANCH  42  44
ENDBRANCH  38  42
ENDBRANCH  37  38
ENDBRANCH  36  37
ENDBRANCH   1  36
TORSDOF 14
