MODEL 3745
MODEL 1
REMARK VINA RESULT:    -4.529      0.000      0.000
REMARK INTER + INTRA:          -4.529
REMARK INTER:                  -4.529
REMARK INTRA:                   0.000
REMARK UNBOUND:                 0.000
REMARK  Name = No_3745-gen_results/8p0m/2024-11-27-11-27-31/
REMARK  0 active torsions:
REMARK  status: ('A' for Active; 'I' for Inactive)
REMARK                            x       y       z     vdW  Elec       q    Type
REMARK                         _______ _______ _______ _____ _____    ______ ____
ROOT
ATOM      1  C   UNL A   1     -24.007  -4.276  28.622  0.00  0.00    +0.030 A 
ATOM      2  C   UNL A   1     -24.927  -4.999  28.930  0.00  0.00    +0.140 A 
ATOM      3  C   UNL A   1     -26.025  -4.675  29.551  0.00  0.00    +0.030 A 
ATOM      4  C   UNL A   1     -26.197  -3.313  29.945  0.00  0.00    +0.002 A 
ATOM      5  C   UNL A   1     -24.160  -2.858  28.887  0.00  0.00    +0.002 A 
ATOM      6  C   UNL A   1     -25.248  -2.444  29.537  0.00  0.00    +0.000 A 
ATOM      7  F   UNL A   1     -24.845  -6.350  28.610  0.00  0.00    -0.204 F 
ENDROOT
TORSDOF 0
ENDMDL
ENDMDL
