REMARK  Name = No_3746-gen_results/8p0m/2024-11-27-11-27-31/
REMARK  0 active torsions:
REMARK  status: ('A' for Active; 'I' for Inactive)
REMARK                            x       y       z     vdW  Elec       q    Type
REMARK                         _______ _______ _______ _____ _____    ______ ____
ROOT
ATOM      1  O   UNL A   1     -28.123  -1.335  28.487  0.00  0.00    -0.219 OA
ATOM      2  C   UNL A   1     -27.481  -0.404  28.709  0.00  0.00    +0.483 C 
ATOM      3  F   UNL A   1     -26.621  -0.232  28.073  0.00  0.00    -0.132 F 
ATOM      4  F   UNL A   1     -27.297  -0.141  30.040  0.00  0.00    -0.132 F 
ENDROOT
TORSDOF 0
