MODEL 3747
MODEL 1
REMARK VINA RESULT:    -8.212      0.000      0.000
REMARK INTER + INTRA:          -8.403
REMARK INTER:                  -8.692
REMARK INTRA:                   0.289
REMARK UNBOUND:                 0.289
REMARK  Name = No_3747-gen_results/8p0m/2024-11-27-11-27-31/
REMARK  1 active torsions:
REMARK  status: ('A' for Active; 'I' for Inactive)
REMARK    1  A    between atoms: C_5  and  P_24
REMARK                            x       y       z     vdW  Elec       q    Type
REMARK                         _______ _______ _______ _____ _____    ______ ____
ROOT
ATOM      1  C   UNL A   1      -9.380   3.866   8.161  0.00  0.00    -0.022 C 
ATOM      2  C   UNL A   1      -8.845   2.899   8.650  0.00  0.00    -0.022 C 
ATOM      3  C   UNL A   1      -9.017   2.512   9.979  0.00  0.00    +0.045 C 
ATOM      4  C   UNL A   1      -8.398   1.358  10.660  0.00  0.00    -0.016 C 
ATOM      5  C   UNL A   1      -7.713   0.433   9.814  0.00  0.00    +0.025 C 
ATOM      6  C   UNL A   1      -7.603   0.779   8.445  0.00  0.00    +0.002 C 
ATOM      7  C   UNL A   1      -8.121   1.886   7.909  0.00  0.00    -0.004 C 
ATOM      8  C   UNL A   1      -8.575   4.652   7.228  0.00  0.00    -0.004 C 
ATOM      9  C   UNL A   1      -8.809   5.971   7.081  0.00  0.00    +0.004 C 
ATOM     10  C   UNL A   1      -9.969   6.552   7.725  0.00  0.00    +0.046 C 
ATOM     11  C   UNL A   1     -10.624   5.892   8.721  0.00  0.00    -0.034 C 
ATOM     12  C   UNL A   1     -10.202   4.674   9.078  0.00  0.00    +0.041 C 
ATOM     13  C   UNL A   1     -10.717   4.020  10.272  0.00  0.00    +0.009 C 
ATOM     14  C   UNL A   1      -9.981   3.151  10.830  0.00  0.00    +0.013 C 
ATOM     15  C   UNL A   1      -8.617   0.964  12.057  0.00  0.00    -0.008 C 
ATOM     16  C   UNL A   1      -9.510   1.488  12.896  0.00  0.00    -0.026 C 
ATOM     17  C   UNL A   1     -10.287   2.724  12.258  0.00  0.00    +0.027 C 
ATOM     18  C   UNL A   1     -10.301   7.952   7.377  0.00  0.00    +0.248 C 
ATOM     19  O   UNL A   1      -9.695   8.819   7.130  0.00  0.00    -0.270 OA
ATOM     20  N   UNL A   1     -11.615   8.230   7.820  0.00  0.00    -0.274 N 
ATOM     21  C   UNL A   1     -12.530   7.507   8.260  0.00  0.00    +0.098 C 
ATOM     22  C   UNL A   1     -12.061   6.323   8.832  0.00  0.00    +0.044 C 
ATOM     23  C   UNL A   1     -12.066   9.570   7.197  0.00  0.00    +0.115 C 
ENDROOT
BRANCH   5  24
ATOM     24  P   UNL A   1      -6.951  -1.038  10.490  0.00  0.00    +0.139 P 
ATOM     25  O   UNL A   1      -8.040  -1.870  10.812  0.00  0.00    -0.354 OA
ATOM     26  O   UNL A   1      -6.048  -1.499   9.310  0.00  0.00    -0.456 OA
ATOM     27  O   UNL A   1      -6.009  -0.453  11.522  0.00  0.00    -0.354 OA
ENDBRANCH   5  24
TORSDOF 1
ENDMDL
ENDMDL
