MODEL 3748
MODEL 1
REMARK VINA RESULT:    -5.273      0.000      0.000
REMARK INTER + INTRA:          -5.637
REMARK INTER:                  -5.581
REMARK INTRA:                  -0.056
REMARK UNBOUND:                -0.056
REMARK  Name = No_3748-gen_results/8p0m/2024-11-27-11-27-31/
REMARK  1 active torsions:
REMARK  status: ('A' for Active; 'I' for Inactive)
REMARK    1  A    between atoms: C_6  and  C_7
REMARK                            x       y       z     vdW  Elec       q    Type
REMARK                         _______ _______ _______ _____ _____    ______ ____
ROOT
ATOM      1  C   UNL A   1     -25.799  -2.631  29.728  0.00  0.00    +0.005 A 
ATOM      2  C   UNL A   1     -26.520  -3.590  29.875  0.00  0.00    +0.000 A 
ATOM      3  C   UNL A   1     -26.084  -4.872  29.556  0.00  0.00    +0.000 A 
ATOM      4  C   UNL A   1     -24.775  -5.092  28.997  0.00  0.00    +0.000 A 
ATOM      5  C   UNL A   1     -24.016  -3.925  28.839  0.00  0.00    +0.005 A 
ATOM      6  C   UNL A   1     -24.481  -2.734  29.141  0.00  0.00    +0.055 A 
ENDROOT
BRANCH   6   7
ATOM      7  C   UNL A   1     -23.598  -1.574  28.875  0.00  0.00    +0.265 C 
ATOM      8  O   UNL A   1     -22.401  -1.649  28.993  0.00  0.00    -0.268 OA
ATOM      9  N   UNL A   1     -24.135  -0.565  28.150  0.00  0.00    -0.200 NA
ATOM     10  C   UNL A   1     -23.294   0.590  27.794  0.00  0.00    +0.139 C 
ENDBRANCH   6   7
TORSDOF 1
ENDMDL
ENDMDL
