REMARK  Name = outputs/IAG933/test6/raw/output_3748_IAG933_linker_design_.xyz
REMARK  19 active torsions:
REMARK  status: ('A' for Active; 'I' for Inactive)
REMARK    1  A    between atoms: C_1  and  C_2
REMARK    2  A    between atoms: C_1  and  C_8
REMARK    3  A    between atoms: C_9  and  C_40
REMARK    4  A    between atoms: C_14  and  C_15
REMARK    5  A    between atoms: C_15  and  O_18
REMARK    6  A    between atoms: O_18  and  C_34
REMARK    7  A    between atoms: C_21  and  O_22
REMARK    8  A    between atoms: O_22  and  C_23
REMARK    9  A    between atoms: C_23  and  C_24
REMARK   10  A    between atoms: C_29  and  C_33
REMARK   11  A    between atoms: O_32  and  C_35
REMARK   12  A    between atoms: C_33  and  N_45
REMARK   13  A    between atoms: C_34  and  C_41
REMARK   14  A    between atoms: C_34  and  N_45
REMARK   15  A    between atoms: C_35  and  C_41
REMARK   16  A    between atoms: C_35  and  C_43
REMARK   17  A    between atoms: C_37  and  C_38
REMARK   18  A    between atoms: C_38  and  N_46
REMARK   19  A    between atoms: C_40  and  C_41
REMARK                            x       y       z     vdW  Elec       q    Type
REMARK                         _______ _______ _______ _____ _____    ______ ____
ROOT
ATOM      1  C   UNL A   1     -25.794   3.032  30.634  0.00  0.00    +0.094 C 
ENDROOT
BRANCH   1   2
ATOM      2  C   UNL A   1     -24.859   2.800  29.167  0.00  0.00    +0.248 C 
BRANCH   2   3
ATOM      3  O   UNL A   1     -25.143   3.966  28.243  0.00  0.00    -0.447 OA
BRANCH   3   4
ATOM      4  C   UNL A   1     -25.642   4.093  27.123  0.00  0.00    +0.223 C 
ATOM      5  N   UNL A   1     -25.614   5.252  26.449  0.00  0.00    -0.236 NA
ATOM      6  C   UNL A   1     -25.026   6.479  26.963  0.00  0.00    +0.155 C 
BRANCH   4   8
ATOM      7  C   UNL A   1     -25.688   1.614  26.461  0.00  0.00    +0.041 C 
ATOM      8  C   UNL A   1     -26.250   2.920  26.395  0.00  0.00    +0.074 C 
ATOM      9  C   UNL A   1     -27.438   3.091  25.645  0.00  0.00    +0.107 C 
ATOM     10  N   UNL A   1     -28.075   2.089  25.003  0.00  0.00    -0.208 NA
ATOM     11  C   UNL A   1     -27.543   0.849  25.079  0.00  0.00    +0.253 C 
ATOM     12  C   UNL A   1     -26.354   0.576  25.777  0.00  0.00    +0.193 C 
ATOM     13  F   UNL A   1     -25.860  -0.681  25.795  0.00  0.00    -0.199 F 
BRANCH  11  14
ATOM     14  O   UNL A   1     -28.193  -0.208  24.477  0.00  0.00    -0.456 OA
BRANCH  14  15
ATOM     15  C   UNL A   1     -29.460   0.005  23.866  0.00  0.00    +0.243 C 
BRANCH  15  16
ATOM     16  C   UNL A   1     -30.065  -1.377  23.573  0.00  0.00    +0.229 C 
ATOM     17  O   UNL A   1     -30.729  -1.878  24.721  0.00  0.00    -0.216 OA
ENDBRANCH  15  16
ENDBRANCH  14  15
ENDBRANCH  11  14
ENDBRANCH   4   8
ENDBRANCH   3   4
ENDBRANCH   2   3
BRANCH   2  18
ATOM     18  N   UNL A   1     -23.599   2.605  28.218  0.00  0.00    -0.140 NA
BRANCH  18  20
ATOM     19  O   UNL A   1     -22.698   2.048  26.279  0.00  0.00    -0.191 OA
ATOM     20  C   UNL A   1     -23.258   1.413  27.566  0.00  0.00    +0.332 C 
BRANCH  20  21
ATOM     21  C   UNL A   1     -22.227   0.738  28.401  0.00  0.00    +0.412 C 
ATOM     22  O   UNL A   1     -21.070   0.647  27.836  0.00  0.00    -0.241 OA
ATOM     23  O   UNL A   1     -22.519   0.493  29.651  0.00  0.00    -0.241 OA
ENDBRANCH  20  21
ENDBRANCH  18  20
ENDBRANCH   2  18
ENDBRANCH   1   2
BRANCH   1  24
ATOM     24  C   UNL A   1     -27.081   3.911  30.629  0.00  0.00    +0.197 C 
BRANCH  24  26
ATOM     25  O   UNL A   1     -28.223   2.144  29.721  0.00  0.00    -0.271 OA
ATOM     26  C   UNL A   1     -28.131   3.501  29.804  0.00  0.00    +0.269 C 
ATOM     27  N   UNL A   1     -29.068   4.237  29.147  0.00  0.00    -0.202 NA
BRANCH  27  28
ATOM     28  C   UNL A   1     -29.925   3.791  27.995  0.00  0.00    +0.134 C 
BRANCH  28  30
ATOM     29  N   UNL A   1     -32.162   3.179  27.106  0.00  0.00    -0.131 NA
ATOM     30  C   UNL A   1     -31.124   2.819  28.127  0.00  0.00    +0.114 C 
ATOM     31  C   UNL A   1     -30.745   1.333  28.013  0.00  0.00    +0.022 C 
ENDBRANCH  28  30
ENDBRANCH  27  28
ENDBRANCH  24  26
BRANCH  24  32
ATOM     32  O   UNL A   1     -27.394   5.036  31.562  0.00  0.00    -0.344 OA
ATOM     33  C   UNL A   1     -28.347   6.043  31.197  0.00  0.00    +0.175 C 
ENDBRANCH  24  32
ENDBRANCH   1  24
BRANCH   1  34
ATOM     34  C   UNL A   1     -25.911   2.121  31.961  0.00  0.00    +0.009 C 
BRANCH  34  36
ATOM     35  C   UNL A   1     -25.387  -0.679  31.571  0.00  0.00    +0.077 C 
ATOM     36  C   UNL A   1     -25.189   0.773  32.028  0.00  0.00    +0.018 C 
ATOM     37  C   UNL A   1     -25.336   0.684  33.544  0.00  0.00    +0.020 C 
ATOM     38  C   UNL A   1     -24.829  -0.715  33.905  0.00  0.00    +0.089 C 
ATOM     39  N   UNL A   1     -24.758  -1.481  32.646  0.00  0.00    -0.219 NA
BRANCH  35  40
ATOM     40  C   UNL A   1     -24.855  -1.012  30.143  0.00  0.00    +0.044 C 
BRANCH  40  41
ATOM     41  C   UNL A   1     -24.973  -2.505  29.788  0.00  0.00    -0.021 C 
ATOM     42  C   UNL A   1     -23.906  -3.173  29.146  0.00  0.00    -0.004 C 
ATOM     43  C   UNL A   1     -23.989  -4.549  28.853  0.00  0.00    -0.000 C 
ATOM     44  C   UNL A   1     -25.137  -5.280  29.205  0.00  0.00    -0.000 C 
ATOM     45  C   UNL A   1     -26.232  -4.611  29.784  0.00  0.00    -0.000 C 
ATOM     46  C   UNL A   1     -26.155  -3.232  30.065  0.00  0.00    -0.004 C 
ENDBRANCH  40  41
ENDBRANCH  35  40
ENDBRANCH  34  36
ENDBRANCH   1  34
TORSDOF 19
