REMARK  Name = outputs/IAG933/test6/raw/output_375_IAG933_linker_design_.xyz
REMARK  16 active torsions:
REMARK  status: ('A' for Active; 'I' for Inactive)
REMARK    1  A    between atoms: C_1  and  C_2
REMARK    2  A    between atoms: C_1  and  C_8
REMARK    3  A    between atoms: C_1  and  N_34
REMARK    4  A    between atoms: C_14  and  C_15
REMARK    5  A    between atoms: C_15  and  O_18
REMARK    6  A    between atoms: O_18  and  C_44
REMARK    7  A    between atoms: C_21  and  O_22
REMARK    8  A    between atoms: O_22  and  C_23
REMARK    9  A    between atoms: C_23  and  C_24
REMARK   10  A    between atoms: C_28  and  N_40
REMARK   11  A    between atoms: C_28  and  C_44
REMARK   12  A    between atoms: C_30  and  N_34
REMARK   13  A    between atoms: C_30  and  N_40
REMARK   14  A    between atoms: C_33  and  C_44
REMARK   15  A    between atoms: C_37  and  C_39
REMARK   16  A    between atoms: C_37  and  N_40
REMARK                            x       y       z     vdW  Elec       q    Type
REMARK                         _______ _______ _______ _____ _____    ______ ____
ROOT
ATOM      1  C   UNL A   1     -25.643   3.556  29.535  0.00  0.00    +0.212 C 
ENDROOT
BRANCH   1   5
ATOM      2  C   UNL A   1     -23.625   8.075  31.641  0.00  0.00    +0.160 C 
ATOM      3  O   UNL A   1     -24.393   4.635  32.001  0.00  0.00    -0.338 OA
ATOM      4  O   UNL A   1     -22.252   7.460  31.861  0.00  0.00    -0.352 OA
ATOM      5  C   UNL A   1     -25.440   4.537  30.760  0.00  0.00    +0.174 C 
ATOM      6  C   UNL A   1     -22.156   6.550  32.833  0.00  0.00    +0.146 C 
ATOM      7  N   UNL A   1     -25.643   6.582  32.163  0.00  0.00    -0.246 NA
ATOM      8  C   UNL A   1     -24.570   5.857  32.872  0.00  0.00    +0.179 C 
ATOM      9  C   UNL A   1     -25.103   7.639  31.272  0.00  0.00    +0.106 C 
ATOM     10  C   UNL A   1     -26.403   5.627  31.287  0.00  0.00    +0.108 C 
ATOM     11  C   UNL A   1     -23.501   6.400  33.581  0.00  0.00    +0.079 C 
ENDBRANCH   1   5
BRANCH   1  12
ATOM     12  C   UNL A   1     -25.421   2.071  29.709  0.00  0.00    +0.120 C 
BRANCH  12  13
ATOM     13  N   UNL A   1     -24.498   1.559  28.516  0.00  0.00    -0.248 NA
BRANCH  13  14
ATOM     14  C   UNL A   1     -25.185   0.366  28.003  0.00  0.00    +0.165 C 
BRANCH  14  15
ATOM     15  N   UNL A   1     -25.713  -0.362  29.195  0.00  0.00    -0.196 NA
BRANCH  15  16
ATOM     16  C   UNL A   1     -24.855  -1.012  30.143  0.00  0.00    +0.112 C 
BRANCH  16  17
ATOM     17  C   UNL A   1     -24.973  -2.505  29.788  0.00  0.00    -0.005 C 
ATOM     18  C   UNL A   1     -23.906  -3.173  29.146  0.00  0.00    -0.003 C 
ATOM     19  C   UNL A   1     -23.989  -4.549  28.853  0.00  0.00    -0.000 C 
ATOM     20  C   UNL A   1     -25.137  -5.280  29.205  0.00  0.00    -0.000 C 
ATOM     21  C   UNL A   1     -26.232  -4.611  29.784  0.00  0.00    -0.000 C 
ATOM     22  C   UNL A   1     -26.155  -3.232  30.065  0.00  0.00    -0.003 C 
ENDBRANCH  16  17
BRANCH  16  23
ATOM     23  C   UNL A   1     -25.387  -0.679  31.571  0.00  0.00    +0.093 C 
ATOM     24  C   UNL A   1     -25.189   0.773  32.028  0.00  0.00    +0.021 C 
ATOM     25  C   UNL A   1     -25.336   0.684  33.544  0.00  0.00    +0.020 C 
ATOM     26  C   UNL A   1     -24.829  -0.715  33.905  0.00  0.00    +0.089 C 
ATOM     27  N   UNL A   1     -24.758  -1.481  32.646  0.00  0.00    -0.218 NA
ENDBRANCH  16  23
ENDBRANCH  15  16
ENDBRANCH  14  15
ENDBRANCH  13  14
BRANCH  13  28
ATOM     28  C   UNL A   1     -23.419   1.829  27.425  0.00  0.00    +0.139 C 
BRANCH  28  30
ATOM     29  C   UNL A   1     -20.920   1.548  27.428  0.00  0.00    +0.074 C 
ATOM     30  C   UNL A   1     -22.239   1.282  28.068  0.00  0.00    +0.167 C 
ATOM     31  O   UNL A   1     -22.244   0.482  29.002  0.00  0.00    -0.295 OA
ENDBRANCH  28  30
ENDBRANCH  13  28
ENDBRANCH  12  13
ENDBRANCH   1  12
BRANCH   1  32
ATOM     32  O   UNL A   1     -25.143   3.966  28.243  0.00  0.00    -0.460 OA
BRANCH  32  33
ATOM     33  C   UNL A   1     -25.642   4.093  27.123  0.00  0.00    +0.222 C 
ATOM     34  N   UNL A   1     -25.614   5.252  26.449  0.00  0.00    -0.236 NA
ATOM     35  C   UNL A   1     -25.026   6.479  26.963  0.00  0.00    +0.155 C 
BRANCH  33  37
ATOM     36  C   UNL A   1     -25.688   1.614  26.461  0.00  0.00    +0.041 C 
ATOM     37  C   UNL A   1     -26.250   2.920  26.395  0.00  0.00    +0.074 C 
ATOM     38  C   UNL A   1     -27.438   3.091  25.645  0.00  0.00    +0.107 C 
ATOM     39  N   UNL A   1     -28.075   2.089  25.003  0.00  0.00    -0.208 NA
ATOM     40  C   UNL A   1     -27.543   0.849  25.079  0.00  0.00    +0.253 C 
ATOM     41  C   UNL A   1     -26.354   0.576  25.777  0.00  0.00    +0.193 C 
ATOM     42  F   UNL A   1     -25.860  -0.681  25.795  0.00  0.00    -0.199 F 
BRANCH  40  43
ATOM     43  O   UNL A   1     -28.193  -0.208  24.477  0.00  0.00    -0.456 OA
BRANCH  43  44
ATOM     44  C   UNL A   1     -29.460   0.005  23.866  0.00  0.00    +0.243 C 
BRANCH  44  45
ATOM     45  C   UNL A   1     -30.065  -1.377  23.573  0.00  0.00    +0.229 C 
ATOM     46  O   UNL A   1     -30.729  -1.878  24.721  0.00  0.00    -0.216 OA
ENDBRANCH  44  45
ENDBRANCH  43  44
ENDBRANCH  40  43
ENDBRANCH  33  37
ENDBRANCH  32  33
ENDBRANCH   1  32
TORSDOF 16
