REMARK  Name = outputs/IAG933/test6/raw/output_3750_IAG933_linker_design_.xyz
REMARK  8 active torsions:
REMARK  status: ('A' for Active; 'I' for Inactive)
REMARK    1  A    between atoms: C_1  and  C_2
REMARK    2  A    between atoms: C_1  and  C_8
REMARK    3  A    between atoms: C_1  and  N_28
REMARK    4  A    between atoms: C_21  and  O_22
REMARK    5  A    between atoms: O_22  and  C_23
REMARK    6  A    between atoms: C_23  and  C_24
REMARK    7  A    between atoms: C_29  and  C_32
REMARK    8  A    between atoms: C_30  and  C_32
REMARK                            x       y       z     vdW  Elec       q    Type
REMARK                         _______ _______ _______ _____ _____    ______ ____
ROOT
ATOM      1  C   UNL A   1     -25.688   1.614  26.461  0.00  0.00    +0.022 C 
ATOM      2  C   UNL A   1     -26.250   2.920  26.395  0.00  0.00    +0.071 C 
ATOM      3  C   UNL A   1     -25.642   4.093  27.123  0.00  0.00    +0.224 C 
ATOM      4  N   UNL A   1     -25.614   5.252  26.449  0.00  0.00    -0.236 NA
ATOM      5  C   UNL A   1     -25.026   6.479  26.963  0.00  0.00    +0.155 C 
ATOM      6  O   UNL A   1     -25.143   3.966  28.243  0.00  0.00    -0.436 OA
ATOM      7  C   UNL A   1     -27.438   3.091  25.645  0.00  0.00    +0.106 C 
ATOM      8  N   UNL A   1     -28.075   2.089  25.003  0.00  0.00    -0.208 NA
ATOM      9  C   UNL A   1     -27.543   0.849  25.079  0.00  0.00    +0.253 C 
ATOM     10  C   UNL A   1     -26.354   0.576  25.777  0.00  0.00    +0.189 C 
ATOM     11  F   UNL A   1     -25.860  -0.681  25.795  0.00  0.00    -0.200 F 
ATOM     12  N   UNL A   1     -23.565  -0.525  29.928  0.00  0.00    -0.031 NA
ATOM     13  C   UNL A   1     -25.361   3.603  29.529  0.00  0.00    +0.302 C 
ATOM     14  C   UNL A   1     -24.007   1.475  28.759  0.00  0.00    +0.234 C 
ATOM     15  C   UNL A   1     -23.159   0.402  29.172  0.00  0.00    +0.365 C 
ATOM     16  C   UNL A   1     -21.154   0.847  27.857  0.00  0.00    +0.234 C 
ATOM     17  O   UNL A   1     -24.403   2.402  29.665  0.00  0.00    -0.309 OA
ATOM     18  C   UNL A   1     -23.058   1.827  26.465  0.00  0.00    +0.194 C 
ATOM     19  C   UNL A   1     -24.185   1.655  27.269  0.00  0.00    +0.101 C 
ATOM     20  C   UNL A   1     -21.705   1.537  26.757  0.00  0.00    +0.059 C 
ATOM     21  N   UNL A   1     -21.823   0.310  28.913  0.00  0.00    -0.035 NA
ATOM     22  F   UNL A   1     -23.164   2.539  25.269  0.00  0.00    -0.232 F 
ENDROOT
BRANCH  12  23
ATOM     23  C   UNL A   1     -24.855  -1.012  30.143  0.00  0.00    +0.243 C 
BRANCH  23  24
ATOM     24  C   UNL A   1     -24.973  -2.505  29.788  0.00  0.00    +0.025 C 
ATOM     25  C   UNL A   1     -23.906  -3.173  29.146  0.00  0.00    -0.000 C 
ATOM     26  C   UNL A   1     -23.989  -4.549  28.853  0.00  0.00    -0.000 C 
ATOM     27  C   UNL A   1     -25.137  -5.280  29.205  0.00  0.00    -0.000 C 
ATOM     28  C   UNL A   1     -26.232  -4.611  29.784  0.00  0.00    -0.000 C 
ATOM     29  C   UNL A   1     -26.155  -3.232  30.065  0.00  0.00    -0.000 C 
ENDBRANCH  23  24
BRANCH  23  30
ATOM     30  C   UNL A   1     -25.387  -0.679  31.571  0.00  0.00    +0.124 C 
ATOM     31  C   UNL A   1     -25.189   0.773  32.028  0.00  0.00    +0.024 C 
ATOM     32  C   UNL A   1     -25.336   0.684  33.544  0.00  0.00    +0.020 C 
ATOM     33  C   UNL A   1     -24.829  -0.715  33.905  0.00  0.00    +0.089 C 
ATOM     34  N   UNL A   1     -24.758  -1.481  32.646  0.00  0.00    -0.215 NA
ENDBRANCH  23  30
ENDBRANCH  12  23
BRANCH   9  35
ATOM     35  O   UNL A   1     -28.193  -0.208  24.477  0.00  0.00    -0.456 OA
BRANCH  35  36
ATOM     36  C   UNL A   1     -29.460   0.005  23.866  0.00  0.00    +0.243 C 
BRANCH  36  37
ATOM     37  C   UNL A   1     -30.065  -1.377  23.573  0.00  0.00    +0.229 C 
ATOM     38  O   UNL A   1     -30.729  -1.878  24.721  0.00  0.00    -0.216 OA
ENDBRANCH  36  37
ENDBRANCH  35  36
ENDBRANCH   9  35
BRANCH  13  39
ATOM     39  C   UNL A   1     -26.080   3.679  30.834  0.00  0.00    +0.209 C 
BRANCH  39  40
ATOM     40  C   UNL A   1     -26.669   4.847  31.264  0.00  0.00    +0.460 C 
ATOM     41  N   UNL A   1     -27.073   5.769  30.318  0.00  0.00    +0.200 NA
ATOM     42  N   UNL A   1     -26.817   5.074  32.515  0.00  0.00    +0.200 NA
ENDBRANCH  39  40
ENDBRANCH  13  39
TORSDOF 8
