MODEL 3750
MODEL 1
REMARK VINA RESULT:    -6.692      0.000      0.000
REMARK INTER + INTRA:         -10.193
REMARK INTER:                  -9.039
REMARK INTRA:                  -1.154
REMARK UNBOUND:                -1.154
REMARK  Name = No_3750-gen_results/8p0m/2024-11-27-11-27-31/
REMARK  6 active torsions:
REMARK  status: ('A' for Active; 'I' for Inactive)
REMARK    1  A    between atoms: C_2  and  C_14
REMARK    2  A    between atoms: C_3  and  C_4
REMARK    3  A    between atoms: C_14  and  O_16
REMARK    4  A    between atoms: O_16  and  C_17
REMARK    5  A    between atoms: C_17  and  C_18
REMARK    6  A    between atoms: C_18  and  C_19
REMARK                            x       y       z     vdW  Elec       q    Type
REMARK                         _______ _______ _______ _____ _____    ______ ____
ROOT
ATOM      1  C   UNL A   1     -23.393  -0.550  28.753  0.00  0.00    +0.006 A 
ATOM      2  C   UNL A   1     -23.279   0.476  28.963  0.00  0.00    +0.076 A 
ATOM      3  C   UNL A   1     -24.299  -1.240  29.680  0.00  0.00    +0.001 A 
ATOM      4  C   UNL A   1     -23.617   1.273  30.110  0.00  0.00    +0.018 A 
ATOM      5  C   UNL A   1     -24.402   0.667  30.979  0.00  0.00    +0.058 A 
ATOM      6  C   UNL A   1     -24.823  -0.627  30.775  0.00  0.00    +0.011 A 
ATOM      7 CL   UNL A   1     -24.993   1.497  32.389  0.00  0.00    -0.082 Cl
ENDROOT
BRANCH   3   8
ATOM      8  C   UNL A   1     -24.733  -2.626  29.423  0.00  0.00    +0.000 A 
ATOM      9  C   UNL A   1     -25.843  -3.135  29.900  0.00  0.00    +0.000 A 
ATOM     10  C   UNL A   1     -26.186  -4.467  29.699  0.00  0.00    +0.000 A 
ATOM     11  C   UNL A   1     -25.285  -5.334  29.070  0.00  0.00    +0.000 A 
ATOM     12  C   UNL A   1     -24.112  -4.822  28.569  0.00  0.00    +0.000 A 
ATOM     13  C   UNL A   1     -23.800  -3.515  28.728  0.00  0.00    +0.000 A 
ENDBRANCH   3   8
BRANCH   2  14
ATOM     14  C   UNL A   1     -22.301   1.299  27.948  0.00  0.00    +0.341 C 
ATOM     15  O   UNL A   1     -21.319   1.158  27.718  0.00  0.00    -0.245 OA
BRANCH  14  16
ATOM     16  O   UNL A   1     -23.054   2.365  27.437  0.00  0.00    -0.445 OA
BRANCH  16  17
ATOM     17  C   UNL A   1     -23.099   2.257  26.056  0.00  0.00    +0.221 C 
BRANCH  17  18
ATOM     18  C   UNL A   1     -24.235   1.339  25.684  0.00  0.00    +0.161 C 
BRANCH  18  19
ATOM     19  C   UNL A   1     -25.481   1.788  26.069  0.00  0.00    +0.369 C 
ATOM     20  O   UNL A   1     -25.750   2.795  25.645  0.00  0.00    -0.245 OA
ATOM     21  O   UNL A   1     -26.127   1.242  27.044  0.00  0.00    -0.245 OA
ENDBRANCH  18  19
ENDBRANCH  17  18
ENDBRANCH  16  17
ENDBRANCH  14  16
ENDBRANCH   2  14
TORSDOF 6
ENDMDL
ENDMDL
