REMARK  Name = outputs/IAG933/test6/raw/output_3751_IAG933_linker_design_.xyz
REMARK  14 active torsions:
REMARK  status: ('A' for Active; 'I' for Inactive)
REMARK    1  A    between atoms: C_1  and  C_2
REMARK    2  A    between atoms: C_1  and  C_8
REMARK    3  A    between atoms: C_9  and  C_43
REMARK    4  A    between atoms: C_13  and  O_38
REMARK    5  A    between atoms: C_14  and  C_15
REMARK    6  A    between atoms: C_21  and  O_22
REMARK    7  A    between atoms: O_22  and  C_23
REMARK    8  A    between atoms: C_23  and  C_24
REMARK    9  A    between atoms: N_29  and  CA_36
REMARK   10  A    between atoms: O_30  and  C_39
REMARK   11  A    between atoms: O_30  and  C_43
REMARK   12  A    between atoms: C_33  and  CA_36
REMARK   13  A    between atoms: CA_36  and  C_43
REMARK   14  A    between atoms: O_38  and  C_42
REMARK                            x       y       z     vdW  Elec       q    Type
REMARK                         _______ _______ _______ _____ _____    ______ ____
ROOT
ATOM      1  C   UNL A   1     -21.974   0.732  29.057  0.00  0.00    +0.007 C 
ATOM      2  N   UNL A   1     -21.750   1.925  25.945  0.00  0.00    -0.176 NA
ATOM      3  C   UNL A   1     -20.844   1.579  26.952  0.00  0.00    +0.088 C 
ATOM      4  C   UNL A   1     -20.941   0.917  28.108  0.00  0.00    +0.016 C 
ATOM      5  C   UNL A   1     -23.224   1.190  28.907  0.00  0.00    +0.173 C 
ATOM      6  O   UNL A   1     -23.607   1.396  24.841  0.00  0.00    -0.270 OA
ATOM      7  C   UNL A   1     -23.018   1.578  25.983  0.00  0.00    +0.276 C 
ATOM      8  C   UNL A   1     -23.787   1.354  27.494  0.00  0.00    +0.225 C 
ENDROOT
BRANCH   5   9
ATOM      9  O   UNL A   1     -23.850   1.554  30.117  0.00  0.00    -0.350 OA
BRANCH   9  10
ATOM     10  C   UNL A   1     -24.677   1.742  31.210  0.00  0.00    +0.136 C 
BRANCH  10  12
ATOM     11  C   UNL A   1     -25.387  -0.679  31.571  0.00  0.00    +0.080 C 
ATOM     12  C   UNL A   1     -25.189   0.773  32.028  0.00  0.00    +0.046 C 
ATOM     13  C   UNL A   1     -25.336   0.684  33.544  0.00  0.00    +0.023 C 
ATOM     14  C   UNL A   1     -24.829  -0.715  33.905  0.00  0.00    +0.089 C 
ATOM     15  N   UNL A   1     -24.758  -1.481  32.646  0.00  0.00    -0.219 NA
BRANCH  11  16
ATOM     16  C   UNL A   1     -24.855  -1.012  30.143  0.00  0.00    +0.044 C 
BRANCH  16  17
ATOM     17  C   UNL A   1     -24.973  -2.505  29.788  0.00  0.00    -0.021 C 
ATOM     18  C   UNL A   1     -23.906  -3.173  29.146  0.00  0.00    -0.004 C 
ATOM     19  C   UNL A   1     -23.989  -4.549  28.853  0.00  0.00    -0.000 C 
ATOM     20  C   UNL A   1     -25.137  -5.280  29.205  0.00  0.00    -0.000 C 
ATOM     21  C   UNL A   1     -26.232  -4.611  29.784  0.00  0.00    -0.000 C 
ATOM     22  C   UNL A   1     -26.155  -3.232  30.065  0.00  0.00    -0.004 C 
ENDBRANCH  16  17
ENDBRANCH  11  16
ENDBRANCH  10  12
BRANCH  10  23
ATOM     23  CA  UNL A   1     -24.980   3.241  31.691  0.00  0.00    +0.133 C 
BRANCH  23  24
ATOM     24  N   UNL A   1     -25.555   4.174  30.925  0.00  0.00    -0.213 NA
ATOM     25  C   UNL A   1     -25.166   5.586  31.276  0.00  0.00    +0.108 C 
ENDBRANCH  23  24
BRANCH  23  27
ATOM     26  O   UNL A   1     -25.547   3.409  34.040  0.00  0.00    -0.219 OA
ATOM     27  C   UNL A   1     -24.800   3.974  33.046  0.00  0.00    +0.202 C 
ENDBRANCH  23  27
ENDBRANCH  10  23
ENDBRANCH   9  10
ENDBRANCH   5   9
BRANCH   8  28
ATOM     28  O   UNL A   1     -24.843   1.235  27.441  0.00  0.00    -0.339 OA
BRANCH  28  29
ATOM     29  C   UNL A   1     -25.688   1.614  26.461  0.00  0.00    +0.185 C 
ATOM     30  C   UNL A   1     -26.250   2.920  26.395  0.00  0.00    +0.082 C 
ATOM     31  C   UNL A   1     -27.438   3.091  25.645  0.00  0.00    +0.104 C 
ATOM     32  N   UNL A   1     -28.075   2.089  25.003  0.00  0.00    -0.212 NA
ATOM     33  C   UNL A   1     -27.543   0.849  25.079  0.00  0.00    +0.237 C 
ATOM     34  C   UNL A   1     -26.354   0.576  25.777  0.00  0.00    +0.267 C 
ATOM     35  F   UNL A   1     -25.860  -0.681  25.795  0.00  0.00    -0.224 F 
BRANCH  30  36
ATOM     36  C   UNL A   1     -25.642   4.093  27.123  0.00  0.00    +0.265 C 
ATOM     37  N   UNL A   1     -25.614   5.252  26.449  0.00  0.00    -0.200 NA
ATOM     38  C   UNL A   1     -25.026   6.479  26.963  0.00  0.00    +0.139 C 
ATOM     39  O   UNL A   1     -25.143   3.966  28.243  0.00  0.00    -0.269 OA
ENDBRANCH  30  36
BRANCH  33  40
ATOM     40  O   UNL A   1     -28.193  -0.208  24.477  0.00  0.00    -0.459 OA
BRANCH  40  41
ATOM     41  C   UNL A   1     -29.460   0.005  23.866  0.00  0.00    +0.242 C 
BRANCH  41  42
ATOM     42  C   UNL A   1     -30.065  -1.377  23.573  0.00  0.00    +0.229 C 
ATOM     43  O   UNL A   1     -30.729  -1.878  24.721  0.00  0.00    -0.216 OA
ENDBRANCH  41  42
ENDBRANCH  40  41
ENDBRANCH  33  40
ENDBRANCH  28  29
ENDBRANCH   8  28
TORSDOF 14
