MODEL 3751
MODEL 1
REMARK VINA RESULT:    -6.286      0.000      0.000
REMARK INTER + INTRA:          -7.120
REMARK INTER:                  -7.021
REMARK INTRA:                  -0.099
REMARK UNBOUND:                -0.099
REMARK  Name = No_3751-gen_results/8p0m/2024-11-27-11-27-31/
REMARK  2 active torsions:
REMARK  status: ('A' for Active; 'I' for Inactive)
REMARK    1  A    between atoms: C_2  and  C_13
REMARK    2  A    between atoms: C_9  and  C_11
REMARK                            x       y       z     vdW  Elec       q    Type
REMARK                         _______ _______ _______ _____ _____    ______ ____
ROOT
ATOM      1  C   UNL A   1     -27.967 -11.877  31.482  0.00  0.00    +0.007 A 
ATOM      2  C   UNL A   1     -28.190 -11.455  32.422  0.00  0.00    +0.080 A 
ATOM      3  C   UNL A   1     -28.842 -11.414  30.339  0.00  0.00    +0.000 A 
ATOM      4  C   UNL A   1     -28.842 -11.941  28.997  0.00  0.00    +0.001 A 
ATOM      5  C   UNL A   1     -29.050 -10.330  32.812  0.00  0.00    +0.007 A 
ATOM      6  C   UNL A   1     -29.861  -9.834  31.814  0.00  0.00    +0.000 A 
ATOM      7  C   UNL A   1     -29.770 -10.329  30.539  0.00  0.00    +0.001 A 
ATOM      8  C   UNL A   1     -29.939 -11.735  28.140  0.00  0.00    +0.010 A 
ATOM      9  C   UNL A   1     -30.777 -10.618  28.374  0.00  0.00    +0.068 A 
ATOM     10  C   UNL A   1     -30.772 -10.001  29.552  0.00  0.00    +0.010 A 
ENDROOT
BRANCH   2  11
ATOM     11  C   UNL A   1     -27.247 -11.879  33.637  0.00  0.00    +0.388 C 
ATOM     12  O   UNL A   1     -27.183 -11.108  34.645  0.00  0.00    -0.241 OA
ATOM     13  O   UNL A   1     -26.711 -12.974  33.620  0.00  0.00    -0.241 OA
ENDBRANCH   2  11
BRANCH   9  14
ATOM     14  C   UNL A   1     -31.803 -10.311  27.337  0.00  0.00    +0.100 C 
ATOM     15  N   UNL A   1     -32.799  -9.834  26.998  0.00  0.00    -0.191 NA
ENDBRANCH   9  14
TORSDOF 2
ENDMDL
ENDMDL
