MODEL 3752
MODEL 1
REMARK VINA RESULT:    -4.298      0.000      0.000
REMARK INTER + INTRA:          -4.298
REMARK INTER:                  -4.298
REMARK INTRA:                   0.000
REMARK UNBOUND:                 0.000
REMARK  Name = No_3752-gen_results/8p0m/2024-11-27-11-27-31/
REMARK  0 active torsions:
REMARK  status: ('A' for Active; 'I' for Inactive)
REMARK                            x       y       z     vdW  Elec       q    Type
REMARK                         _______ _______ _______ _____ _____    ______ ____
ROOT
ATOM      1  C   UNL A   1     -24.947  -5.399  28.968  0.00  0.00    +0.000 A 
ATOM      2  C   UNL A   1     -24.183  -4.717  28.720  0.00  0.00    +0.000 A 
ATOM      3  C   UNL A   1     -26.107  -4.773  29.602  0.00  0.00    +0.000 A 
ATOM      4  C   UNL A   1     -26.177  -3.419  29.823  0.00  0.00    +0.000 A 
ATOM      5  C   UNL A   1     -23.986  -3.272  28.828  0.00  0.00    +0.000 A 
ATOM      6  C   UNL A   1     -25.104  -2.656  29.440  0.00  0.00    +0.000 A 
ENDROOT
TORSDOF 0
ENDMDL
ENDMDL
