MODEL 3754
MODEL 1
REMARK VINA RESULT:    -6.028      0.000      0.000
REMARK INTER + INTRA:          -7.322
REMARK INTER:                  -7.085
REMARK INTRA:                  -0.236
REMARK UNBOUND:                -0.236
REMARK  Name = No_3754-gen_results/8p0m/2024-11-27-11-27-31/
REMARK  3 active torsions:
REMARK  status: ('A' for Active; 'I' for Inactive)
REMARK    1  A    between atoms: C_1  and  C_2
REMARK    2  A    between atoms: C_1  and  N_8
REMARK    3  A    between atoms: C_5  and  C_9
REMARK                            x       y       z     vdW  Elec       q    Type
REMARK                         _______ _______ _______ _____ _____    ______ ____
ROOT
ATOM      1  C   UNL A   1     -23.858  -1.964  29.135  0.00  0.00    +0.002 A 
ATOM      2  C   UNL A   1     -22.665  -1.310  29.372  0.00  0.00    -0.002 A 
ATOM      3  C   UNL A   1     -22.276  -0.029  28.812  0.00  0.00    +0.006 A 
ATOM      4  C   UNL A   1     -23.167   0.628  27.935  0.00  0.00    +0.080 A 
ATOM      5  C   UNL A   1     -24.421  -0.037  27.690  0.00  0.00    +0.006 A 
ATOM      6  C   UNL A   1     -24.784  -1.234  28.262  0.00  0.00    -0.002 A 
ENDROOT
BRANCH   4   7
ATOM      7  C   UNL A   1     -22.866   1.880  27.320  0.00  0.00    +0.388 C 
ATOM      8  O   UNL A   1     -23.484   2.865  27.699  0.00  0.00    -0.241 OA
ATOM      9  O   UNL A   1     -21.835   1.937  26.498  0.00  0.00    -0.241 OA
ENDBRANCH   4   7
BRANCH   1  10
ATOM     10  C   UNL A   1     -24.172  -3.000  29.673  0.00  0.00    +0.157 C 
BRANCH  10  11
ATOM     11  N   UNL A   1     -24.269  -4.192  28.856  0.00  0.00    -0.214 NA
ATOM     12  C   UNL A   1     -25.264  -5.106  28.993  0.00  0.00    +0.362 C 
ATOM     13  F   UNL A   1     -25.768  -5.253  29.939  0.00  0.00    -0.151 F 
ATOM     14  F   UNL A   1     -24.790  -6.317  28.453  0.00  0.00    -0.151 F 
ENDBRANCH  10  11
ENDBRANCH   1  10
TORSDOF 3
ENDMDL
ENDMDL
