REMARK  Name = outputs/IAG933/test6/raw/output_3754_IAG933_linker_design_.xyz
REMARK  12 active torsions:
REMARK  status: ('A' for Active; 'I' for Inactive)
REMARK    1  A    between atoms: C_1  and  C_2
REMARK    2  A    between atoms: C_1  and  C_8
REMARK    3  A    between atoms: C_1  and  N_39
REMARK    4  A    between atoms: C_13  and  N_33
REMARK    5  A    between atoms: C_14  and  C_15
REMARK    6  A    between atoms: C_21  and  O_22
REMARK    7  A    between atoms: O_22  and  C_23
REMARK    8  A    between atoms: C_23  and  C_24
REMARK    9  A    between atoms: N_33  and  C_34
REMARK   10  A    between atoms: N_33  and  C_42
REMARK   11  A    between atoms: C_34  and  C_35
REMARK   12  A    between atoms: C_34  and  N_39
REMARK                            x       y       z     vdW  Elec       q    Type
REMARK                         _______ _______ _______ _____ _____    ______ ____
ROOT
ATOM      1  C   UNL A   1     -25.795   0.782  28.667  0.00  0.00    +0.156 C 
ENDROOT
BRANCH   1   5
ATOM      2  C   UNL A   1     -29.411  -0.963  29.683  0.00  0.00    +0.192 C 
ATOM      3  C   UNL A   1     -28.202  -0.733  28.995  0.00  0.00    +0.040 C 
ATOM      4  O   UNL A   1     -30.213  -2.034  29.394  0.00  0.00    -0.287 OA
ATOM      5  C   UNL A   1     -27.338   0.393  29.293  0.00  0.00    +0.012 C 
ATOM      6  C   UNL A   1     -31.164  -0.236  31.476  0.00  0.00    +0.034 C 
ATOM      7  C   UNL A   1     -28.981   1.071  30.970  0.00  0.00    -0.001 C 
ATOM      8  C   UNL A   1     -29.832   0.009  30.683  0.00  0.00    +0.017 C 
ATOM      9  C   UNL A   1     -27.777   1.310  30.264  0.00  0.00    -0.002 C 
ENDBRANCH   1   5
BRANCH   1  10
ATOM     10  N   UNL A   1     -24.732   1.245  27.487  0.00  0.00    -0.250 NA
BRANCH  10  11
ATOM     11  C   UNL A   1     -25.688   1.614  26.461  0.00  0.00    +0.130 C 
ATOM     12  C   UNL A   1     -26.250   2.920  26.395  0.00  0.00    +0.070 C 
ATOM     13  C   UNL A   1     -27.438   3.091  25.645  0.00  0.00    +0.103 C 
ATOM     14  N   UNL A   1     -28.075   2.089  25.003  0.00  0.00    -0.212 NA
ATOM     15  C   UNL A   1     -27.543   0.849  25.079  0.00  0.00    +0.235 C 
ATOM     16  C   UNL A   1     -26.354   0.576  25.777  0.00  0.00    +0.255 C 
ATOM     17  F   UNL A   1     -25.860  -0.681  25.795  0.00  0.00    -0.225 F 
BRANCH  12  18
ATOM     18  C   UNL A   1     -25.642   4.093  27.123  0.00  0.00    +0.264 C 
ATOM     19  N   UNL A   1     -25.614   5.252  26.449  0.00  0.00    -0.200 NA
ATOM     20  C   UNL A   1     -25.026   6.479  26.963  0.00  0.00    +0.139 C 
ATOM     21  O   UNL A   1     -25.143   3.966  28.243  0.00  0.00    -0.269 OA
ENDBRANCH  12  18
BRANCH  15  22
ATOM     22  O   UNL A   1     -28.193  -0.208  24.477  0.00  0.00    -0.459 OA
BRANCH  22  23
ATOM     23  C   UNL A   1     -29.460   0.005  23.866  0.00  0.00    +0.242 C 
BRANCH  23  24
ATOM     24  C   UNL A   1     -30.065  -1.377  23.573  0.00  0.00    +0.229 C 
ATOM     25  O   UNL A   1     -30.729  -1.878  24.721  0.00  0.00    -0.216 OA
ENDBRANCH  23  24
ENDBRANCH  22  23
ENDBRANCH  15  22
ENDBRANCH  10  11
BRANCH  10  30
ATOM     26  C   UNL A   1     -22.306   1.141  27.946  0.00  0.00    +0.167 C 
ATOM     27  C   UNL A   1     -21.307   1.778  26.953  0.00  0.00    +0.036 C 
ATOM     28  O   UNL A   1     -22.515  -0.139  28.636  0.00  0.00    -0.222 OA
ATOM     29  C   UNL A   1     -22.554   2.215  25.990  0.00  0.00    +0.021 C 
ATOM     30  C   UNL A   1     -23.412   1.385  26.994  0.00  0.00    +0.090 C 
ENDBRANCH  10  30
ENDBRANCH   1  10
BRANCH   1  31
ATOM     31  N   UNL A   1     -25.108  -0.386  28.936  0.00  0.00    -0.195 NA
BRANCH  31  32
ATOM     32  C   UNL A   1     -24.855  -1.012  30.143  0.00  0.00    +0.113 C 
BRANCH  32  33
ATOM     33  C   UNL A   1     -24.973  -2.505  29.788  0.00  0.00    -0.005 C 
ATOM     34  C   UNL A   1     -23.906  -3.173  29.146  0.00  0.00    -0.003 C 
ATOM     35  C   UNL A   1     -23.989  -4.549  28.853  0.00  0.00    -0.000 C 
ATOM     36  C   UNL A   1     -25.137  -5.280  29.205  0.00  0.00    -0.000 C 
ATOM     37  C   UNL A   1     -26.232  -4.611  29.784  0.00  0.00    -0.000 C 
ATOM     38  C   UNL A   1     -26.155  -3.232  30.065  0.00  0.00    -0.003 C 
ENDBRANCH  32  33
BRANCH  32  39
ATOM     39  C   UNL A   1     -25.387  -0.679  31.571  0.00  0.00    +0.093 C 
ATOM     40  C   UNL A   1     -25.189   0.773  32.028  0.00  0.00    +0.021 C 
ATOM     41  C   UNL A   1     -25.336   0.684  33.544  0.00  0.00    +0.020 C 
ATOM     42  C   UNL A   1     -24.829  -0.715  33.905  0.00  0.00    +0.089 C 
ATOM     43  N   UNL A   1     -24.758  -1.481  32.646  0.00  0.00    -0.218 NA
ENDBRANCH  32  39
ENDBRANCH  31  32
ENDBRANCH   1  31
TORSDOF 12
