REMARK  Name = No_3755-gen_results/8p0m/2024-11-27-11-27-31/
REMARK  2 active torsions:
REMARK  status: ('A' for Active; 'I' for Inactive)
REMARK    1  A    between atoms: C_4  and  C_8
REMARK    2  A    between atoms: C_8  and  C_9
REMARK                            x       y       z     vdW  Elec       q    Type
REMARK                         _______ _______ _______ _____ _____    ______ ____
ROOT
ATOM      1  C   UNL A   1     -24.375  -1.071  30.062  0.00  0.00    +0.019 C 
ATOM      2  C   UNL A   1     -23.974  -2.039  31.139  0.00  0.00    +0.004 C 
ATOM      3  C   UNL A   1     -23.894  -1.753  28.668  0.00  0.00    +0.004 C 
ENDROOT
BRANCH   1   7
ATOM      4  C   UNL A   1     -28.016  -0.814  28.878  0.00  0.00    +0.029 A 
ATOM      5  C   UNL A   1     -28.469  -0.785  29.829  0.00  0.00    +0.140 A 
ATOM      6  C   UNL A   1     -26.546  -0.876  28.850  0.00  0.00    -0.002 A 
ATOM      7  C   UNL A   1     -25.804  -1.032  30.057  0.00  0.00    -0.023 A 
ATOM      8  C   UNL A   1     -27.944  -0.987  31.207  0.00  0.00    +0.029 A 
ATOM      9  C   UNL A   1     -26.582  -1.039  31.223  0.00  0.00    -0.002 A 
ATOM     10  F   UNL A   1     -29.893  -0.849  29.980  0.00  0.00    -0.204 F 
ENDBRANCH   1   7
BRANCH   1  11
ATOM     11  C   UNL A   1     -23.710   0.216  30.092  0.00  0.00    +0.004 C 
ATOM     12  C   UNL A   1     -23.181   0.806  28.941  0.00  0.00    +0.000 C 
ATOM     13  C   UNL A   1     -23.641   2.018  28.411  0.00  0.00    +0.000 C 
ATOM     14  C   UNL A   1     -24.655   2.617  29.069  0.00  0.00    +0.000 C 
ATOM     15  C   UNL A   1     -24.881   2.407  30.460  0.00  0.00    +0.000 C 
ATOM     16  C   UNL A   1     -24.918   1.152  30.637  0.00  0.00    +0.000 C 
ATOM     17  C   UNL A   1     -22.559   0.242  31.177  0.00  0.00    +0.000 C 
ENDBRANCH   1  11
TORSDOF 2
