MODEL 3755
MODEL 1
REMARK VINA RESULT:    -6.825      0.000      0.000
REMARK INTER + INTRA:          -8.370
REMARK INTER:                  -7.623
REMARK INTRA:                  -0.747
REMARK UNBOUND:                -0.747
REMARK  Name = No_3755-gen_results/8p0m/2024-11-27-11-27-31/
REMARK  2 active torsions:
REMARK  status: ('A' for Active; 'I' for Inactive)
REMARK    1  A    between atoms: C_4  and  C_8
REMARK    2  A    between atoms: C_8  and  C_9
REMARK                            x       y       z     vdW  Elec       q    Type
REMARK                         _______ _______ _______ _____ _____    ______ ____
ROOT
ATOM      1  C   UNL A   1     -25.063  -0.571  28.547  0.00  0.00    +0.019 C 
ATOM      2  C   UNL A   1     -25.224  -0.437  27.059  0.00  0.00    +0.004 C 
ATOM      3  C   UNL A   1     -26.425   0.044  29.185  0.00  0.00    +0.004 C 
ENDROOT
BRANCH   1   7
ATOM      4  C   UNL A   1     -24.045  -4.270  28.604  0.00  0.00    +0.029 A 
ATOM      5  C   UNL A   1     -24.889  -4.638  29.117  0.00  0.00    +0.140 A 
ATOM      6  C   UNL A   1     -24.028  -2.827  28.313  0.00  0.00    -0.002 A 
ATOM      7  C   UNL A   1     -25.042  -1.971  28.833  0.00  0.00    -0.023 A 
ATOM      8  C   UNL A   1     -26.028  -3.968  29.804  0.00  0.00    +0.029 A 
ATOM      9  C   UNL A   1     -26.051  -2.630  29.549  0.00  0.00    -0.002 A 
ATOM     10  F   UNL A   1     -24.958  -5.998  29.562  0.00  0.00    -0.204 F 
ENDBRANCH   1   7
BRANCH   1  11
ATOM     11  C   UNL A   1     -23.994   0.209  29.137  0.00  0.00    +0.004 C 
ATOM     12  C   UNL A   1     -22.919  -0.387  29.802  0.00  0.00    +0.000 C 
ATOM     13  C   UNL A   1     -21.591  -0.291  29.368  0.00  0.00    +0.000 C 
ATOM     14  C   UNL A   1     -21.376   0.417  28.240  0.00  0.00    +0.000 C 
ATOM     15  C   UNL A   1     -22.257   1.456  27.821  0.00  0.00    +0.000 C 
ATOM     16  C   UNL A   1     -23.425   0.963  27.818  0.00  0.00    +0.000 C 
ATOM     17  C   UNL A   1     -24.564   1.318  30.112  0.00  0.00    +0.000 C 
ENDBRANCH   1  11
TORSDOF 2
ENDMDL
ENDMDL
