MODEL 3756
MODEL 1
REMARK VINA RESULT:    -7.503      0.000      0.000
REMARK INTER + INTRA:          -7.503
REMARK INTER:                  -7.503
REMARK INTRA:                   0.000
REMARK UNBOUND:                 0.000
REMARK  Name = No_3756-gen_results/8p0m/2024-11-27-11-27-31/
REMARK  0 active torsions:
REMARK  status: ('A' for Active; 'I' for Inactive)
REMARK                            x       y       z     vdW  Elec       q    Type
REMARK                         _______ _______ _______ _____ _____    ______ ____
ROOT
ATOM      1  C   UNL A   1     -22.401   0.259  28.666  0.00  0.00    -0.003 A 
ATOM      2  C   UNL A   1     -22.702   1.264  28.562  0.00  0.00    +0.003 A 
ATOM      3  C   UNL A   1     -23.409  -0.719  28.812  0.00  0.00    -0.001 A 
ATOM      4  C   UNL A   1     -23.162  -2.184  28.859  0.00  0.00    +0.055 C 
ATOM      5  C   UNL A   1     -24.039   1.882  28.552  0.00  0.00    +0.039 A 
ATOM      6  C   UNL A   1     -25.088   0.973  28.695  0.00  0.00    +0.158 A 
ATOM      7  C   UNL A   1     -24.808  -0.353  28.781  0.00  0.00    +0.083 A 
ATOM      8  C   UNL A   1     -24.252  -3.023  29.243  0.00  0.00    -0.004 A 
ATOM      9  C   UNL A   1     -24.294  -4.258  28.905  0.00  0.00    -0.003 A 
ATOM     10  C   UNL A   1     -25.603  -5.034  29.187  0.00  0.00    -0.000 A 
ATOM     11  C   UNL A   1     -26.657  -4.353  29.823  0.00  0.00    +0.001 A 
ATOM     12  C   UNL A   1     -26.484  -3.059  30.211  0.00  0.00    +0.015 A 
ATOM     13  C   UNL A   1     -25.352  -2.323  29.831  0.00  0.00    +0.048 A 
ATOM     14  N   UNL A   1     -25.585  -0.990  29.686  0.00  0.00    -0.281 N 
ATOM     15  C   UNL A   1     -26.692  -0.406  30.378  0.00  0.00    +0.125 C 
ATOM     16  C   UNL A   1     -26.388   0.578  31.189  0.00  0.00    +0.033 A 
ATOM     17  C   UNL A   1     -26.638   0.575  32.238  0.00  0.00    +0.000 A 
ATOM     18  C   UNL A   1     -26.060   1.577  33.185  0.00  0.00    -0.000 A 
ATOM     19  C   UNL A   1     -25.326   2.592  32.644  0.00  0.00    +0.003 A 
ATOM     20  C   UNL A   1     -25.036   2.613  31.358  0.00  0.00    +0.037 A 
ATOM     21  C   UNL A   1     -25.550   1.597  30.550  0.00  0.00    +0.143 A 
ATOM     22  O   UNL A   1     -26.004   1.966  29.499  0.00  0.00    -0.453 OA
ENDROOT
TORSDOF 0
ENDMDL
ENDMDL
