REMARK  Name = No_3756-gen_results/8p0m/2024-11-27-11-27-31/
REMARK  0 active torsions:
REMARK  status: ('A' for Active; 'I' for Inactive)
REMARK                            x       y       z     vdW  Elec       q    Type
REMARK                         _______ _______ _______ _____ _____    ______ ____
ROOT
ATOM      1  C   UNL A   1     -28.016  -0.814  28.878  0.00  0.00    -0.003 A 
ATOM      2  C   UNL A   1     -28.469  -0.785  29.829  0.00  0.00    +0.003 A 
ATOM      3  C   UNL A   1     -27.136   0.236  28.535  0.00  0.00    -0.001 A 
ATOM      4  C   UNL A   1     -26.335   0.290  27.284  0.00  0.00    +0.055 C 
ATOM      5  C   UNL A   1     -28.369   0.196  30.924  0.00  0.00    +0.039 A 
ATOM      6  C   UNL A   1     -27.516   1.266  30.654  0.00  0.00    +0.158 A 
ATOM      7  C   UNL A   1     -26.841   1.294  29.476  0.00  0.00    +0.083 A 
ATOM      8  C   UNL A   1     -25.677   1.520  26.977  0.00  0.00    -0.004 A 
ATOM      9  C   UNL A   1     -24.651   1.554  26.210  0.00  0.00    -0.003 A 
ATOM     10  C   UNL A   1     -23.884   2.893  26.098  0.00  0.00    -0.000 A 
ATOM     11  C   UNL A   1     -24.371   4.001  26.816  0.00  0.00    +0.001 A 
ATOM     12  C   UNL A   1     -25.515   3.880  27.545  0.00  0.00    +0.015 A 
ATOM     13  C   UNL A   1     -26.126   2.635  27.753  0.00  0.00    +0.048 A 
ATOM     14  N   UNL A   1     -26.782   2.534  28.941  0.00  0.00    -0.281 N 
ATOM     15  C   UNL A   1     -27.226   3.732  29.584  0.00  0.00    +0.125 C 
ATOM     16  C   UNL A   1     -28.513   3.793  29.824  0.00  0.00    +0.033 A 
ATOM     17  C   UNL A   1     -29.143   4.590  29.461  0.00  0.00    +0.000 A 
ATOM     18  C   UNL A   1     -30.634   4.503  29.526  0.00  0.00    -0.000 A 
ATOM     19  C   UNL A   1     -31.166   3.446  30.204  0.00  0.00    +0.003 A 
ATOM     20  C   UNL A   1     -30.399   2.479  30.669  0.00  0.00    +0.037 A 
ATOM     21  C   UNL A   1     -29.018   2.595  30.501  0.00  0.00    +0.143 A 
ATOM     22  O   UNL A   1     -28.364   2.309  31.469  0.00  0.00    -0.453 OA
ENDROOT
TORSDOF 0
