MODEL 3757
MODEL 1
REMARK VINA RESULT:    -6.296      0.000      0.000
REMARK INTER + INTRA:          -7.912
REMARK INTER:                  -7.032
REMARK INTRA:                  -0.880
REMARK UNBOUND:                -0.880
REMARK  Name = No_3757-gen_results/8p0m/2024-11-27-11-27-31/
REMARK  2 active torsions:
REMARK  status: ('A' for Active; 'I' for Inactive)
REMARK    1  A    between atoms: C_3  and  C_8
REMARK    2  A    between atoms: C_10  and  C_12
REMARK                            x       y       z     vdW  Elec       q    Type
REMARK                         _______ _______ _______ _____ _____    ______ ____
ROOT
ATOM      1  C   UNL A   1     -24.284  -2.316  29.434  0.00  0.00    +0.025 C 
ATOM      2  C   UNL A   1     -25.087  -2.125  30.564  0.00  0.00    +0.010 C 
ATOM      3  C   UNL A   1     -26.489  -2.211  30.411  0.00  0.00    +0.044 C 
ATOM      4  C   UNL A   1     -26.965  -3.331  30.102  0.00  0.00    +0.006 C 
ATOM      5  C   UNL A   1     -26.242  -4.418  29.687  0.00  0.00    +0.000 C 
ATOM      6  C   UNL A   1     -23.841  -3.618  29.024  0.00  0.00    +0.004 C 
ATOM      7  C   UNL A   1     -25.070  -4.479  28.847  0.00  0.00    +0.000 C 
ENDROOT
BRANCH   1  10
ATOM      8  F   UNL A   1     -25.462  -0.886  27.539  0.00  0.00    -0.204 F 
ATOM      9  C   UNL A   1     -24.495  -0.469  27.782  0.00  0.00    +0.136 A 
ATOM     10  C   UNL A   1     -23.785  -1.125  28.749  0.00  0.00    +0.005 A 
ATOM     11  C   UNL A   1     -22.413  -0.771  29.173  0.00  0.00    -0.002 A 
ATOM     12  C   UNL A   1     -23.906   0.705  27.196  0.00  0.00    +0.029 A 
ATOM     13  C   UNL A   1     -22.574   1.091  27.614  0.00  0.00    +0.002 A 
ATOM     14  C   UNL A   1     -21.865   0.356  28.585  0.00  0.00    -0.000 A 
ENDBRANCH   1  10
BRANCH   3  15
ATOM     15  C   UNL A   1     -27.258  -1.067  30.892  0.00  0.00    +0.095 C 
ATOM     16  N   UNL A   1     -26.861   0.100  30.609  0.00  0.00    -0.151 NA
ENDBRANCH   3  15
TORSDOF 2
ENDMDL
ENDMDL
