MODEL 3758
MODEL 1
REMARK VINA RESULT:    -7.403      0.000      0.000
REMARK INTER + INTRA:          -8.691
REMARK INTER:                  -8.269
REMARK INTRA:                  -0.421
REMARK UNBOUND:                -0.421
REMARK  Name = No_3758-gen_results/8p0m/2024-11-27-11-27-31/
REMARK  2 active torsions:
REMARK  status: ('A' for Active; 'I' for Inactive)
REMARK    1  A    between atoms: C_4  and  C_7
REMARK    2  A    between atoms: C_7  and  C_8
REMARK                            x       y       z     vdW  Elec       q    Type
REMARK                         _______ _______ _______ _____ _____    ______ ____
ROOT
ATOM      1  C   UNL A   1     -23.706  -0.589  29.507  0.00  0.00    +0.136 C 
ATOM      2  C   UNL A   1     -24.147   0.299  28.802  0.00  0.00    +0.304 C 
ATOM      3  N   UNL A   1     -24.246   1.536  29.307  0.00  0.00    -0.041 NA
ATOM      4  C   UNL A   1     -23.443   0.102  30.856  0.00  0.00    +0.036 C 
ATOM      5  C   UNL A   1     -23.743   1.348  30.686  0.00  0.00    +0.231 C 
ATOM      6  N   UNL A   1     -24.671   0.185  27.452  0.00  0.00    -0.194 N 
ATOM      7  C   UNL A   1     -25.945  -0.136  27.111  0.00  0.00    +0.202 C 
ATOM      8  C   UNL A   1     -23.972   0.931  26.436  0.00  0.00    +0.202 C 
ATOM      9  C   UNL A   1     -24.400   0.744  25.102  0.00  0.00    +0.051 C 
ATOM     10  C   UNL A   1     -25.758   0.409  24.840  0.00  0.00    +0.009 C 
ATOM     11  C   UNL A   1     -26.499   0.401  25.588  0.00  0.00    +0.051 C 
ENDROOT
BRANCH   1  12
ATOM     12  C   UNL A   1     -23.226  -1.894  29.194  0.00  0.00    +0.043 C 
BRANCH  12  16
ATOM     13  C   UNL A   1     -26.469  -3.856  29.858  0.00  0.00    -0.000 A 
ATOM     14  C   UNL A   1     -26.098  -4.790  29.538  0.00  0.00    -0.000 A 
ATOM     15  C   UNL A   1     -25.476  -2.716  29.819  0.00  0.00    -0.004 A 
ATOM     16  C   UNL A   1     -24.206  -2.924  29.242  0.00  0.00    -0.021 A 
ATOM     17  C   UNL A   1     -24.861  -5.260  28.876  0.00  0.00    -0.000 A 
ATOM     18  C   UNL A   1     -23.926  -4.236  28.816  0.00  0.00    -0.004 A 
ENDBRANCH  12  16
ENDBRANCH   1  12
TORSDOF 2
ENDMDL
ENDMDL
