REMARK  Name = No_3758-gen_results/8p0m/2024-11-27-11-27-31/
REMARK  2 active torsions:
REMARK  status: ('A' for Active; 'I' for Inactive)
REMARK    1  A    between atoms: C_4  and  C_7
REMARK    2  A    between atoms: C_7  and  C_8
REMARK                            x       y       z     vdW  Elec       q    Type
REMARK                         _______ _______ _______ _____ _____    ______ ____
ROOT
ATOM      1  C   UNL A   1     -23.817   0.476  29.912  0.00  0.00    +0.136 C 
ATOM      2  C   UNL A   1     -24.195   1.598  30.192  0.00  0.00    +0.304 C 
ATOM      3  N   UNL A   1     -23.627   2.643  29.576  0.00  0.00    -0.041 NA
ATOM      4  C   UNL A   1     -22.692   0.706  28.889  0.00  0.00    +0.036 C 
ATOM      5  C   UNL A   1     -22.635   1.984  28.699  0.00  0.00    +0.231 C 
ATOM      6  N   UNL A   1     -25.171   1.982  31.197  0.00  0.00    -0.194 N 
ATOM      7  C   UNL A   1     -24.922   2.198  32.514  0.00  0.00    +0.202 C 
ATOM      8  C   UNL A   1     -26.346   2.661  30.713  0.00  0.00    +0.202 C 
ATOM      9  C   UNL A   1     -27.355   2.943  31.662  0.00  0.00    +0.051 C 
ATOM     10  C   UNL A   1     -26.999   3.156  33.023  0.00  0.00    +0.009 C 
ATOM     11  C   UNL A   1     -26.000   3.227  33.348  0.00  0.00    +0.051 C 
ENDROOT
BRANCH   1  12
ATOM     12  C   UNL A   1     -24.389  -0.805  30.164  0.00  0.00    +0.043 C 
BRANCH  12  16
ATOM     13  C   UNL A   1     -28.016  -0.814  28.878  0.00  0.00    -0.000 A 
ATOM     14  C   UNL A   1     -28.469  -0.785  29.829  0.00  0.00    -0.000 A 
ATOM     15  C   UNL A   1     -26.504  -0.778  28.877  0.00  0.00    -0.004 A 
ATOM     16  C   UNL A   1     -25.810  -0.853  30.103  0.00  0.00    -0.021 A 
ATOM     17  C   UNL A   1     -27.991  -0.892  31.226  0.00  0.00    -0.000 A 
ATOM     18  C   UNL A   1     -26.604  -0.868  31.265  0.00  0.00    -0.004 A 
ENDBRANCH  12  16
ENDBRANCH   1  12
TORSDOF 2
