MODEL 3759
MODEL 1
REMARK VINA RESULT:    -6.931      0.000      0.000
REMARK INTER + INTRA:          -8.580
REMARK INTER:                  -8.147
REMARK INTRA:                  -0.433
REMARK UNBOUND:                -0.433
REMARK  Name = No_3759-gen_results/8p0m/2024-11-27-11-27-31/
REMARK  3 active torsions:
REMARK  status: ('A' for Active; 'I' for Inactive)
REMARK    1  A    between atoms: C_3  and  C_13
REMARK    2  A    between atoms: C_14  and  C_15
REMARK    3  A    between atoms: C_16  and  C_17
REMARK                            x       y       z     vdW  Elec       q    Type
REMARK                         _______ _______ _______ _____ _____    ______ ____
ROOT
ATOM      1 CL   UNL A   1     -30.972  -9.738  29.945  0.00  0.00    -0.082 Cl
ATOM      2  C   UNL A   1     -29.964 -10.315  30.799  0.00  0.00    +0.057 A 
ATOM      3  C   UNL A   1     -29.191 -11.169  30.549  0.00  0.00    +0.011 A 
ATOM      4  C   UNL A   1     -28.188 -11.685  31.477  0.00  0.00    +0.005 A 
ATOM      5  C   UNL A   1     -28.147 -11.170  32.809  0.00  0.00    +0.051 A 
ATOM      6  C   UNL A   1     -29.042 -10.190  33.094  0.00  0.00    -0.015 A 
ATOM      7  C   UNL A   1     -29.921  -9.740  32.185  0.00  0.00    +0.007 A 
ATOM      8  C   UNL A   1     -27.203 -11.701  33.793  0.00  0.00    +0.265 C 
ATOM      9  O   UNL A   1     -26.798 -12.730  33.827  0.00  0.00    -0.268 OA
ATOM     10  N   UNL A   1     -26.842 -10.771  34.791  0.00  0.00    -0.201 NA
ATOM     11  C   UNL A   1     -27.165  -9.384  34.902  0.00  0.00    +0.120 C 
ATOM     12  C   UNL A   1     -28.269  -8.984  34.169  0.00  0.00    +0.050 C 
ENDROOT
BRANCH   3  13
ATOM     13  C   UNL A   1     -29.256 -12.022  29.278  0.00  0.00    +0.001 C 
ATOM     14  C   UNL A   1     -28.942 -11.825  28.266  0.00  0.00    -0.000 C 
BRANCH  14  15
ATOM     15  C   UNL A   1     -29.142 -12.733  27.083  0.00  0.00    -0.005 C 
ATOM     16  C   UNL A   1     -30.072 -12.294  26.171  0.00  0.00    -0.026 C 
BRANCH  16  17
ATOM     17  C   UNL A   1     -30.645 -11.084  26.343  0.00  0.00    +0.026 C 
ATOM     18  C   UNL A   1     -31.984 -10.935  26.661  0.00  0.00    +0.005 C 
ENDBRANCH  16  17
ENDBRANCH  14  15
ENDBRANCH   3  13
TORSDOF 3
ENDMDL
ENDMDL
