MODEL 375
MODEL 1
REMARK VINA RESULT:    -6.869      0.000      0.000
REMARK INTER + INTRA:          -7.336
REMARK INTER:                  -7.270
REMARK INTRA:                  -0.066
REMARK UNBOUND:                -0.066
REMARK  Name = No_375-gen_results/8p0m/2024-11-27-11-27-31/
REMARK  1 active torsions:
REMARK  status: ('A' for Active; 'I' for Inactive)
REMARK    1  A    between atoms: C_5  and  C_10
REMARK                            x       y       z     vdW  Elec       q    Type
REMARK                         _______ _______ _______ _____ _____    ______ ____
ROOT
ATOM      1  C   UNL A   1     -30.101 -10.499  29.215  0.00  0.00    +0.003 A 
ATOM      2  C   UNL A   1     -29.510 -10.831  30.216  0.00  0.00    +0.018 A 
ATOM      3  C   UNL A   1     -28.541 -11.694  30.324  0.00  0.00    +0.081 A 
ATOM      4  C   UNL A   1     -27.836 -12.072  31.574  0.00  0.00    +0.024 A 
ATOM      5  C   UNL A   1     -28.235 -11.385  32.756  0.00  0.00    +0.058 A 
ATOM      6  C   UNL A   1     -29.214 -10.432  32.637  0.00  0.00    +0.005 A 
ATOM      7  C   UNL A   1     -29.822 -10.106  31.473  0.00  0.00    +0.002 A 
ATOM      8  C   UNL A   1     -30.076 -11.441  28.170  0.00  0.00    +0.018 A 
ATOM      9  C   UNL A   1     -30.618 -11.100  26.909  0.00  0.00    +0.002 A 
ATOM     10  C   UNL A   1     -31.421 -11.971  26.223  0.00  0.00    +0.000 A 
ATOM     11  C   UNL A   1     -31.361 -13.334  26.576  0.00  0.00    +0.002 A 
ATOM     12  C   UNL A   1     -30.760 -13.703  27.761  0.00  0.00    +0.019 A 
ATOM     13  C   UNL A   1     -30.214 -12.734  28.574  0.00  0.00    +0.081 A 
ATOM     14  N   UNL A   1     -29.484 -13.143  29.693  0.00  0.00    -0.245 NA
ENDROOT
BRANCH   5  15
ATOM     15  C   UNL A   1     -27.592 -11.654  34.030  0.00  0.00    +0.284 C 
ATOM     16  O   UNL A   1     -27.676 -12.588  34.637  0.00  0.00    -0.267 OA
ATOM     17  N   UNL A   1     -26.928 -10.498  34.613  0.00  0.00    -0.084 NA
ENDBRANCH   5  15
TORSDOF 1
ENDMDL
ENDMDL
