REMARK  Name = outputs/IAG933/test6/raw/output_376_IAG933_linker_design_.xyz
REMARK  13 active torsions:
REMARK  status: ('A' for Active; 'I' for Inactive)
REMARK    1  A    between atoms: C_1  and  C_2
REMARK    2  A    between atoms: C_1  and  C_8
REMARK    3  A    between atoms: C_1  and  O_36
REMARK    4  A    between atoms: C_9  and  N_40
REMARK    5  A    between atoms: C_13  and  N_43
REMARK    6  A    between atoms: C_14  and  C_15
REMARK    7  A    between atoms: C_21  and  O_22
REMARK    8  A    between atoms: O_22  and  C_23
REMARK    9  A    between atoms: C_23  and  C_24
REMARK   10  A    between atoms: C_28  and  O_36
REMARK   11  A    between atoms: C_32  and  C_34
REMARK   12  A    between atoms: C_33  and  C_39
REMARK   13  A    between atoms: C_39  and  C_42
REMARK                            x       y       z     vdW  Elec       q    Type
REMARK                         _______ _______ _______ _____ _____    ______ ____
ROOT
ATOM      1  C   UNL A   1     -24.235   0.614  28.299  0.00  0.00    +0.230 A 
ATOM      2  C   UNL A   1     -22.229   1.432  27.608  0.00  0.00    +0.176 A 
ATOM      3  C   UNL A   1     -23.140   1.725  26.650  0.00  0.00    +0.108 A 
ATOM      4  C   UNL A   1     -22.879   0.792  28.617  0.00  0.00    +0.169 A 
ATOM      5  F   UNL A   1     -20.932   1.727  27.591  0.00  0.00    -0.201 F 
ATOM      6  N   UNL A   1     -22.343   0.271  29.656  0.00  0.00    -0.121 NA
ATOM      7  N   UNL A   1     -24.433   1.360  27.096  0.00  0.00    -0.273 N 
ENDROOT
BRANCH   7   8
ATOM      8  C   UNL A   1     -25.688   1.614  26.461  0.00  0.00    +0.104 C 
ATOM      9  C   UNL A   1     -26.250   2.920  26.395  0.00  0.00    +0.093 C 
ATOM     10  C   UNL A   1     -27.438   3.091  25.645  0.00  0.00    +0.108 C 
ATOM     11  N   UNL A   1     -28.075   2.089  25.003  0.00  0.00    -0.208 NA
ATOM     12  C   UNL A   1     -27.543   0.849  25.079  0.00  0.00    +0.255 C 
ATOM     13  C   UNL A   1     -26.354   0.576  25.777  0.00  0.00    +0.209 C 
ATOM     14  F   UNL A   1     -25.860  -0.681  25.795  0.00  0.00    -0.198 F 
BRANCH   9  15
ATOM     15  C   UNL A   1     -25.642   4.093  27.123  0.00  0.00    +0.268 C 
ATOM     16  N   UNL A   1     -25.614   5.252  26.449  0.00  0.00    -0.200 NA
ATOM     17  C   UNL A   1     -25.026   6.479  26.963  0.00  0.00    +0.139 C 
ATOM     18  O   UNL A   1     -25.143   3.966  28.243  0.00  0.00    -0.268 OA
ENDBRANCH   9  15
BRANCH  12  19
ATOM     19  O   UNL A   1     -28.193  -0.208  24.477  0.00  0.00    -0.456 OA
BRANCH  19  20
ATOM     20  C   UNL A   1     -29.460   0.005  23.866  0.00  0.00    +0.243 C 
BRANCH  20  21
ATOM     21  C   UNL A   1     -30.065  -1.377  23.573  0.00  0.00    +0.229 C 
ATOM     22  O   UNL A   1     -30.729  -1.878  24.721  0.00  0.00    -0.216 OA
ENDBRANCH  20  21
ENDBRANCH  19  20
ENDBRANCH  12  19
ENDBRANCH   7   8
BRANCH   3  23
ATOM     23  C   UNL A   1     -22.796   2.190  25.482  0.00  0.00    +0.239 C 
ATOM     24  F   UNL A   1     -21.617   2.278  25.117  0.00  0.00    -0.227 F 
ENDBRANCH   3  23
BRANCH   1  25
ATOM     25  O   UNL A   1     -25.114  -0.197  29.027  0.00  0.00    -0.458 OA
BRANCH  25  26
ATOM     26  C   UNL A   1     -24.855  -1.012  30.143  0.00  0.00    +0.207 C 
BRANCH  26  27
ATOM     27  C   UNL A   1     -24.973  -2.505  29.788  0.00  0.00    +0.019 C 
ATOM     28  C   UNL A   1     -23.906  -3.173  29.146  0.00  0.00    -0.001 C 
ATOM     29  C   UNL A   1     -23.989  -4.549  28.853  0.00  0.00    -0.000 C 
ATOM     30  C   UNL A   1     -25.137  -5.280  29.205  0.00  0.00    -0.000 C 
ATOM     31  C   UNL A   1     -26.232  -4.611  29.784  0.00  0.00    -0.000 C 
ATOM     32  C   UNL A   1     -26.155  -3.232  30.065  0.00  0.00    -0.001 C 
ENDBRANCH  26  27
BRANCH  26  33
ATOM     33  C   UNL A   1     -25.387  -0.679  31.571  0.00  0.00    +0.137 C 
ATOM     34  C   UNL A   1     -25.189   0.773  32.028  0.00  0.00    +0.117 C 
ATOM     35  C   UNL A   1     -25.336   0.684  33.544  0.00  0.00    +0.042 C 
ATOM     36  C   UNL A   1     -24.829  -0.715  33.905  0.00  0.00    +0.091 C 
ATOM     37  N   UNL A   1     -24.758  -1.481  32.646  0.00  0.00    -0.214 NA
BRANCH  34  40
ATOM     38  O   UNL A   1     -23.932   2.931  31.266  0.00  0.00    -0.273 OA
ATOM     39  C   UNL A   1     -25.023   3.034  31.387  0.00  0.00    +0.243 C 
ATOM     40  N   UNL A   1     -25.668   1.877  31.161  0.00  0.00    -0.205 NA
BRANCH  39  41
ATOM     41  C   UNL A   1     -25.647   4.291  31.999  0.00  0.00    +0.107 C 
BRANCH  41  43
ATOM     42  N   UNL A   1     -25.569   5.864  33.902  0.00  0.00    -0.131 NA
ATOM     43  C   UNL A   1     -24.914   4.620  33.322  0.00  0.00    +0.119 C 
ENDBRANCH  41  43
ENDBRANCH  39  41
ENDBRANCH  34  40
ENDBRANCH  26  33
ENDBRANCH  25  26
ENDBRANCH   1  25
TORSDOF 13
