REMARK  Name = outputs/IAG933/test6/raw/output_3760_IAG933_linker_design_.xyz
REMARK  14 active torsions:
REMARK  status: ('A' for Active; 'I' for Inactive)
REMARK    1  A    between atoms: C_1  and  C_2
REMARK    2  A    between atoms: C_1  and  C_8
REMARK    3  A    between atoms: C_1  and  C_35
REMARK    4  A    between atoms: C_13  and  C_43
REMARK    5  A    between atoms: C_14  and  C_15
REMARK    6  A    between atoms: C_21  and  O_22
REMARK    7  A    between atoms: O_22  and  C_23
REMARK    8  A    between atoms: C_23  and  C_24
REMARK    9  A    between atoms: C_29  and  C_45
REMARK   10  A    between atoms: C_30  and  C_35
REMARK   11  A    between atoms: C_30  and  C_37
REMARK   12  A    between atoms: C_31  and  O_32
REMARK   13  A    between atoms: O_32  and  C_35
REMARK   14  A    between atoms: C_33  and  C_45
REMARK                            x       y       z     vdW  Elec       q    Type
REMARK                         _______ _______ _______ _____ _____    ______ ____
ROOT
ATOM      1  C   UNL A   1     -25.997  -0.172  29.519  0.00  0.00    +0.125 C 
ENDROOT
BRANCH   1   2
ATOM      2  C   UNL A   1     -24.855  -1.012  30.143  0.00  0.00    +0.066 C 
BRANCH   2   3
ATOM      3  C   UNL A   1     -24.973  -2.505  29.788  0.00  0.00    -0.019 C 
ATOM      4  C   UNL A   1     -23.906  -3.173  29.146  0.00  0.00    -0.004 C 
ATOM      5  C   UNL A   1     -23.989  -4.549  28.853  0.00  0.00    -0.000 C 
ATOM      6  C   UNL A   1     -25.137  -5.280  29.205  0.00  0.00    -0.000 C 
ATOM      7  C   UNL A   1     -26.232  -4.611  29.784  0.00  0.00    -0.000 C 
ATOM      8  C   UNL A   1     -26.155  -3.232  30.065  0.00  0.00    -0.004 C 
ENDBRANCH   2   3
BRANCH   2   9
ATOM      9  C   UNL A   1     -25.387  -0.679  31.571  0.00  0.00    +0.079 C 
ATOM     10  C   UNL A   1     -25.189   0.773  32.028  0.00  0.00    +0.019 C 
ATOM     11  C   UNL A   1     -25.336   0.684  33.544  0.00  0.00    +0.020 C 
ATOM     12  C   UNL A   1     -24.829  -0.715  33.905  0.00  0.00    +0.089 C 
ATOM     13  N   UNL A   1     -24.758  -1.481  32.646  0.00  0.00    -0.219 NA
ENDBRANCH   2   9
ENDBRANCH   1   2
BRANCH   1  14
ATOM     14  C   UNL A   1     -27.110  -0.316  28.700  0.00  0.00    +0.059 C 
BRANCH  14  19
ATOM     15  C   UNL A   1     -29.391   0.220  29.097  0.00  0.00    +0.192 C 
ATOM     16  C   UNL A   1     -28.734   2.718  30.064  0.00  0.00    +0.010 C 
ATOM     17  C   UNL A   1     -27.804   1.999  29.346  0.00  0.00    -0.003 C 
ATOM     18  O   UNL A   1     -29.779  -0.990  28.473  0.00  0.00    -0.287 OA
ATOM     19  C   UNL A   1     -28.085   0.665  29.010  0.00  0.00    +0.019 C 
ATOM     20  C   UNL A   1     -29.968   2.222  30.246  0.00  0.00    +0.002 C 
ATOM     21  C   UNL A   1     -30.308   1.012  29.715  0.00  0.00    +0.042 C 
BRANCH  16  22
ATOM     22  C   UNL A   1     -28.353   4.030  30.602  0.00  0.00    +0.207 C 
ATOM     23  O   UNL A   1     -29.561   4.383  31.398  0.00  0.00    -0.215 OA
BRANCH  22  24
ATOM     24  C   UNL A   1     -27.167   4.089  31.247  0.00  0.00    +0.219 C 
ATOM     25  O   UNL A   1     -27.173   4.868  32.356  0.00  0.00    -0.217 OA
ENDBRANCH  22  24
ENDBRANCH  16  22
ENDBRANCH  14  19
ENDBRANCH   1  14
BRANCH   1  26
ATOM     26  O   UNL A   1     -25.176   0.832  28.995  0.00  0.00    -0.358 OA
BRANCH  26  27
ATOM     27  C   UNL A   1     -24.204   0.305  28.243  0.00  0.00    +0.120 C 
ATOM     28  C   UNL A   1     -21.950   1.365  27.869  0.00  0.00    +0.019 C 
ATOM     29  C   UNL A   1     -22.965   1.605  26.843  0.00  0.00    +0.086 C 
ATOM     30  C   UNL A   1     -24.329   1.268  27.148  0.00  0.00    +0.067 C 
ATOM     31  C   UNL A   1     -22.917   0.787  28.953  0.00  0.00    +0.031 C 
ATOM     32 CL   UNL A   1     -22.594   2.496  25.472  0.00  0.00    -0.115 Cl
BRANCH  30  33
ATOM     33  C   UNL A   1     -25.688   1.614  26.461  0.00  0.00    +0.019 C 
ATOM     34  C   UNL A   1     -26.250   2.920  26.395  0.00  0.00    +0.073 C 
ATOM     35  C   UNL A   1     -27.438   3.091  25.645  0.00  0.00    +0.106 C 
ATOM     36  N   UNL A   1     -28.075   2.089  25.003  0.00  0.00    -0.208 NA
ATOM     37  C   UNL A   1     -27.543   0.849  25.079  0.00  0.00    +0.253 C 
ATOM     38  C   UNL A   1     -26.354   0.576  25.777  0.00  0.00    +0.189 C 
ATOM     39  F   UNL A   1     -25.860  -0.681  25.795  0.00  0.00    -0.200 F 
BRANCH  34  40
ATOM     40  C   UNL A   1     -25.642   4.093  27.123  0.00  0.00    +0.266 C 
ATOM     41  N   UNL A   1     -25.614   5.252  26.449  0.00  0.00    -0.200 NA
ATOM     42  C   UNL A   1     -25.026   6.479  26.963  0.00  0.00    +0.139 C 
ATOM     43  O   UNL A   1     -25.143   3.966  28.243  0.00  0.00    -0.268 OA
ENDBRANCH  34  40
BRANCH  37  44
ATOM     44  O   UNL A   1     -28.193  -0.208  24.477  0.00  0.00    -0.456 OA
BRANCH  44  45
ATOM     45  C   UNL A   1     -29.460   0.005  23.866  0.00  0.00    +0.243 C 
BRANCH  45  46
ATOM     46  C   UNL A   1     -30.065  -1.377  23.573  0.00  0.00    +0.229 C 
ATOM     47  O   UNL A   1     -30.729  -1.878  24.721  0.00  0.00    -0.216 OA
ENDBRANCH  45  46
ENDBRANCH  44  45
ENDBRANCH  37  44
ENDBRANCH  30  33
ENDBRANCH  26  27
ENDBRANCH   1  26
TORSDOF 14
