MODEL 3762
MODEL 1
REMARK VINA RESULT:    -6.897      0.000      0.000
REMARK INTER + INTRA:         -11.505
REMARK INTER:                  -9.316
REMARK INTRA:                  -2.189
REMARK UNBOUND:                -2.189
REMARK  Name = No_3762-gen_results/8p0m/2024-11-27-11-27-31/
REMARK  6 active torsions:
REMARK  status: ('A' for Active; 'I' for Inactive)
REMARK    1  A    between atoms: C_3  and  C_7
REMARK    2  A    between atoms: C_7  and  C_8
REMARK    3  A    between atoms: C_7  and  C_9
REMARK    4  A    between atoms: C_8  and  C_10
REMARK    5  A    between atoms: C_8  and  C_14
REMARK    6  A    between atoms: C_10  and  C_11
REMARK                            x       y       z     vdW  Elec       q    Type
REMARK                         _______ _______ _______ _____ _____    ______ ____
ROOT
ATOM      1  C   UNL A   1     -25.272  -0.379  29.097  0.00  0.00    +0.034 C 
ENDROOT
BRANCH   1   2
ATOM      2  C   UNL A   1     -24.730  -0.184  27.794  0.00  0.00    +0.027 C 
ATOM      3  C   UNL A   1     -25.998  -0.425  26.854  0.00  0.00    +0.005 C 
BRANCH   2   4
ATOM      4  C   UNL A   1     -23.963   0.419  27.395  0.00  0.00    -0.022 A 
ATOM      5  C   UNL A   1     -24.179   1.140  26.125  0.00  0.00    -0.004 A 
ATOM      6  C   UNL A   1     -23.182   2.053  25.557  0.00  0.00    -0.000 A 
ATOM      7  C   UNL A   1     -22.639   0.790  27.934  0.00  0.00    -0.004 A 
ATOM      8  C   UNL A   1     -21.701   1.672  27.389  0.00  0.00    -0.000 A 
ATOM      9  C   UNL A   1     -22.016   2.248  26.127  0.00  0.00    -0.000 A 
ENDBRANCH   2   4
ENDBRANCH   1   2
BRANCH   1  10
ATOM     10  C   UNL A   1     -25.946   0.717  29.779  0.00  0.00    -0.025 C 
ATOM     11  C   UNL A   1     -27.235   0.782  30.046  0.00  0.00    -0.005 C 
ENDBRANCH   1  10
BRANCH   1  12
ATOM     12  C   UNL A   1     -24.920  -1.279  29.867  0.00  0.00    +0.049 C 
BRANCH  12  15
ATOM     13  C   UNL A   1     -23.909  -3.399  28.838  0.00  0.00    -0.004 A 
ATOM     14  C   UNL A   1     -24.021  -4.429  28.647  0.00  0.00    -0.000 A 
ATOM     15  C   UNL A   1     -24.958  -2.736  29.512  0.00  0.00    -0.018 A 
ATOM     16  C   UNL A   1     -26.107  -3.395  29.905  0.00  0.00    -0.004 A 
ATOM     17  C   UNL A   1     -26.168  -4.749  29.620  0.00  0.00    -0.000 A 
ATOM     18  C   UNL A   1     -25.104  -5.362  28.993  0.00  0.00    -0.000 A 
ENDBRANCH  12  15
BRANCH  12  19
ATOM     19  C   UNL A   1     -24.440  -0.944  31.199  0.00  0.00    -0.022 C 
ATOM     20  C   UNL A   1     -22.920  -0.837  31.347  0.00  0.00    -0.005 C 
ENDBRANCH  12  19
ENDBRANCH   1  12
TORSDOF 6
ENDMDL
ENDMDL
