REMARK  Name = No_3762-gen_results/8p0m/2024-11-27-11-27-31/
REMARK  6 active torsions:
REMARK  status: ('A' for Active; 'I' for Inactive)
REMARK    1  A    between atoms: C_3  and  C_7
REMARK    2  A    between atoms: C_7  and  C_8
REMARK    3  A    between atoms: C_7  and  C_9
REMARK    4  A    between atoms: C_8  and  C_10
REMARK    5  A    between atoms: C_8  and  C_14
REMARK    6  A    between atoms: C_10  and  C_11
REMARK                            x       y       z     vdW  Elec       q    Type
REMARK                         _______ _______ _______ _____ _____    ______ ____
ROOT
ATOM      1  C   UNL A   1     -26.875   0.839  26.213  0.00  0.00    +0.034 C 
ENDROOT
BRANCH   1   2
ATOM      2  C   UNL A   1     -28.178   1.412  26.139  0.00  0.00    +0.027 C 
ATOM      3  C   UNL A   1     -27.861   2.974  26.038  0.00  0.00    +0.005 C 
BRANCH   2   4
ATOM      4  C   UNL A   1     -29.102   1.098  25.742  0.00  0.00    -0.022 A 
ATOM      5  C   UNL A   1     -29.265  -0.290  25.266  0.00  0.00    -0.004 A 
ATOM      6  C   UNL A   1     -30.544  -0.810  24.774  0.00  0.00    -0.000 A 
ATOM      7  C   UNL A   1     -30.400   1.794  25.633  0.00  0.00    -0.004 A 
ATOM      8  C   UNL A   1     -31.617   1.283  25.173  0.00  0.00    -0.000 A 
ATOM      9  C   UNL A   1     -31.613  -0.053  24.686  0.00  0.00    -0.000 A 
ENDBRANCH   2   4
ENDBRANCH   1   2
BRANCH   1  10
ATOM     10  C   UNL A   1     -26.182   0.442  24.995  0.00  0.00    -0.025 C 
ATOM     11  C   UNL A   1     -24.968  -0.065  24.930  0.00  0.00    -0.005 C 
ENDBRANCH   1  10
BRANCH   1  12
ATOM     12  C   UNL A   1     -26.408   0.307  27.226  0.00  0.00    +0.049 C 
BRANCH  12  15
ATOM     13  C   UNL A   1     -28.016  -0.814  28.878  0.00  0.00    -0.004 A 
ATOM     14  C   UNL A   1     -28.469  -0.785  29.829  0.00  0.00    -0.000 A 
ATOM     15  C   UNL A   1     -27.136   0.236  28.535  0.00  0.00    -0.018 A 
ATOM     16  C   UNL A   1     -26.875   1.282  29.398  0.00  0.00    -0.004 A 
ATOM     17  C   UNL A   1     -27.507   1.238  30.630  0.00  0.00    -0.000 A 
ATOM     18  C   UNL A   1     -28.329   0.174  30.935  0.00  0.00    -0.000 A 
ENDBRANCH  12  15
BRANCH  12  19
ATOM     19  C   UNL A   1     -25.081  -0.288  27.183  0.00  0.00    -0.022 C 
ATOM     20  C   UNL A   1     -24.446  -0.586  28.544  0.00  0.00    -0.005 C 
ENDBRANCH  12  19
ENDBRANCH   1  12
TORSDOF 6
