MODEL 3763
MODEL 1
REMARK VINA RESULT:    -7.066      0.000      0.000
REMARK INTER + INTRA:          -8.227
REMARK INTER:                  -7.892
REMARK INTRA:                  -0.335
REMARK UNBOUND:                -0.335
REMARK  Name = No_3763-gen_results/8p0m/2024-11-27-11-27-31/
REMARK  2 active torsions:
REMARK  status: ('A' for Active; 'I' for Inactive)
REMARK    1  A    between atoms: C_2  and  C_5
REMARK    2  A    between atoms: C_10  and  C_14
REMARK                            x       y       z     vdW  Elec       q    Type
REMARK                         _______ _______ _______ _____ _____    ______ ____
ROOT
ATOM      1  C   UNL A   1     -28.049 -11.922  31.626  0.00  0.00    +0.002 A 
ATOM      2  C   UNL A   1     -28.112 -11.434  32.558  0.00  0.00    +0.080 A 
ATOM      3  C   UNL A   1     -28.898 -11.475  30.590  0.00  0.00    -0.019 A 
ATOM      4  C   UNL A   1     -28.859 -11.979  29.192  0.00  0.00    +0.027 C 
ATOM      5  C   UNL A   1     -29.040 -10.240  32.885  0.00  0.00    +0.007 A 
ATOM      6  C   UNL A   1     -29.619 -11.401  28.183  0.00  0.00    +0.021 C 
ATOM      7  C   UNL A   1     -29.861  -9.798  31.937  0.00  0.00    +0.003 A 
ATOM      8  C   UNL A   1     -29.803 -10.355  30.673  0.00  0.00    +0.031 A 
ATOM      9  C   UNL A   1     -30.524 -10.355  28.436  0.00  0.00    +0.157 C 
ATOM     10  C   UNL A   1     -30.614  -9.846  29.623  0.00  0.00    +0.181 C 
ATOM     11  O   UNL A   1     -31.450  -8.784  29.925  0.00  0.00    -0.291 OA
ENDROOT
BRANCH   9  12
ATOM     12  C   UNL A   1     -31.304  -9.902  27.216  0.00  0.00    +0.404 C 
ATOM     13  F   UNL A   1     -31.137  -8.775  26.747  0.00  0.00    -0.170 F 
ATOM     14  F   UNL A   1     -32.612  -9.927  27.298  0.00  0.00    -0.170 F 
ATOM     15  F   UNL A   1     -31.151 -10.913  26.245  0.00  0.00    -0.170 F 
ENDBRANCH   9  12
BRANCH   2  16
ATOM     16  C   UNL A   1     -27.182 -11.770  33.742  0.00  0.00    +0.388 C 
ATOM     17  O   UNL A   1     -26.891 -10.885  34.583  0.00  0.00    -0.241 OA
ATOM     18  O   UNL A   1     -26.653 -12.844  33.752  0.00  0.00    -0.241 OA
ENDBRANCH   2  16
TORSDOF 2
ENDMDL
ENDMDL
