MODEL 3765
MODEL 1
REMARK VINA RESULT:    -5.672      0.000      0.000
REMARK INTER + INTRA:         -12.801
REMARK INTER:                  -8.657
REMARK INTRA:                  -4.144
REMARK UNBOUND:                -4.144
REMARK  Name = No_3765-gen_results/8p0m/2024-11-27-11-27-31/
REMARK  9 active torsions:
REMARK  status: ('A' for Active; 'I' for Inactive)
REMARK    1  A    between atoms: C_2  and  C_14
REMARK    2  A    between atoms: C_4  and  C_6
REMARK    3  A    between atoms: C_14  and  O_16
REMARK    4  A    between atoms: O_16  and  C_17
REMARK    5  A    between atoms: C_17  and  C_18
REMARK    6  A    between atoms: C_18  and  C_19
REMARK    7  A    between atoms: C_23  and  C_26
REMARK    8  A    between atoms: N_28  and  C_29
REMARK    9  A    between atoms: C_30  and  C_31
REMARK                            x       y       z     vdW  Elec       q    Type
REMARK                         _______ _______ _______ _____ _____    ______ ____
ROOT
ATOM      1  C   UNL A   1     -30.241 -11.237  35.086  0.00  0.00    +0.232 C 
ENDROOT
BRANCH   1   2
ATOM      2  C   UNL A   1     -30.640 -12.553  35.247  0.00  0.00    +0.158 C 
ATOM      3  N   UNL A   1     -29.619 -13.349  35.876  0.00  0.00    -0.124 NA
BRANCH   2   4
ATOM      4  C   UNL A   1     -31.116 -13.159  34.087  0.00  0.00    -0.001 A 
ATOM      5  C   UNL A   1     -30.565 -14.352  33.670  0.00  0.00    -0.003 A 
ATOM      6  C   UNL A   1     -30.618 -14.842  32.326  0.00  0.00    -0.000 A 
ATOM      7  C   UNL A   1     -31.418 -14.091  31.408  0.00  0.00    +0.005 A 
ATOM      8  C   UNL A   1     -32.018 -12.898  31.827  0.00  0.00    +0.055 A 
ATOM      9  C   UNL A   1     -31.749 -12.424  33.051  0.00  0.00    +0.002 A 
BRANCH   8  10
ATOM     10  C   UNL A   1     -32.810 -12.148  30.791  0.00  0.00    +0.269 C 
ATOM     11  O   UNL A   1     -33.638 -11.367  31.200  0.00  0.00    -0.268 OA
ATOM     12  N   UNL A   1     -32.767 -12.519  29.502  0.00  0.00    -0.174 NA
BRANCH  12  13
ATOM     13  C   UNL A   1     -33.517 -11.776  28.485  0.00  0.00    +0.089 C 
ATOM     14  C   UNL A   1     -33.489 -11.902  27.457  0.00  0.00    +0.018 C 
BRANCH  14  15
ATOM     15  C   UNL A   1     -34.080 -11.012  26.427  0.00  0.00    -0.003 C 
ATOM     16  C   UNL A   1     -33.772  -9.615  26.211  0.00  0.00    -0.026 C 
ATOM     17  C   UNL A   1     -34.460  -8.793  25.351  0.00  0.00    +0.031 C 
ENDBRANCH  14  15
ENDBRANCH  12  13
ENDBRANCH   8  10
ENDBRANCH   2   4
ENDBRANCH   1   2
BRANCH   1  18
ATOM     18  O   UNL A   1     -29.213 -10.923  34.946  0.00  0.00    -0.444 OA
BRANCH  18  19
ATOM     19  C   UNL A   1     -28.658 -10.267  34.002  0.00  0.00    +0.341 C 
ATOM     20  O   UNL A   1     -27.870  -9.359  34.398  0.00  0.00    -0.245 OA
BRANCH  19  22
ATOM     21  C   UNL A   1     -29.635  -9.913  31.907  0.00  0.00    +0.018 A 
ATOM     22  C   UNL A   1     -28.954 -10.523  32.431  0.00  0.00    +0.076 A 
ATOM     23  C   UNL A   1     -29.891 -10.223  30.554  0.00  0.00    +0.058 A 
ATOM     24  C   UNL A   1     -29.270 -11.278  29.915  0.00  0.00    +0.011 A 
ATOM     25  C   UNL A   1     -28.169 -11.695  31.995  0.00  0.00    +0.006 A 
ATOM     26  C   UNL A   1     -28.393 -12.031  30.687  0.00  0.00    +0.001 A 
ATOM     27 CL   UNL A   1     -31.032  -9.244  29.663  0.00  0.00    -0.082 Cl
BRANCH  24  28
ATOM     28  C   UNL A   1     -29.501 -11.651  28.527  0.00  0.00    +0.001 A 
ATOM     29  C   UNL A   1     -29.845 -11.014  27.702  0.00  0.00    +0.000 A 
ATOM     30  C   UNL A   1     -30.071 -11.435  26.305  0.00  0.00    +0.000 A 
ATOM     31  C   UNL A   1     -30.091 -12.839  26.141  0.00  0.00    +0.000 A 
ATOM     32  C   UNL A   1     -29.520 -13.114  28.225  0.00  0.00    +0.000 A 
ATOM     33  C   UNL A   1     -29.787 -13.637  27.087  0.00  0.00    +0.000 A 
ENDBRANCH  24  28
ENDBRANCH  19  22
ENDBRANCH  18  19
ENDBRANCH   1  18
TORSDOF 9
ENDMDL
ENDMDL
