MODEL 3766
MODEL 1
REMARK VINA RESULT:    -5.444      0.000      0.000
REMARK INTER + INTRA:          -6.340
REMARK INTER:                  -6.081
REMARK INTRA:                  -0.259
REMARK UNBOUND:                -0.259
REMARK  Name = No_3766-gen_results/8p0m/2024-11-27-11-27-31/
REMARK  2 active torsions:
REMARK  status: ('A' for Active; 'I' for Inactive)
REMARK    1  A    between atoms: C_2  and  C_8
REMARK    2  A    between atoms: C_8  and  C_9
REMARK                            x       y       z     vdW  Elec       q    Type
REMARK                         _______ _______ _______ _____ _____    ______ ____
ROOT
ATOM      1  C   UNL A   1     -24.404  -1.028  28.168  0.00  0.00    -0.003 A 
ATOM      2  C   UNL A   1     -23.639  -1.560  28.938  0.00  0.00    -0.018 A 
ATOM      3  C   UNL A   1     -22.373  -1.081  29.212  0.00  0.00    -0.003 A 
ATOM      4  C   UNL A   1     -21.966   0.127  28.580  0.00  0.00    +0.011 A 
ATOM      5  C   UNL A   1     -22.916   0.773  27.863  0.00  0.00    +0.058 A 
ATOM      6  C   UNL A   1     -24.118   0.258  27.687  0.00  0.00    +0.011 A 
ATOM      7 CL   UNL A   1     -22.447   2.243  27.143  0.00  0.00    -0.082 Cl
ENDROOT
BRANCH   2   8
ATOM      8  C   UNL A   1     -23.943  -2.973  29.566  0.00  0.00    +0.052 C 
BRANCH   8   9
ATOM      9  C   UNL A   1     -24.376  -4.001  28.680  0.00  0.00    -0.026 C 
ATOM     10  C   UNL A   1     -25.283  -4.927  29.373  0.00  0.00    -0.030 C 
ATOM     11  C   UNL A   1     -26.650  -4.582  29.708  0.00  0.00    +0.030 C 
ENDBRANCH   8   9
ENDBRANCH   2   8
TORSDOF 2
ENDMDL
ENDMDL
