REMARK  Name = outputs/IAG933/test6/raw/output_3766_IAG933_linker_design_.xyz
REMARK  21 active torsions:
REMARK  status: ('A' for Active; 'I' for Inactive)
REMARK    1  A    between atoms: C_1  and  C_2
REMARK    2  A    between atoms: C_1  and  C_8
REMARK    3  A    between atoms: C_9  and  C_30
REMARK    4  A    between atoms: C_13  and  C_29
REMARK    5  A    between atoms: C_14  and  C_15
REMARK    6  A    between atoms: C_21  and  O_22
REMARK    7  A    between atoms: O_22  and  C_23
REMARK    8  A    between atoms: C_23  and  C_24
REMARK    9  A    between atoms: C_28  and  O_38
REMARK   10  A    between atoms: C_28  and  C_42
REMARK   11  A    between atoms: C_29  and  N_37
REMARK   12  A    between atoms: C_30  and  O_31
REMARK   13  A    between atoms: C_30  and  O_38
REMARK   14  A    between atoms: O_31  and  C_33
REMARK   15  A    between atoms: C_33  and  C_45
REMARK   16  A    between atoms: C_35  and  N_44
REMARK   17  A    between atoms: C_35  and  C_45
REMARK   18  A    between atoms: N_37  and  C_42
REMARK   19  A    between atoms: C_40  and  C_41
REMARK   20  A    between atoms: C_40  and  N_44
REMARK   21  A    between atoms: C_41  and  O_43
REMARK                            x       y       z     vdW  Elec       q    Type
REMARK                         _______ _______ _______ _____ _____    ______ ____
ROOT
ATOM      1  C   UNL A   1     -24.358   1.760  31.201  0.00  0.00    +0.236 C 
ENDROOT
BRANCH   1   3
ATOM      2  C   UNL A   1     -25.387  -0.679  31.571  0.00  0.00    +0.082 C 
ATOM      3  C   UNL A   1     -25.189   0.773  32.028  0.00  0.00    +0.074 C 
ATOM      4  C   UNL A   1     -25.336   0.684  33.544  0.00  0.00    +0.025 C 
ATOM      5  C   UNL A   1     -24.829  -0.715  33.905  0.00  0.00    +0.089 C 
ATOM      6  N   UNL A   1     -24.758  -1.481  32.646  0.00  0.00    -0.219 NA
BRANCH   2   7
ATOM      7  C   UNL A   1     -24.855  -1.012  30.143  0.00  0.00    +0.044 C 
BRANCH   7   8
ATOM      8  C   UNL A   1     -24.973  -2.505  29.788  0.00  0.00    -0.021 C 
ATOM      9  C   UNL A   1     -23.906  -3.173  29.146  0.00  0.00    -0.004 C 
ATOM     10  C   UNL A   1     -23.989  -4.549  28.853  0.00  0.00    -0.000 C 
ATOM     11  C   UNL A   1     -25.137  -5.280  29.205  0.00  0.00    -0.000 C 
ATOM     12  C   UNL A   1     -26.232  -4.611  29.784  0.00  0.00    -0.000 C 
ATOM     13  C   UNL A   1     -26.155  -3.232  30.065  0.00  0.00    -0.004 C 
ENDBRANCH   7   8
ENDBRANCH   2   7
ENDBRANCH   1   3
BRANCH   1  14
ATOM     14  O   UNL A   1     -23.656   1.333  30.101  0.00  0.00    -0.329 OA
BRANCH  14  15
ATOM     15  C   UNL A   1     -22.516   0.550  29.453  0.00  0.00    +0.161 C 
BRANCH  15  17
ATOM     16  C   UNL A   1     -20.886   1.399  27.526  0.00  0.00    +0.020 C 
ATOM     17  C   UNL A   1     -22.299   1.209  28.084  0.00  0.00    +0.088 C 
BRANCH  17  19
ATOM     18  C   UNL A   1     -23.085   2.377  25.832  0.00  0.00    +0.090 C 
ATOM     19  N   UNL A   1     -23.348   1.928  27.247  0.00  0.00    -0.267 NA
BRANCH  19  20
ATOM     20  C   UNL A   1     -24.643   1.229  27.423  0.00  0.00    +0.102 C 
BRANCH  20  21
ATOM     21  C   UNL A   1     -25.688   1.614  26.461  0.00  0.00    +0.032 C 
ATOM     22  C   UNL A   1     -26.250   2.920  26.395  0.00  0.00    +0.074 C 
ATOM     23  C   UNL A   1     -27.438   3.091  25.645  0.00  0.00    +0.106 C 
ATOM     24  N   UNL A   1     -28.075   2.089  25.003  0.00  0.00    -0.208 NA
ATOM     25  C   UNL A   1     -27.543   0.849  25.079  0.00  0.00    +0.253 C 
ATOM     26  C   UNL A   1     -26.354   0.576  25.777  0.00  0.00    +0.190 C 
ATOM     27  F   UNL A   1     -25.860  -0.681  25.795  0.00  0.00    -0.200 F 
BRANCH  22  28
ATOM     28  C   UNL A   1     -25.642   4.093  27.123  0.00  0.00    +0.266 C 
ATOM     29  N   UNL A   1     -25.614   5.252  26.449  0.00  0.00    -0.200 NA
ATOM     30  C   UNL A   1     -25.026   6.479  26.963  0.00  0.00    +0.139 C 
ATOM     31  O   UNL A   1     -25.143   3.966  28.243  0.00  0.00    -0.268 OA
ENDBRANCH  22  28
BRANCH  25  32
ATOM     32  O   UNL A   1     -28.193  -0.208  24.477  0.00  0.00    -0.456 OA
BRANCH  32  33
ATOM     33  C   UNL A   1     -29.460   0.005  23.866  0.00  0.00    +0.243 C 
BRANCH  33  34
ATOM     34  C   UNL A   1     -30.065  -1.377  23.573  0.00  0.00    +0.229 C 
ATOM     35  O   UNL A   1     -30.729  -1.878  24.721  0.00  0.00    -0.216 OA
ENDBRANCH  33  34
ENDBRANCH  32  33
ENDBRANCH  25  32
ENDBRANCH  20  21
ENDBRANCH  19  20
ENDBRANCH  17  19
ENDBRANCH  15  17
ENDBRANCH  14  15
ENDBRANCH   1  14
BRANCH   1  36
ATOM     36  O   UNL A   1     -24.628   3.071  31.401  0.00  0.00    -0.330 OA
BRANCH  36  37
ATOM     37  C   UNL A   1     -25.805   3.602  32.012  0.00  0.00    +0.146 C 
BRANCH  37  38
ATOM     38  C   UNL A   1     -26.119   4.989  31.494  0.00  0.00    +0.051 C 
BRANCH  38  39
ATOM     39  C   UNL A   1     -25.257   5.878  32.425  0.00  0.00    +0.091 C 
BRANCH  39  40
ATOM     40  N   UNL A   1     -26.024   5.776  33.649  0.00  0.00    -0.217 NA
BRANCH  40  42
ATOM     41  C   UNL A   1     -24.757   7.203  35.292  0.00  0.00    +0.021 C 
ATOM     42  C   UNL A   1     -26.094   7.025  34.510  0.00  0.00    +0.102 C 
BRANCH  42  43
ATOM     43  C   UNL A   1     -27.486   6.915  35.004  0.00  0.00    +0.160 C 
BRANCH  43  45
ATOM     44  C   UNL A   1     -27.325   9.163  34.239  0.00  0.00    +0.174 C 
ATOM     45  O   UNL A   1     -26.978   8.065  35.106  0.00  0.00    -0.350 OA
ENDBRANCH  43  45
ENDBRANCH  42  43
ENDBRANCH  40  42
ENDBRANCH  39  40
ENDBRANCH  38  39
ENDBRANCH  37  38
ENDBRANCH  36  37
ENDBRANCH   1  36
TORSDOF 21
