MODEL 3767
MODEL 1
REMARK VINA RESULT:    -8.512      0.000      0.000
REMARK INTER + INTRA:         -13.601
REMARK INTER:                 -11.497
REMARK INTRA:                  -2.103
REMARK UNBOUND:                -2.103
REMARK  Name = No_3767-gen_results/8p0m/2024-11-27-11-27-31/
REMARK  6 active torsions:
REMARK  status: ('A' for Active; 'I' for Inactive)
REMARK    1  A    between atoms: C_12  and  C_13
REMARK    2  A    between atoms: C_13  and  O_19
REMARK    3  A    between atoms: O_19  and  C_20
REMARK    4  A    between atoms: C_21  and  C_22
REMARK    5  A    between atoms: C_22  and  C_23
REMARK    6  A    between atoms: C_22  and  C_30
REMARK                            x       y       z     vdW  Elec       q    Type
REMARK                         _______ _______ _______ _____ _____    ______ ____
ROOT
ATOM      1  C   UNL A   1     -25.187   3.311  25.953  0.00  0.00    +0.102 A 
ATOM      2  C   UNL A   1     -26.001   2.488  25.604  0.00  0.00    +0.050 A 
ATOM      3  C   UNL A   1     -27.354   2.770  25.424  0.00  0.00    +0.175 C 
ATOM      4  C   UNL A   1     -28.415   1.828  25.014  0.00  0.00    +0.083 C 
ATOM      5  C   UNL A   1     -27.969   0.548  24.564  0.00  0.00    +0.033 C 
ATOM      6  C   UNL A   1     -26.610   0.239  24.685  0.00  0.00    +0.031 C 
ATOM      7  C   UNL A   1     -25.690   1.115  25.146  0.00  0.00    -0.016 A 
ATOM      8  N   UNL A   1     -24.206   2.871  26.783  0.00  0.00    -0.237 NA
ATOM      9  C   UNL A   1     -28.995  -0.338  24.089  0.00  0.00    -0.026 C 
ATOM     10  C   UNL A   1     -28.706  -1.504  23.666  0.00  0.00    -0.008 C 
ATOM     11  C   UNL A   1     -30.188   0.250  23.460  0.00  0.00    +0.111 C 
ATOM     12  C   UNL A   1     -23.700   1.881  26.713  0.00  0.00    +0.157 A 
ATOM     13  C   UNL A   1     -24.233   0.768  25.882  0.00  0.00    +0.022 A 
ATOM     14  N   UNL A   1     -30.756   1.340  23.980  0.00  0.00    -0.213 NA
ATOM     15  C   UNL A   1     -29.783   2.336  24.544  0.00  0.00    +0.097 C 
ATOM     16  O   UNL A   1     -27.901   3.794  26.101  0.00  0.00    -0.291 OA
ENDROOT
BRANCH  12  17
ATOM     17  C   UNL A   1     -22.522   1.415  27.398  0.00  0.00    +0.364 C 
ATOM     18  O   UNL A   1     -21.465   1.796  27.395  0.00  0.00    -0.243 OA
BRANCH  17  19
ATOM     19  O   UNL A   1     -22.832   0.381  28.316  0.00  0.00    -0.417 OA
BRANCH  19  20
ATOM     20  C   UNL A   1     -22.579   0.327  29.546  0.00  0.00    +0.179 C 
ATOM     21  C   UNL A   1     -23.266  -0.545  30.321  0.00  0.00    +0.023 C 
BRANCH  21  22
ATOM     22  C   UNL A   1     -24.538  -0.932  29.933  0.00  0.00    +0.069 C 
BRANCH  22  23
ATOM     23  C   UNL A   1     -24.841  -2.271  29.677  0.00  0.00    -0.013 A 
ATOM     24  C   UNL A   1     -23.901  -3.028  29.050  0.00  0.00    -0.004 A 
ATOM     25  C   UNL A   1     -24.190  -4.441  28.783  0.00  0.00    +0.001 A 
ATOM     26  C   UNL A   1     -25.439  -4.978  29.195  0.00  0.00    +0.011 A 
ATOM     27  C   UNL A   1     -26.365  -4.160  29.806  0.00  0.00    +0.057 A 
ATOM     28  C   UNL A   1     -26.062  -2.836  30.037  0.00  0.00    +0.008 A 
ATOM     29 CL   UNL A   1     -27.846  -4.858  30.196  0.00  0.00    -0.082 Cl
ENDBRANCH  22  23
BRANCH  22  30
ATOM     30  C   UNL A   1     -25.662  -0.015  29.838  0.00  0.00    -0.022 C 
ATOM     31  C   UNL A   1     -26.134   0.466  28.945  0.00  0.00    -0.030 C 
ATOM     32  C   UNL A   1     -27.276   1.377  28.885  0.00  0.00    +0.030 C 
ENDBRANCH  22  30
ENDBRANCH  21  22
ENDBRANCH  19  20
ENDBRANCH  17  19
ENDBRANCH  12  17
TORSDOF 6
ENDMDL
ENDMDL
