REMARK  Name = outputs/IAG933/test6/raw/output_3768_IAG933_linker_design_.xyz
REMARK  15 active torsions:
REMARK  status: ('A' for Active; 'I' for Inactive)
REMARK    1  A    between atoms: C_1  and  C_2
REMARK    2  A    between atoms: C_1  and  C_8
REMARK    3  A    between atoms: C_1  and  N_29
REMARK    4  A    between atoms: C_14  and  C_15
REMARK    5  A    between atoms: C_21  and  O_22
REMARK    6  A    between atoms: O_22  and  C_23
REMARK    7  A    between atoms: C_23  and  C_24
REMARK    8  A    between atoms: O_28  and  N_29
REMARK    9  A    between atoms: O_28  and  C_33
REMARK   10  A    between atoms: N_29  and  O_35
REMARK   11  A    between atoms: C_31  and  O_35
REMARK   12  A    between atoms: C_31  and  C_37
REMARK   13  A    between atoms: C_32  and  C_36
REMARK   14  A    between atoms: C_33  and  C_36
REMARK   15  A    between atoms: C_37  and  C_44
REMARK                            x       y       z     vdW  Elec       q    Type
REMARK                         _______ _______ _______ _____ _____    ______ ____
ROOT
ATOM      1  N   UNL A   1     -24.664  -0.236  28.855  0.00  0.00    -0.000 NA
ENDROOT
BRANCH   1   2
ATOM      2  C   UNL A   1     -24.855  -1.012  30.143  0.00  0.00    +0.163 C 
BRANCH   2   3
ATOM      3  C   UNL A   1     -24.973  -2.505  29.788  0.00  0.00    -0.001 C 
ATOM      4  C   UNL A   1     -23.906  -3.173  29.146  0.00  0.00    -0.003 C 
ATOM      5  C   UNL A   1     -23.989  -4.549  28.853  0.00  0.00    -0.000 C 
ATOM      6  C   UNL A   1     -25.137  -5.280  29.205  0.00  0.00    -0.000 C 
ATOM      7  C   UNL A   1     -26.232  -4.611  29.784  0.00  0.00    -0.000 C 
ATOM      8  C   UNL A   1     -26.155  -3.232  30.065  0.00  0.00    -0.003 C 
ENDBRANCH   2   3
BRANCH   2   9
ATOM      9  C   UNL A   1     -25.387  -0.679  31.571  0.00  0.00    +0.097 C 
ATOM     10  C   UNL A   1     -25.189   0.773  32.028  0.00  0.00    +0.021 C 
ATOM     11  C   UNL A   1     -25.336   0.684  33.544  0.00  0.00    +0.020 C 
ATOM     12  C   UNL A   1     -24.829  -0.715  33.905  0.00  0.00    +0.089 C 
ATOM     13  N   UNL A   1     -24.758  -1.481  32.646  0.00  0.00    -0.217 NA
ENDBRANCH   2   9
ENDBRANCH   1   2
BRANCH   1  14
ATOM     14  O   UNL A   1     -25.698   0.637  29.092  0.00  0.00    -0.249 OA
BRANCH  14  15
ATOM     15  C   UNL A   1     -27.003  -0.042  28.698  0.00  0.00    +0.175 C 
BRANCH  15  16
ATOM     16  C   UNL A   1     -28.018   0.283  29.797  0.00  0.00    +0.061 C 
BRANCH  16  18
ATOM     17  C   UNL A   1     -29.367   4.341  30.057  0.00  0.00    -0.000 C 
ATOM     18  C   UNL A   1     -28.460   1.729  29.874  0.00  0.00    -0.020 C 
ATOM     19  C   UNL A   1     -29.719   2.077  29.472  0.00  0.00    -0.004 C 
ATOM     20  C   UNL A   1     -27.633   2.702  30.404  0.00  0.00    -0.004 C 
ATOM     21  C   UNL A   1     -28.071   4.026  30.474  0.00  0.00    -0.000 C 
ATOM     22  C   UNL A   1     -30.183   3.371  29.564  0.00  0.00    -0.000 C 
ENDBRANCH  16  18
ENDBRANCH  15  16
ENDBRANCH  14  15
ENDBRANCH   1  14
BRANCH   1  23
ATOM     23  O   UNL A   1     -23.439   0.086  28.295  0.00  0.00    -0.370 OA
BRANCH  23  31
ATOM     24  C   UNL A   1     -25.688   1.614  26.461  0.00  0.00    +0.062 C 
ATOM     25  C   UNL A   1     -26.250   2.920  26.395  0.00  0.00    +0.080 C 
ATOM     26  C   UNL A   1     -27.438   3.091  25.645  0.00  0.00    +0.107 C 
ATOM     27  N   UNL A   1     -28.075   2.089  25.003  0.00  0.00    -0.211 NA
ATOM     28  C   UNL A   1     -27.543   0.849  25.079  0.00  0.00    +0.239 C 
ATOM     29  C   UNL A   1     -26.354   0.576  25.777  0.00  0.00    +0.265 C 
ATOM     30  F   UNL A   1     -25.860  -0.681  25.795  0.00  0.00    -0.222 F 
ATOM     31  C   UNL A   1     -23.679   0.939  27.367  0.00  0.00    +0.216 C 
ATOM     32  C   UNL A   1     -24.870   1.271  27.036  0.00  0.00    -0.066 C 
BRANCH  25  33
ATOM     33  C   UNL A   1     -25.642   4.093  27.123  0.00  0.00    +0.267 C 
ATOM     34  N   UNL A   1     -25.614   5.252  26.449  0.00  0.00    -0.200 NA
ATOM     35  C   UNL A   1     -25.026   6.479  26.963  0.00  0.00    +0.139 C 
ATOM     36  O   UNL A   1     -25.143   3.966  28.243  0.00  0.00    -0.268 OA
ENDBRANCH  25  33
BRANCH  31  37
ATOM     37  C   UNL A   1     -22.919   1.998  26.834  0.00  0.00    +0.261 C 
ATOM     38  O   UNL A   1     -23.076   2.650  25.650  0.00  0.00    -0.207 OA
BRANCH  37  40
ATOM     39  N   UNL A   1     -20.745   1.550  27.766  0.00  0.00    -0.148 NA
ATOM     40  C   UNL A   1     -21.743   2.391  27.567  0.00  0.00    +0.137 C 
ENDBRANCH  37  40
ENDBRANCH  31  37
BRANCH  28  41
ATOM     41  O   UNL A   1     -28.193  -0.208  24.477  0.00  0.00    -0.458 OA
BRANCH  41  42
ATOM     42  C   UNL A   1     -29.460   0.005  23.866  0.00  0.00    +0.242 C 
BRANCH  42  43
ATOM     43  C   UNL A   1     -30.065  -1.377  23.573  0.00  0.00    +0.229 C 
ATOM     44  O   UNL A   1     -30.729  -1.878  24.721  0.00  0.00    -0.216 OA
ENDBRANCH  42  43
ENDBRANCH  41  42
ENDBRANCH  28  41
ENDBRANCH  23  31
ENDBRANCH   1  23
TORSDOF 15
