MODEL 3768
MODEL 1
REMARK VINA RESULT:    -4.556      0.000      0.000
REMARK INTER + INTRA:          -5.896
REMARK INTER:                  -5.621
REMARK INTRA:                  -0.275
REMARK UNBOUND:                -0.275
REMARK  Name = No_3768-gen_results/8p0m/2024-11-27-11-27-31/
REMARK  4 active torsions:
REMARK  status: ('A' for Active; 'I' for Inactive)
REMARK    1  A    between atoms: C_2  and  C_3
REMARK    2  A    between atoms: C_3  and  C_4
REMARK    3  A    between atoms: C_4  and  C_5
REMARK    4  A    between atoms: C_6  and  C_7
REMARK                            x       y       z     vdW  Elec       q    Type
REMARK                         _______ _______ _______ _____ _____    ______ ____
ROOT
ATOM      1  C   UNL A   1     -24.621  -1.841  28.277  0.00  0.00    -0.026 C 
ATOM      2  C   UNL A   1     -24.145  -0.532  28.208  0.00  0.00    -0.005 C 
ENDROOT
BRANCH   2   3
ATOM      3  C   UNL A   1     -22.854  -0.264  28.732  0.00  0.00    -0.005 C 
ATOM      4  C   UNL A   1     -22.045   0.712  28.233  0.00  0.00    -0.026 C 
ATOM      5  C   UNL A   1     -22.541   1.581  27.215  0.00  0.00    +0.031 C 
ENDBRANCH   2   3
BRANCH   1   6
ATOM      6  C   UNL A   1     -23.870  -2.813  29.005  0.00  0.00    +0.031 C 
BRANCH   6   7
ATOM      7  C   UNL A   1     -24.074  -4.217  28.599  0.00  0.00    +0.031 C 
BRANCH   7   9
ATOM      8  C   UNL A   1     -26.070  -4.801  29.572  0.00  0.00    -0.005 C 
ATOM      9  C   UNL A   1     -24.992  -5.123  29.130  0.00  0.00    -0.026 C 
ENDBRANCH   7   9
ENDBRANCH   6   7
ENDBRANCH   1   6
TORSDOF 4
ENDMDL
ENDMDL
