REMARK  Name = outputs/IAG933/test6/raw/output_3769_IAG933_linker_design_.xyz
REMARK  14 active torsions:
REMARK  status: ('A' for Active; 'I' for Inactive)
REMARK    1  A    between atoms: C_1  and  C_2
REMARK    2  A    between atoms: C_1  and  C_8
REMARK    3  A    between atoms: C_1  and  C_29
REMARK    4  A    between atoms: C_13  and  C_42
REMARK    5  A    between atoms: C_14  and  C_15
REMARK    6  A    between atoms: C_21  and  O_22
REMARK    7  A    between atoms: O_22  and  C_23
REMARK    8  A    between atoms: C_23  and  C_24
REMARK    9  A    between atoms: C_29  and  C_40
REMARK   10  A    between atoms: C_29  and  C_42
REMARK   11  A    between atoms: N_34  and  C_38
REMARK   12  A    between atoms: C_36  and  C_39
REMARK   13  A    between atoms: C_36  and  C_40
REMARK   14  A    between atoms: N_37  and  C_42
REMARK                            x       y       z     vdW  Elec       q    Type
REMARK                         _______ _______ _______ _____ _____    ______ ____
ROOT
ATOM      1  C   UNL A   1     -25.431   0.015  29.003  0.00  0.00    +0.025 C 
ENDROOT
BRANCH   1   2
ATOM      2  C   UNL A   1     -24.855  -1.012  30.143  0.00  0.00    +0.040 C 
BRANCH   2   3
ATOM      3  C   UNL A   1     -24.973  -2.505  29.788  0.00  0.00    -0.021 C 
ATOM      4  C   UNL A   1     -23.906  -3.173  29.146  0.00  0.00    -0.004 C 
ATOM      5  C   UNL A   1     -23.989  -4.549  28.853  0.00  0.00    -0.000 C 
ATOM      6  C   UNL A   1     -25.137  -5.280  29.205  0.00  0.00    -0.000 C 
ATOM      7  C   UNL A   1     -26.232  -4.611  29.784  0.00  0.00    -0.000 C 
ATOM      8  C   UNL A   1     -26.155  -3.232  30.065  0.00  0.00    -0.004 C 
ENDBRANCH   2   3
BRANCH   2   9
ATOM      9  C   UNL A   1     -25.387  -0.679  31.571  0.00  0.00    +0.077 C 
ATOM     10  C   UNL A   1     -25.189   0.773  32.028  0.00  0.00    +0.019 C 
ATOM     11  C   UNL A   1     -25.336   0.684  33.544  0.00  0.00    +0.020 C 
ATOM     12  C   UNL A   1     -24.829  -0.715  33.905  0.00  0.00    +0.089 C 
ATOM     13  N   UNL A   1     -24.758  -1.481  32.646  0.00  0.00    -0.219 NA
ENDBRANCH   2   9
ENDBRANCH   1   2
BRANCH   1  14
ATOM     14  C   UNL A   1     -26.966  -0.531  28.581  0.00  0.00    +0.002 C 
BRANCH  14  15
ATOM     15  C   UNL A   1     -28.197   0.187  28.292  0.00  0.00    +0.002 C 
BRANCH  15  19
ATOM     16  C   UNL A   1     -28.801   1.373  30.164  0.00  0.00    +0.077 C 
ATOM     17  C   UNL A   1     -29.915   1.690  28.138  0.00  0.00    +0.051 C 
ATOM     18  N   UNL A   1     -28.587   2.853  29.789  0.00  0.00    -0.220 NA
ATOM     19  C   UNL A   1     -29.307   0.726  28.954  0.00  0.00    +0.020 C 
ATOM     20  O   UNL A   1     -30.608   3.733  29.110  0.00  0.00    -0.205 OA
ATOM     21  C   UNL A   1     -29.483   3.034  28.639  0.00  0.00    +0.215 C 
BRANCH  18  23
ATOM     22  O   UNL A   1     -29.183   2.782  32.154  0.00  0.00    -0.201 OA
ATOM     23  C   UNL A   1     -28.657   3.608  31.050  0.00  0.00    +0.261 C 
ENDBRANCH  18  23
ENDBRANCH  15  19
ENDBRANCH  14  15
ENDBRANCH   1  14
BRANCH   1  24
ATOM     24  C   UNL A   1     -24.857   1.084  27.805  0.00  0.00    +0.100 C 
BRANCH  24  25
ATOM     25  C   UNL A   1     -25.688   1.614  26.461  0.00  0.00    +0.090 C 
ATOM     26  C   UNL A   1     -26.250   2.920  26.395  0.00  0.00    +0.057 C 
ATOM     27  C   UNL A   1     -27.438   3.091  25.645  0.00  0.00    +0.102 C 
ATOM     28  N   UNL A   1     -28.075   2.089  25.003  0.00  0.00    -0.212 NA
ATOM     29  C   UNL A   1     -27.543   0.849  25.079  0.00  0.00    +0.234 C 
ATOM     30  C   UNL A   1     -26.354   0.576  25.777  0.00  0.00    +0.242 C 
ATOM     31  F   UNL A   1     -25.860  -0.681  25.795  0.00  0.00    -0.227 F 
BRANCH  26  32
ATOM     32  C   UNL A   1     -25.642   4.093  27.123  0.00  0.00    +0.263 C 
ATOM     33  N   UNL A   1     -25.614   5.252  26.449  0.00  0.00    -0.200 NA
ATOM     34  C   UNL A   1     -25.026   6.479  26.963  0.00  0.00    +0.139 C 
ATOM     35  O   UNL A   1     -25.143   3.966  28.243  0.00  0.00    -0.269 OA
ENDBRANCH  26  32
BRANCH  29  36
ATOM     36  O   UNL A   1     -28.193  -0.208  24.477  0.00  0.00    -0.459 OA
BRANCH  36  37
ATOM     37  C   UNL A   1     -29.460   0.005  23.866  0.00  0.00    +0.242 C 
BRANCH  37  38
ATOM     38  C   UNL A   1     -30.065  -1.377  23.573  0.00  0.00    +0.229 C 
ATOM     39  O   UNL A   1     -30.729  -1.878  24.721  0.00  0.00    -0.216 OA
ENDBRANCH  37  38
ENDBRANCH  36  37
ENDBRANCH  29  36
ENDBRANCH  24  25
BRANCH  24  43
ATOM     40  O   UNL A   1     -22.475   0.107  29.304  0.00  0.00    -0.274 OA
ATOM     41  C   UNL A   1     -22.455   0.894  28.428  0.00  0.00    +0.239 C 
ATOM     42 CL   UNL A   1     -22.917   1.875  26.015  0.00  0.00    +0.005 Cl
ATOM     43  N   UNL A   1     -23.459   1.272  27.643  0.00  0.00    -0.204 N 
ATOM     44  C   UNL A   1     -21.091   1.225  27.999  0.00  0.00    +0.096 C 
ENDBRANCH  24  43
ENDBRANCH   1  24
TORSDOF 14
