MODEL 3769
MODEL 1
REMARK VINA RESULT:    -5.056      0.000      0.000
REMARK INTER + INTRA:          -5.697
REMARK INTER:                  -5.647
REMARK INTRA:                  -0.050
REMARK UNBOUND:                -0.050
REMARK  Name = No_3769-gen_results/8p0m/2024-11-27-11-27-31/
REMARK  2 active torsions:
REMARK  status: ('A' for Active; 'I' for Inactive)
REMARK    1  A    between atoms: C_1  and  C_2
REMARK    2  A    between atoms: C_1  and  N_8
REMARK                            x       y       z     vdW  Elec       q    Type
REMARK                         _______ _______ _______ _____ _____    ______ ____
ROOT
ATOM      1  C   UNL A   1     -24.693  -2.472  29.260  0.00  0.00    +0.002 A 
ATOM      2  C   UNL A   1     -25.873  -2.950  29.731  0.00  0.00    -0.002 A 
ATOM      3  C   UNL A   1     -26.265  -4.378  29.725  0.00  0.00    -0.000 A 
ATOM      4  C   UNL A   1     -25.329  -5.305  29.158  0.00  0.00    -0.000 A 
ATOM      5  C   UNL A   1     -24.144  -4.759  28.614  0.00  0.00    -0.000 A 
ATOM      6  C   UNL A   1     -23.848  -3.421  28.656  0.00  0.00    -0.002 A 
ENDROOT
BRANCH   1   7
ATOM      7  C   UNL A   1     -24.386  -1.303  29.270  0.00  0.00    +0.153 C 
BRANCH   7   8
ATOM      8  N   UNL A   1     -23.097  -0.906  28.932  0.00  0.00    -0.246 NA
ATOM      9  C   UNL A   1     -22.248  -0.331  29.323  0.00  0.00    +0.200 C 
ATOM     10  N   UNL A   1     -21.017  -0.073  28.665  0.00  0.00    -0.104 NA
ENDBRANCH   7   8
ENDBRANCH   1   7
TORSDOF 2
ENDMDL
ENDMDL
