MODEL 376
MODEL 1
REMARK VINA RESULT:    -5.040      0.000      0.000
REMARK INTER + INTRA:          -6.175
REMARK INTER:                  -5.924
REMARK INTRA:                  -0.251
REMARK UNBOUND:                -0.251
REMARK  Name = No_376-gen_results/8p0m/2024-11-27-11-27-31/
REMARK  3 active torsions:
REMARK  status: ('A' for Active; 'I' for Inactive)
REMARK    1  A    between atoms: C_6  and  C_8
REMARK    2  A    between atoms: C_8  and  N_9
REMARK    3  A    between atoms: N_9  and  C_10
REMARK                            x       y       z     vdW  Elec       q    Type
REMARK                         _______ _______ _______ _____ _____    ______ ____
ROOT
ATOM      1  C   UNL A   1     -25.868  -2.949  29.682  0.00  0.00    +0.009 A 
ATOM      2  C   UNL A   1     -26.270  -4.088  29.736  0.00  0.00    +0.057 A 
ATOM      3  C   UNL A   1     -25.496  -5.145  29.270  0.00  0.00    +0.011 A 
ATOM      4  C   UNL A   1     -24.210  -4.912  28.665  0.00  0.00    +0.001 A 
ATOM      5  C   UNL A   1     -23.834  -3.563  28.621  0.00  0.00    -0.003 A 
ATOM      6  C   UNL A   1     -24.610  -2.599  29.060  0.00  0.00    +0.000 A 
ATOM      7 CL   UNL A   1     -27.791  -4.543  30.378  0.00  0.00    -0.082 Cl
ENDROOT
BRANCH   6   8
ATOM      8  C   UNL A   1     -24.113  -1.213  28.904  0.00  0.00    +0.139 C 
BRANCH   8   9
ATOM      9  N   UNL A   1     -23.678  -0.692  29.912  0.00  0.00    -0.232 NA
BRANCH   9  10
ATOM     10  C   UNL A   1     -22.462  -0.218  30.011  0.00  0.00    +0.081 C 
ATOM     11  C   UNL A   1     -21.570  -0.351  28.969  0.00  0.00    +0.019 C 
ENDBRANCH   9  10
ENDBRANCH   8   9
ENDBRANCH   6   8
TORSDOF 3
ENDMDL
ENDMDL
