MODEL 3770
MODEL 1
REMARK VINA RESULT:    -7.309      0.000      0.000
REMARK INTER + INTRA:         -14.343
REMARK INTER:                 -11.582
REMARK INTRA:                  -2.761
REMARK UNBOUND:                -2.761
REMARK  Name = No_3770-gen_results/8p0m/2024-11-27-11-27-31/
REMARK  10 active torsions:
REMARK  status: ('A' for Active; 'I' for Inactive)
REMARK    1  A    between atoms: C_2  and  C_20
REMARK    2  A    between atoms: C_4  and  O_28
REMARK    3  A    between atoms: C_6  and  O_8
REMARK    4  A    between atoms: O_8  and  C_9
REMARK    5  A    between atoms: C_9  and  C_10
REMARK    6  A    between atoms: C_10  and  O_11
REMARK    7  A    between atoms: O_11  and  C_12
REMARK    8  A    between atoms: C_12  and  C_14
REMARK    9  A    between atoms: C_21  and  C_22
REMARK   10  A    between atoms: C_25  and  C_30
REMARK                            x       y       z     vdW  Elec       q    Type
REMARK                         _______ _______ _______ _____ _____    ______ ____
ROOT
ATOM      1  C   UNL A   1     -30.991 -11.064  11.139  0.00  0.00    +0.039 A 
ATOM      2  C   UNL A   1     -31.064 -10.377  10.146  0.00  0.00    +0.034 A 
ATOM      3  C   UNL A   1     -31.938 -10.636   9.092  0.00  0.00    +0.174 A 
ATOM      4  C   UNL A   1     -32.772 -11.821   9.141  0.00  0.00    +0.169 A 
ATOM      5  C   UNL A   1     -32.627 -12.579  10.325  0.00  0.00    +0.076 A 
ATOM      6  C   UNL A   1     -31.771 -12.259  11.262  0.00  0.00    +0.143 A 
ATOM      7  F   UNL A   1     -32.032  -9.916   7.978  0.00  0.00    -0.201 F 
ENDROOT
BRANCH   2   8
ATOM      8  C   UNL A   1     -30.278  -9.073   9.965  0.00  0.00    +0.002 A 
ATOM      9  C   UNL A   1     -29.089  -9.064   9.346  0.00  0.00    +0.000 A 
ATOM     10  C   UNL A   1     -31.119  -7.919  10.218  0.00  0.00    +0.000 A 
ATOM     11  C   UNL A   1     -30.560  -6.739   9.989  0.00  0.00    +0.000 A 
ATOM     12  C   UNL A   1     -29.215  -6.643   9.452  0.00  0.00    +0.000 A 
ATOM     13  C   UNL A   1     -28.471  -7.802   9.172  0.00  0.00    +0.000 A 
BRANCH  11  14
ATOM     14  C   UNL A   1     -31.257  -5.462  10.322  0.00  0.00    +0.000 A 
ATOM     15  C   UNL A   1     -31.921  -5.315  11.404  0.00  0.00    +0.000 A 
ATOM     16  C   UNL A   1     -32.556  -4.113  11.754  0.00  0.00    +0.000 A 
ATOM     17  C   UNL A   1     -32.418  -3.028  10.948  0.00  0.00    +0.000 A 
ATOM     18  C   UNL A   1     -31.702  -3.159   9.809  0.00  0.00    +0.000 A 
ATOM     19  C   UNL A   1     -31.120  -4.333   9.445  0.00  0.00    +0.000 A 
ENDBRANCH  11  14
BRANCH   9  20
ATOM     20  C   UNL A   1     -28.446 -10.187   9.078  0.00  0.00    +0.000 C 
ATOM     21  C   UNL A   1     -26.971 -10.204   9.017  0.00  0.00    +0.000 C 
ENDBRANCH   9  20
ENDBRANCH   2   8
BRANCH   4  22
ATOM     22  O   UNL A   1     -33.629 -12.089   8.183  0.00  0.00    -0.469 OA
ATOM     23  C   UNL A   1     -34.542 -12.980   8.328  0.00  0.00    +0.253 C 
ENDBRANCH   4  22
BRANCH   6  24
ATOM     24  O   UNL A   1     -31.665 -13.080  12.377  0.00  0.00    -0.464 OA
BRANCH  24  25
ATOM     25  C   UNL A   1     -30.440 -13.222  13.018  0.00  0.00    +0.314 C 
BRANCH  25  26
ATOM     26  C   UNL A   1     -29.809 -14.412  12.625  0.00  0.00    +0.366 C 
ATOM     27  O   UNL A   1     -29.513 -15.387  13.393  0.00  0.00    -0.246 OA
BRANCH  26  28
ATOM     28  O   UNL A   1     -29.445 -14.457  11.433  0.00  0.00    -0.392 OA
BRANCH  28  29
ATOM     29  C   UNL A   1     -29.821 -15.349  10.596  0.00  0.00    +0.502 C 
ATOM     30  F   UNL A   1     -31.126 -15.753  10.837  0.00  0.00    -0.156 F 
ATOM     31  F   UNL A   1     -29.090 -16.507  10.549  0.00  0.00    -0.156 F 
BRANCH  29  32
ATOM     32  C   UNL A   1     -29.887 -14.886   9.263  0.00  0.00    +0.497 C 
ATOM     33  F   UNL A   1     -31.055 -14.984   8.691  0.00  0.00    -0.162 F 
ATOM     34  F   UNL A   1     -29.519 -13.538   9.219  0.00  0.00    -0.162 F 
ATOM     35  F   UNL A   1     -29.073 -15.496   8.325  0.00  0.00    -0.162 F 
ENDBRANCH  29  32
ENDBRANCH  28  29
ENDBRANCH  26  28
ENDBRANCH  25  26
ENDBRANCH  24  25
ENDBRANCH   6  24
TORSDOF 10
ENDMDL
ENDMDL
