REMARK  Name = outputs/IAG933/test6/raw/output_3770_IAG933_linker_design_.xyz
REMARK  10 active torsions:
REMARK  status: ('A' for Active; 'I' for Inactive)
REMARK    1  A    between atoms: C_1  and  C_2
REMARK    2  A    between atoms: C_1  and  C_8
REMARK    3  A    between atoms: C_1  and  N_36
REMARK    4  A    between atoms: C_13  and  C_33
REMARK    5  A    between atoms: C_14  and  C_15
REMARK    6  A    between atoms: C_21  and  O_22
REMARK    7  A    between atoms: O_22  and  C_23
REMARK    8  A    between atoms: C_23  and  C_24
REMARK    9  A    between atoms: C_31  and  C_41
REMARK   10  A    between atoms: C_32  and  N_36
REMARK                            x       y       z     vdW  Elec       q    Type
REMARK                         _______ _______ _______ _____ _____    ______ ____
ROOT
ATOM      1  C   UNL A   1     -23.177   1.789  26.706  0.00  0.00    +0.091 A 
ATOM      2  C   UNL A   1     -24.356   0.564  28.427  0.00  0.00    +0.090 A 
ATOM      3  C   UNL A   1     -24.447   1.334  27.219  0.00  0.00    +0.024 A 
ATOM      4  C   UNL A   1     -22.072   1.504  27.420  0.00  0.00    +0.225 A 
ATOM      5  N   UNL A   1     -22.629  -0.485  30.054  0.00  0.00    -0.106 NA
ATOM      6  N   UNL A   1     -22.108   1.107  28.628  0.00  0.00    -0.199 NA
ATOM      7  F   UNL A   1     -20.896   1.619  26.808  0.00  0.00    -0.183 F 
ATOM      8  C   UNL A   1     -23.061   0.366  29.052  0.00  0.00    +0.185 A 
ENDROOT
BRANCH   3   9
ATOM      9  C   UNL A   1     -25.688   1.614  26.461  0.00  0.00    +0.039 C 
ATOM     10  C   UNL A   1     -26.250   2.920  26.395  0.00  0.00    +0.077 C 
ATOM     11  C   UNL A   1     -27.438   3.091  25.645  0.00  0.00    +0.107 C 
ATOM     12  N   UNL A   1     -28.075   2.089  25.003  0.00  0.00    -0.208 NA
ATOM     13  C   UNL A   1     -27.543   0.849  25.079  0.00  0.00    +0.253 C 
ATOM     14  C   UNL A   1     -26.354   0.576  25.777  0.00  0.00    +0.193 C 
ATOM     15  F   UNL A   1     -25.860  -0.681  25.795  0.00  0.00    -0.199 F 
BRANCH  10  16
ATOM     16  C   UNL A   1     -25.642   4.093  27.123  0.00  0.00    +0.266 C 
ATOM     17  N   UNL A   1     -25.614   5.252  26.449  0.00  0.00    -0.200 NA
ATOM     18  C   UNL A   1     -25.026   6.479  26.963  0.00  0.00    +0.139 C 
ATOM     19  O   UNL A   1     -25.143   3.966  28.243  0.00  0.00    -0.268 OA
ENDBRANCH  10  16
BRANCH  13  20
ATOM     20  O   UNL A   1     -28.193  -0.208  24.477  0.00  0.00    -0.456 OA
BRANCH  20  21
ATOM     21  C   UNL A   1     -29.460   0.005  23.866  0.00  0.00    +0.243 C 
BRANCH  21  22
ATOM     22  C   UNL A   1     -30.065  -1.377  23.573  0.00  0.00    +0.229 C 
ATOM     23  O   UNL A   1     -30.729  -1.878  24.721  0.00  0.00    -0.216 OA
ENDBRANCH  21  22
ENDBRANCH  20  21
ENDBRANCH  13  20
ENDBRANCH   3   9
BRANCH   2  26
ATOM     24  C   UNL A   1     -26.909  -0.118  28.736  0.00  0.00    +0.347 C 
ATOM     25  N   UNL A   1     -27.679   0.775  29.298  0.00  0.00    -0.069 NA
ATOM     26  N   UNL A   1     -25.509  -0.132  29.117  0.00  0.00    -0.234 N 
ATOM     27  O   UNL A   1     -27.280  -0.924  27.939  0.00  0.00    -0.249 OA
BRANCH  26  28
ATOM     28  C   UNL A   1     -24.855  -1.012  30.143  0.00  0.00    +0.120 C 
BRANCH  28  29
ATOM     29  C   UNL A   1     -24.973  -2.505  29.788  0.00  0.00    -0.003 C 
ATOM     30  C   UNL A   1     -23.906  -3.173  29.146  0.00  0.00    -0.003 C 
ATOM     31  C   UNL A   1     -23.989  -4.549  28.853  0.00  0.00    -0.000 C 
ATOM     32  C   UNL A   1     -25.137  -5.280  29.205  0.00  0.00    -0.000 C 
ATOM     33  C   UNL A   1     -26.232  -4.611  29.784  0.00  0.00    -0.000 C 
ATOM     34  C   UNL A   1     -26.155  -3.232  30.065  0.00  0.00    -0.003 C 
ENDBRANCH  28  29
BRANCH  28  35
ATOM     35  C   UNL A   1     -25.387  -0.679  31.571  0.00  0.00    +0.096 C 
ATOM     36  C   UNL A   1     -25.189   0.773  32.028  0.00  0.00    +0.021 C 
ATOM     37  C   UNL A   1     -25.336   0.684  33.544  0.00  0.00    +0.020 C 
ATOM     38  C   UNL A   1     -24.829  -0.715  33.905  0.00  0.00    +0.089 C 
ATOM     39  N   UNL A   1     -24.758  -1.481  32.646  0.00  0.00    -0.217 NA
ENDBRANCH  28  35
ENDBRANCH  26  28
ENDBRANCH   2  26
BRANCH   1  42
ATOM     40  F   UNL A   1     -23.361   3.436  24.966  0.00  0.00    -0.193 F 
ATOM     41  F   UNL A   1     -21.568   2.120  25.131  0.00  0.00    -0.193 F 
ATOM     42  C   UNL A   1     -22.725   2.429  25.580  0.00  0.00    +0.345 C 
ENDBRANCH   1  42
TORSDOF 10
