MODEL 3771
MODEL 1
REMARK VINA RESULT:    -6.698      0.000      0.000
REMARK INTER + INTRA:          -9.942
REMARK INTER:                  -8.655
REMARK INTRA:                  -1.286
REMARK UNBOUND:                -1.286
REMARK  Name = No_3771-gen_results/8p0m/2024-11-27-11-27-31/
REMARK  5 active torsions:
REMARK  status: ('A' for Active; 'I' for Inactive)
REMARK    1  A    between atoms: C_1  and  C_2
REMARK    2  A    between atoms: C_1  and  N_8
REMARK    3  A    between atoms: C_5  and  C_10
REMARK    4  A    between atoms: N_8  and  C_14
REMARK    5  A    between atoms: C_14  and  C_15
REMARK                            x       y       z     vdW  Elec       q    Type
REMARK                         _______ _______ _______ _____ _____    ______ ____
ROOT
ATOM      1  C   UNL A   1     -23.013   0.041  29.691  0.00  0.00    +0.245 C 
ATOM      2  F   UNL A   1     -23.230   0.957  30.553  0.00  0.00    -0.214 F 
ENDROOT
BRANCH   1   3
ATOM      3  C   UNL A   1     -23.689  -0.962  29.696  0.00  0.00    +0.026 A 
ATOM      4  C   UNL A   1     -24.886  -1.066  30.327  0.00  0.00    -0.000 A 
ATOM      5  C   UNL A   1     -25.726  -2.285  30.341  0.00  0.00    +0.001 A 
ATOM      6  C   UNL A   1     -25.235  -3.419  29.614  0.00  0.00    +0.044 A 
ATOM      7  C   UNL A   1     -24.022  -3.247  28.911  0.00  0.00    +0.001 A 
ATOM      8  C   UNL A   1     -23.296  -2.084  28.944  0.00  0.00    -0.000 A 
BRANCH   6   9
ATOM      9  C   UNL A   1     -25.939  -4.641  29.525  0.00  0.00    +0.341 C 
ATOM     10  F   UNL A   1     -26.993  -4.712  29.550  0.00  0.00    -0.193 F 
ATOM     11  F   UNL A   1     -25.164  -5.627  29.157  0.00  0.00    -0.193 F 
ENDBRANCH   6   9
ENDBRANCH   1   3
BRANCH   1  12
ATOM     12  N   UNL A   1     -22.689   0.677  28.425  0.00  0.00    -0.237 NA
ATOM     13  C   UNL A   1     -21.392   0.882  28.090  0.00  0.00    +0.092 C 
BRANCH  12  14
ATOM     14  C   UNL A   1     -23.613   1.445  27.650  0.00  0.00    +0.102 C 
BRANCH  14  15
ATOM     15  C   UNL A   1     -24.403   0.869  26.720  0.00  0.00    -0.006 A 
ATOM     16  C   UNL A   1     -24.165   0.864  25.495  0.00  0.00    -0.003 A 
ATOM     17  C   UNL A   1     -25.067   0.213  24.602  0.00  0.00    -0.000 A 
ATOM     18  C   UNL A   1     -26.375  -0.085  25.043  0.00  0.00    -0.000 A 
ATOM     19  C   UNL A   1     -26.752   0.321  26.321  0.00  0.00    -0.000 A 
ATOM     20  C   UNL A   1     -25.814   0.822  27.198  0.00  0.00    -0.003 A 
ENDBRANCH  14  15
ENDBRANCH  12  14
ENDBRANCH   1  12
TORSDOF 5
ENDMDL
ENDMDL
