MODEL 3772
MODEL 1
REMARK VINA RESULT:    -5.056      0.000      0.000
REMARK INTER + INTRA:          -6.184
REMARK INTER:                  -5.647
REMARK INTRA:                  -0.537
REMARK UNBOUND:                -0.537
REMARK  Name = No_3772-gen_results/8p0m/2024-11-27-11-27-31/
REMARK  2 active torsions:
REMARK  status: ('A' for Active; 'I' for Inactive)
REMARK    1  A    between atoms: C_1  and  C_2
REMARK    2  A    between atoms: C_3  and  C_10
REMARK                            x       y       z     vdW  Elec       q    Type
REMARK                         _______ _______ _______ _____ _____    ______ ____
ROOT
ATOM      1  C   UNL A   1     -24.197   0.324  27.118  0.00  0.00    -0.004 A 
ATOM      2  C   UNL A   1     -23.165   1.362  27.223  0.00  0.00    -0.022 A 
ATOM      3  C   UNL A   1     -21.832   1.051  27.774  0.00  0.00    -0.004 A 
ATOM      4  C   UNL A   1     -21.747   0.038  28.756  0.00  0.00    -0.000 A 
ATOM      5  C   UNL A   1     -22.900  -0.784  28.990  0.00  0.00    -0.000 A 
ATOM      6  C   UNL A   1     -24.044  -0.562  28.342  0.00  0.00    -0.000 A 
ENDROOT
BRANCH   1   7
ATOM      7  C   UNL A   1     -25.146   0.701  26.854  0.00  0.00    -0.005 C 
ATOM      8  C   UNL A   1     -25.992   0.317  25.867  0.00  0.00    -0.026 C 
ATOM      9  C   UNL A   1     -25.300  -0.321  24.779  0.00  0.00    +0.031 C 
ENDBRANCH   1   7
BRANCH   2  10
ATOM     10  C   UNL A   1     -23.173   2.423  26.346  0.00  0.00    +0.026 C 
ATOM     11  C   UNL A   1     -22.580   2.426  25.076  0.00  0.00    +0.005 C 
ENDBRANCH   2  10
TORSDOF 2
ENDMDL
ENDMDL
