REMARK  Name = outputs/IAG933/test6/raw/output_3772_IAG933_linker_design_.xyz
REMARK  12 active torsions:
REMARK  status: ('A' for Active; 'I' for Inactive)
REMARK    1  A    between atoms: C_1  and  C_2
REMARK    2  A    between atoms: C_1  and  C_8
REMARK    3  A    between atoms: C_1  and  C_37
REMARK    4  A    between atoms: C_13  and  C_29
REMARK    5  A    between atoms: C_14  and  C_15
REMARK    6  A    between atoms: C_21  and  O_22
REMARK    7  A    between atoms: O_22  and  C_23
REMARK    8  A    between atoms: C_23  and  C_24
REMARK    9  A    between atoms: O_30  and  C_33
REMARK   10  A    between atoms: O_30  and  C_37
REMARK   11  A    between atoms: N_31  and  C_37
REMARK   12  A    between atoms: C_33  and  C_41
REMARK                            x       y       z     vdW  Elec       q    Type
REMARK                         _______ _______ _______ _____ _____    ______ ____
ROOT
ATOM      1  C   UNL A   1     -24.398   1.420  27.145  0.00  0.00    +0.050 C 
ATOM      2  N   UNL A   1     -24.383   0.766  28.365  0.00  0.00    -0.261 N 
ATOM      3  O   UNL A   1     -21.980   0.167  28.502  0.00  0.00    -0.334 OA
ATOM      4  C   UNL A   1     -21.692   1.719  26.467  0.00  0.00    +0.059 C 
ATOM      5  C   UNL A   1     -21.268   1.427  27.928  0.00  0.00    +0.149 C 
ATOM      6  C   UNL A   1     -22.891   0.222  29.363  0.00  0.00    +0.242 C 
ATOM      7  C   UNL A   1     -23.199   1.907  26.251  0.00  0.00    -0.009 C 
ENDROOT
BRANCH   1   8
ATOM      8  C   UNL A   1     -25.688   1.614  26.461  0.00  0.00    +0.051 C 
ATOM      9  C   UNL A   1     -26.250   2.920  26.395  0.00  0.00    +0.078 C 
ATOM     10  C   UNL A   1     -27.438   3.091  25.645  0.00  0.00    +0.107 C 
ATOM     11  N   UNL A   1     -28.075   2.089  25.003  0.00  0.00    -0.208 NA
ATOM     12  C   UNL A   1     -27.543   0.849  25.079  0.00  0.00    +0.253 C 
ATOM     13  C   UNL A   1     -26.354   0.576  25.777  0.00  0.00    +0.194 C 
ATOM     14  F   UNL A   1     -25.860  -0.681  25.795  0.00  0.00    -0.199 F 
BRANCH   9  15
ATOM     15  C   UNL A   1     -25.642   4.093  27.123  0.00  0.00    +0.267 C 
ATOM     16  N   UNL A   1     -25.614   5.252  26.449  0.00  0.00    -0.200 NA
ATOM     17  C   UNL A   1     -25.026   6.479  26.963  0.00  0.00    +0.139 C 
ATOM     18  O   UNL A   1     -25.143   3.966  28.243  0.00  0.00    -0.268 OA
ENDBRANCH   9  15
BRANCH  12  19
ATOM     19  O   UNL A   1     -28.193  -0.208  24.477  0.00  0.00    -0.456 OA
BRANCH  19  20
ATOM     20  C   UNL A   1     -29.460   0.005  23.866  0.00  0.00    +0.243 C 
BRANCH  20  21
ATOM     21  C   UNL A   1     -30.065  -1.377  23.573  0.00  0.00    +0.229 C 
ATOM     22  O   UNL A   1     -30.729  -1.878  24.721  0.00  0.00    -0.216 OA
ENDBRANCH  20  21
ENDBRANCH  19  20
ENDBRANCH  12  19
ENDBRANCH   1   8
BRANCH   2  23
ATOM     23  C   UNL A   1     -25.582  -0.049  29.182  0.00  0.00    +0.199 C 
BRANCH  23  24
ATOM     24  C   UNL A   1     -24.855  -1.012  30.143  0.00  0.00    +0.085 C 
BRANCH  24  25
ATOM     25  C   UNL A   1     -24.973  -2.505  29.788  0.00  0.00    -0.017 C 
ATOM     26  C   UNL A   1     -23.906  -3.173  29.146  0.00  0.00    -0.004 C 
ATOM     27  C   UNL A   1     -23.989  -4.549  28.853  0.00  0.00    -0.000 C 
ATOM     28  C   UNL A   1     -25.137  -5.280  29.205  0.00  0.00    -0.000 C 
ATOM     29  C   UNL A   1     -26.232  -4.611  29.784  0.00  0.00    -0.000 C 
ATOM     30  C   UNL A   1     -26.155  -3.232  30.065  0.00  0.00    -0.004 C 
ENDBRANCH  24  25
BRANCH  24  31
ATOM     31  C   UNL A   1     -25.387  -0.679  31.571  0.00  0.00    +0.081 C 
ATOM     32  C   UNL A   1     -25.189   0.773  32.028  0.00  0.00    +0.019 C 
ATOM     33  C   UNL A   1     -25.336   0.684  33.544  0.00  0.00    +0.020 C 
ATOM     34  C   UNL A   1     -24.829  -0.715  33.905  0.00  0.00    +0.089 C 
ATOM     35  N   UNL A   1     -24.758  -1.481  32.646  0.00  0.00    -0.219 NA
ENDBRANCH  24  31
ENDBRANCH  23  24
BRANCH  23  36
ATOM     36  O   UNL A   1     -26.905  -0.467  28.638  0.00  0.00    -0.337 OA
BRANCH  36  37
ATOM     37  C   UNL A   1     -28.181   0.179  28.864  0.00  0.00    +0.146 C 
BRANCH  37  43
ATOM     38  C   UNL A   1     -32.018  -0.358  28.248  0.00  0.00    +0.032 C 
ATOM     39  O   UNL A   1     -31.258  -1.825  29.933  0.00  0.00    -0.354 OA
ATOM     40  C   UNL A   1     -30.625  -0.728  27.686  0.00  0.00    +0.008 C 
ATOM     41  C   UNL A   1     -32.475  -1.380  29.297  0.00  0.00    +0.142 C 
ATOM     42  C   UNL A   1     -30.168  -0.911  30.051  0.00  0.00    +0.145 C 
ATOM     43  C   UNL A   1     -29.407  -0.783  28.701  0.00  0.00    +0.059 C 
ENDBRANCH  37  43
ENDBRANCH  36  37
ENDBRANCH  23  36
ENDBRANCH   2  23
TORSDOF 12
