MODEL 3773
MODEL 1
REMARK VINA RESULT:    -4.676      0.000      0.000
REMARK INTER + INTRA:          -5.053
REMARK INTER:                  -4.949
REMARK INTRA:                  -0.104
REMARK UNBOUND:                -0.104
REMARK  Name = No_3773-gen_results/8p0m/2024-11-27-11-27-31/
REMARK  1 active torsions:
REMARK  status: ('A' for Active; 'I' for Inactive)
REMARK    1  A    between atoms: C_8  and  C_9
REMARK                            x       y       z     vdW  Elec       q    Type
REMARK                         _______ _______ _______ _____ _____    ______ ____
ROOT
ATOM      1  O   UNL A   1     -27.564  -4.249  30.024  0.00  0.00    -0.275 OA
ATOM      2  C   UNL A   1     -26.471  -4.288  29.661  0.00  0.00    +0.226 C 
ATOM      3  C   UNL A   1     -25.734  -4.983  29.272  0.00  0.00    +0.085 C 
ATOM      4  N   UNL A   1     -25.882  -2.857  29.615  0.00  0.00    -0.276 N 
ATOM      5  C   UNL A   1     -24.336  -4.962  28.819  0.00  0.00    +0.012 C 
ATOM      6  C   UNL A   1     -26.488  -1.764  30.054  0.00  0.00    +0.115 C 
ATOM      7  C   UNL A   1     -23.843  -3.586  28.875  0.00  0.00    +0.025 C 
ATOM      8  C   UNL A   1     -24.563  -2.581  29.262  0.00  0.00    +0.098 C 
ENDROOT
BRANCH   8   9
ATOM      9  C   UNL A   1     -24.063  -1.294  29.284  0.00  0.00    -0.007 C 
ATOM     10  C   UNL A   1     -22.610  -1.120  29.171  0.00  0.00    -0.003 C 
ENDBRANCH   8   9
TORSDOF 1
ENDMDL
ENDMDL
