REMARK  Name = outputs/IAG933/test6/raw/output_3775_IAG933_linker_design_.xyz
REMARK  14 active torsions:
REMARK  status: ('A' for Active; 'I' for Inactive)
REMARK    1  A    between atoms: C_1  and  C_2
REMARK    2  A    between atoms: C_1  and  C_8
REMARK    3  A    between atoms: C_9  and  C_35
REMARK    4  A    between atoms: C_13  and  N_34
REMARK    5  A    between atoms: C_14  and  C_15
REMARK    6  A    between atoms: C_21  and  O_22
REMARK    7  A    between atoms: O_22  and  C_23
REMARK    8  A    between atoms: C_23  and  C_24
REMARK    9  A    between atoms: C_28  and  C_41
REMARK   10  A    between atoms: N_30  and  C_35
REMARK   11  A    between atoms: N_30  and  N_39
REMARK   12  A    between atoms: O_32  and  C_40
REMARK   13  A    between atoms: C_35  and  C_40
REMARK   14  A    between atoms: C_36  and  C_41
REMARK                            x       y       z     vdW  Elec       q    Type
REMARK                         _______ _______ _______ _____ _____    ______ ____
ROOT
ATOM      1  C   UNL A   1     -22.871   0.951  29.007  0.00  0.00    +0.266 C 
ATOM      2  O   UNL A   1     -22.633  -0.122  29.533  0.00  0.00    -0.271 OA
ATOM      3  N   UNL A   1     -23.636   1.954  29.647  0.00  0.00    -0.111 NA
ENDROOT
BRANCH   1   5
ATOM      4  C   UNL A   1     -20.868   1.779  27.396  0.00  0.00    +0.019 C 
ATOM      5  C   UNL A   1     -22.288   1.201  27.599  0.00  0.00    +0.158 C 
BRANCH   5   8
ATOM      6  O   UNL A   1     -23.209   2.750  25.888  0.00  0.00    -0.273 OA
ATOM      7  N   UNL A   1     -24.606   1.254  27.093  0.00  0.00    -0.176 NA
ATOM      8  C   UNL A   1     -23.412   1.843  26.755  0.00  0.00    +0.254 C 
BRANCH   7   9
ATOM      9  C   UNL A   1     -25.688   1.614  26.461  0.00  0.00    +0.111 C 
ATOM     10  C   UNL A   1     -26.250   2.920  26.395  0.00  0.00    +0.092 C 
ATOM     11  C   UNL A   1     -27.438   3.091  25.645  0.00  0.00    +0.108 C 
ATOM     12  N   UNL A   1     -28.075   2.089  25.003  0.00  0.00    -0.208 NA
ATOM     13  C   UNL A   1     -27.543   0.849  25.079  0.00  0.00    +0.255 C 
ATOM     14  C   UNL A   1     -26.354   0.576  25.777  0.00  0.00    +0.208 C 
ATOM     15  F   UNL A   1     -25.860  -0.681  25.795  0.00  0.00    -0.198 F 
BRANCH  10  16
ATOM     16  C   UNL A   1     -25.642   4.093  27.123  0.00  0.00    +0.268 C 
ATOM     17  N   UNL A   1     -25.614   5.252  26.449  0.00  0.00    -0.200 NA
ATOM     18  C   UNL A   1     -25.026   6.479  26.963  0.00  0.00    +0.139 C 
ATOM     19  O   UNL A   1     -25.143   3.966  28.243  0.00  0.00    -0.268 OA
ENDBRANCH  10  16
BRANCH  13  20
ATOM     20  O   UNL A   1     -28.193  -0.208  24.477  0.00  0.00    -0.456 OA
BRANCH  20  21
ATOM     21  C   UNL A   1     -29.460   0.005  23.866  0.00  0.00    +0.243 C 
BRANCH  21  22
ATOM     22  C   UNL A   1     -30.065  -1.377  23.573  0.00  0.00    +0.229 C 
ATOM     23  O   UNL A   1     -30.729  -1.878  24.721  0.00  0.00    -0.216 OA
ENDBRANCH  21  22
ENDBRANCH  20  21
ENDBRANCH  13  20
ENDBRANCH   7   9
ENDBRANCH   5   8
ENDBRANCH   1   5
BRANCH   3  24
ATOM     24  N   UNL A   1     -24.613   2.088  30.578  0.00  0.00    -0.106 NA
BRANCH  24  25
ATOM     25  C   UNL A   1     -25.330   2.363  31.832  0.00  0.00    +0.142 C 
BRANCH  25  27
ATOM     26  C   UNL A   1     -25.387  -0.679  31.571  0.00  0.00    +0.079 C 
ATOM     27  C   UNL A   1     -25.189   0.773  32.028  0.00  0.00    +0.040 C 
ATOM     28  C   UNL A   1     -25.336   0.684  33.544  0.00  0.00    +0.022 C 
ATOM     29  C   UNL A   1     -24.829  -0.715  33.905  0.00  0.00    +0.089 C 
ATOM     30  N   UNL A   1     -24.758  -1.481  32.646  0.00  0.00    -0.219 NA
BRANCH  26  31
ATOM     31  C   UNL A   1     -24.855  -1.012  30.143  0.00  0.00    +0.044 C 
BRANCH  31  32
ATOM     32  C   UNL A   1     -24.973  -2.505  29.788  0.00  0.00    -0.021 C 
ATOM     33  C   UNL A   1     -23.906  -3.173  29.146  0.00  0.00    -0.004 C 
ATOM     34  C   UNL A   1     -23.989  -4.549  28.853  0.00  0.00    -0.000 C 
ATOM     35  C   UNL A   1     -25.137  -5.280  29.205  0.00  0.00    -0.000 C 
ATOM     36  C   UNL A   1     -26.232  -4.611  29.784  0.00  0.00    -0.000 C 
ATOM     37  C   UNL A   1     -26.155  -3.232  30.065  0.00  0.00    -0.004 C 
ENDBRANCH  31  32
ENDBRANCH  26  31
ENDBRANCH  25  27
BRANCH  25  39
ATOM     38  N   UNL A   1     -27.831   2.391  31.800  0.00  0.00    -0.099 NA
ATOM     39  C   UNL A   1     -26.644   2.910  32.163  0.00  0.00    +0.224 C 
BRANCH  39  40
ATOM     40  O   UNL A   1     -26.676   4.167  32.987  0.00  0.00    -0.335 OA
ATOM     41  C   UNL A   1     -25.368   4.573  33.327  0.00  0.00    +0.176 C 
ENDBRANCH  39  40
ENDBRANCH  25  39
ENDBRANCH  24  25
ENDBRANCH   3  24
TORSDOF 14
