MODEL 3775
MODEL 1
REMARK VINA RESULT:    -6.978      0.000      0.000
REMARK INTER + INTRA:          -7.674
REMARK INTER:                  -7.386
REMARK INTRA:                  -0.287
REMARK UNBOUND:                -0.287
REMARK  Name = No_3775-gen_results/8p0m/2024-11-27-11-27-31/
REMARK  1 active torsions:
REMARK  status: ('A' for Active; 'I' for Inactive)
REMARK    1  A    between atoms: C_3  and  C_8
REMARK                            x       y       z     vdW  Elec       q    Type
REMARK                         _______ _______ _______ _____ _____    ______ ____
ROOT
ATOM      1  C   UNL A   1     -23.772   0.726  27.658  0.00  0.00    +0.011 A 
ATOM      2  C   UNL A   1     -24.482  -0.201  27.974  0.00  0.00    +0.001 A 
ATOM      3  C   UNL A   1     -24.050  -1.273  28.753  0.00  0.00    +0.000 A 
ATOM      4  C   UNL A   1     -22.661  -1.329  29.168  0.00  0.00    +0.001 A 
ATOM      5  C   UNL A   1     -21.891  -0.219  28.754  0.00  0.00    +0.011 A 
ATOM      6  C   UNL A   1     -22.386   0.742  28.016  0.00  0.00    +0.058 A 
ATOM      7 CL   UNL A   1     -21.315   1.982  27.529  0.00  0.00    -0.082 Cl
ENDROOT
BRANCH   3   8
ATOM      8  C   UNL A   1     -24.880  -2.448  29.199  0.00  0.00    +0.002 A 
ATOM      9  C   UNL A   1     -26.081  -2.322  29.705  0.00  0.00    +0.000 A 
ATOM     10  C   UNL A   1     -26.815  -3.463  30.097  0.00  0.00    +0.002 A 
ATOM     11  C   UNL A   1     -26.304  -4.768  29.666  0.00  0.00    +0.030 A 
ATOM     12  C   UNL A   1     -24.546  -3.835  28.906  0.00  0.00    +0.030 A 
ATOM     13  C   UNL A   1     -25.198  -4.887  29.151  0.00  0.00    +0.140 A 
ATOM     14  F   UNL A   1     -24.734  -6.107  28.841  0.00  0.00    -0.204 F 
ENDBRANCH   3   8
TORSDOF 1
ENDMDL
ENDMDL
