MODEL 3776
MODEL 1
REMARK VINA RESULT:    -7.119      0.000      0.000
REMARK INTER + INTRA:         -11.457
REMARK INTER:                  -8.783
REMARK INTRA:                  -2.673
REMARK UNBOUND:                -2.673
REMARK  Name = No_3776-gen_results/8p0m/2024-11-27-11-27-31/
REMARK  4 active torsions:
REMARK  status: ('A' for Active; 'I' for Inactive)
REMARK    1  A    between atoms: C_5  and  C_7
REMARK    2  A    between atoms: C_6  and  C_16
REMARK    3  A    between atoms: C_7  and  C_8
REMARK    4  A    between atoms: C_8  and  C_9
REMARK                            x       y       z     vdW  Elec       q    Type
REMARK                         _______ _______ _______ _____ _____    ______ ____
ROOT
ATOM      1  C   UNL A   1     -22.730   1.518  27.556  0.00  0.00    -0.004 A 
ATOM      2  C   UNL A   1     -23.415   2.175  26.805  0.00  0.00    -0.000 A 
ATOM      3  C   UNL A   1     -24.535   1.830  26.238  0.00  0.00    -0.000 A 
ATOM      4  C   UNL A   1     -25.045   0.522  26.497  0.00  0.00    -0.000 A 
ATOM      5  C   UNL A   1     -23.241   0.221  27.957  0.00  0.00    -0.022 A 
ATOM      6  C   UNL A   1     -24.374  -0.216  27.407  0.00  0.00    -0.004 A 
ENDROOT
BRANCH   6   7
ATOM      7  C   UNL A   1     -25.244  -1.061  28.314  0.00  0.00    -0.000 A 
ATOM      8  C   UNL A   1     -26.272  -0.642  28.974  0.00  0.00    -0.000 A 
ATOM      9  C   UNL A   1     -24.816  -2.484  28.469  0.00  0.00    -0.000 A 
ATOM     10  C   UNL A   1     -25.256  -3.235  29.531  0.00  0.00    -0.000 A 
ATOM     11  C   UNL A   1     -26.937  -1.462  29.938  0.00  0.00    -0.000 A 
ATOM     12  C   UNL A   1     -26.450  -2.764  30.180  0.00  0.00    -0.000 A 
ENDBRANCH   6   7
BRANCH   5  13
ATOM     13  C   UNL A   1     -22.446  -0.538  28.951  0.00  0.00    +0.031 C 
BRANCH  13  14
ATOM     14  C   UNL A   1     -22.317  -0.061  30.149  0.00  0.00    +0.033 C 
BRANCH  14  15
ATOM     15  C   UNL A   1     -23.248   0.189  30.918  0.00  0.00    +0.006 A 
ATOM     16  C   UNL A   1     -23.938   1.047  31.230  0.00  0.00    -0.002 A 
ATOM     17  C   UNL A   1     -25.005   1.161  32.243  0.00  0.00    -0.000 A 
ATOM     18  C   UNL A   1     -25.205  -0.022  32.983  0.00  0.00    +0.002 A 
ATOM     19  C   UNL A   1     -24.386  -1.077  32.846  0.00  0.00    +0.029 A 
ATOM     20  C   UNL A   1     -23.439  -1.070  31.916  0.00  0.00    +0.136 A 
ATOM     21  F   UNL A   1     -22.361  -1.092  32.682  0.00  0.00    -0.204 F 
ENDBRANCH  14  15
ENDBRANCH  13  14
ENDBRANCH   5  13
TORSDOF 4
ENDMDL
ENDMDL
