REMARK  Name = No_3776-gen_results/8p0m/2024-11-27-11-27-31/
REMARK  4 active torsions:
REMARK  status: ('A' for Active; 'I' for Inactive)
REMARK    1  A    between atoms: C_5  and  C_7
REMARK    2  A    between atoms: C_6  and  C_16
REMARK    3  A    between atoms: C_7  and  C_8
REMARK    4  A    between atoms: C_8  and  C_9
REMARK                            x       y       z     vdW  Elec       q    Type
REMARK                         _______ _______ _______ _____ _____    ______ ____
ROOT
ATOM      1  C   UNL A   1     -28.016  -0.814  28.878  0.00  0.00    -0.004 A 
ATOM      2  C   UNL A   1     -27.064  -0.119  28.608  0.00  0.00    -0.000 A 
ATOM      3  C   UNL A   1     -26.876   1.133  28.913  0.00  0.00    -0.000 A 
ATOM      4  C   UNL A   1     -27.901   1.807  29.644  0.00  0.00    -0.000 A 
ATOM      5  C   UNL A   1     -29.046  -0.232  29.718  0.00  0.00    -0.022 A 
ATOM      6  C   UNL A   1     -28.940   1.052  30.060  0.00  0.00    -0.004 A 
ENDROOT
BRANCH   6   7
ATOM      7  C   UNL A   1     -29.474   1.397  31.434  0.00  0.00    -0.000 A 
ATOM      8  C   UNL A   1     -29.125   0.829  32.541  0.00  0.00    -0.000 A 
ATOM      9  C   UNL A   1     -30.527   2.456  31.466  0.00  0.00    -0.000 A 
ATOM     10  C   UNL A   1     -31.357   2.585  32.552  0.00  0.00    -0.000 A 
ATOM     11  C   UNL A   1     -29.799   1.096  33.773  0.00  0.00    -0.000 A 
ATOM     12  C   UNL A   1     -30.882   2.001  33.777  0.00  0.00    -0.000 A 
ENDBRANCH   6   7
BRANCH   5  13
ATOM     13  C   UNL A   1     -30.163  -1.117  30.125  0.00  0.00    +0.031 C 
BRANCH  13  14
ATOM     14  C   UNL A   1     -31.317  -0.975  29.552  0.00  0.00    +0.033 C 
BRANCH  14  15
ATOM     15  C   UNL A   1     -31.647  -0.020  28.846  0.00  0.00    +0.006 A 
ATOM     16  C   UNL A   1     -32.501   0.335  28.172  0.00  0.00    -0.002 A 
ATOM     17  C   UNL A   1     -32.694   1.543  27.346  0.00  0.00    -0.000 A 
ATOM     18  C   UNL A   1     -31.601   2.432  27.388  0.00  0.00    +0.002 A 
ATOM     19  C   UNL A   1     -30.459   2.104  28.013  0.00  0.00    +0.029 A 
ATOM     20  C   UNL A   1     -30.381   0.979  28.712  0.00  0.00    +0.136 A 
ATOM     21  F   UNL A   1     -29.477   0.326  28.001  0.00  0.00    -0.204 F 
ENDBRANCH  14  15
ENDBRANCH  13  14
ENDBRANCH   5  13
TORSDOF 4
