MODEL 3777
MODEL 1
REMARK VINA RESULT:    -4.275      0.000      0.000
REMARK INTER + INTRA:          -4.275
REMARK INTER:                  -4.275
REMARK INTRA:                   0.000
REMARK UNBOUND:                 0.000
REMARK  Name = No_3777-gen_results/8p0m/2024-11-27-11-27-31/
REMARK  0 active torsions:
REMARK  status: ('A' for Active; 'I' for Inactive)
REMARK                            x       y       z     vdW  Elec       q    Type
REMARK                         _______ _______ _______ _____ _____    ______ ____
ROOT
ATOM      1  C   UNL A   1     -26.075  -4.852  29.656  0.00  0.00    +0.000 A 
ATOM      2  C   UNL A   1     -26.217  -3.653  29.716  0.00  0.00    +0.000 A 
ATOM      3  C   UNL A   1     -25.253  -2.748  29.316  0.00  0.00    +0.000 A 
ATOM      4  C   UNL A   1     -24.045  -3.261  28.766  0.00  0.00    +0.000 A 
ATOM      5  C   UNL A   1     -24.004  -4.599  28.562  0.00  0.00    +0.000 A 
ATOM      6  C   UNL A   1     -24.993  -5.385  28.941  0.00  0.00    +0.000 A 
ENDROOT
TORSDOF 0
ENDMDL
ENDMDL
