REMARK  Name = No_3778-gen_results/8p0m/2024-11-27-11-27-31/
REMARK  3 active torsions:
REMARK  status: ('A' for Active; 'I' for Inactive)
REMARK    1  A    between atoms: C_1  and  C_2
REMARK    2  A    between atoms: C_1  and  C_8
REMARK    3  A    between atoms: C_5  and  C_10
REMARK                            x       y       z     vdW  Elec       q    Type
REMARK                         _______ _______ _______ _____ _____    ______ ____
ROOT
ATOM      1  C   UNL A   1     -27.064  -0.119  28.608  0.00  0.00    -0.022 A 
ATOM      2  C   UNL A   1     -25.792  -0.430  29.076  0.00  0.00    -0.004 A 
ATOM      3  C   UNL A   1     -24.546   0.349  28.823  0.00  0.00    +0.001 A 
ATOM      4  C   UNL A   1     -24.659   1.420  27.888  0.00  0.00    +0.021 A 
ATOM      5  C   UNL A   1     -25.947   1.681  27.379  0.00  0.00    +0.001 A 
ATOM      6  C   UNL A   1     -27.044   0.974  27.687  0.00  0.00    -0.004 A 
ENDROOT
BRANCH   4   7
ATOM      7  C   UNL A   1     -23.443   2.150  27.602  0.00  0.00    +0.122 C 
ATOM      8  N   UNL A   1     -22.247   1.729  28.073  0.00  0.00    -0.146 NA
ENDBRANCH   4   7
BRANCH   1   9
ATOM      9  C   UNL A   1     -28.016  -0.814  28.878  0.00  0.00    +0.026 C 
BRANCH   9  10
ATOM     10  C   UNL A   1     -28.670  -0.446  30.208  0.00  0.00    +0.005 C 
ATOM     11  C   UNL A   1     -29.739  -1.232  30.678  0.00  0.00    +0.000 C 
ENDBRANCH   9  10
ENDBRANCH   1   9
TORSDOF 3
