MODEL 3778
MODEL 1
REMARK VINA RESULT:    -5.234      0.000      0.000
REMARK INTER + INTRA:          -6.367
REMARK INTER:                  -6.151
REMARK INTRA:                  -0.216
REMARK UNBOUND:                -0.216
REMARK  Name = No_3778-gen_results/8p0m/2024-11-27-11-27-31/
REMARK  3 active torsions:
REMARK  status: ('A' for Active; 'I' for Inactive)
REMARK    1  A    between atoms: C_1  and  C_2
REMARK    2  A    between atoms: C_1  and  C_8
REMARK    3  A    between atoms: C_5  and  C_10
REMARK                            x       y       z     vdW  Elec       q    Type
REMARK                         _______ _______ _______ _____ _____    ______ ____
ROOT
ATOM      1  C   UNL A   1     -23.831  -1.846  29.013  0.00  0.00    -0.022 A 
ATOM      2  C   UNL A   1     -24.666  -1.145  28.150  0.00  0.00    -0.004 A 
ATOM      3  C   UNL A   1     -24.328   0.114  27.426  0.00  0.00    +0.001 A 
ATOM      4  C   UNL A   1     -23.090   0.725  27.783  0.00  0.00    +0.021 A 
ATOM      5  C   UNL A   1     -22.284   0.028  28.706  0.00  0.00    +0.001 A 
ATOM      6  C   UNL A   1     -22.622  -1.133  29.285  0.00  0.00    -0.004 A 
ENDROOT
BRANCH   4   7
ATOM      7  C   UNL A   1     -22.778   1.972  27.119  0.00  0.00    +0.122 C 
ATOM      8  N   UNL A   1     -23.104   2.176  25.822  0.00  0.00    -0.146 NA
ENDBRANCH   4   7
BRANCH   1   9
ATOM      9  C   UNL A   1     -24.198  -2.867  29.546  0.00  0.00    +0.026 C 
BRANCH   9  10
ATOM     10  C   UNL A   1     -24.177  -4.073  28.610  0.00  0.00    +0.005 C 
ATOM     11  C   UNL A   1     -24.822  -5.257  29.015  0.00  0.00    +0.000 C 
ENDBRANCH   9  10
ENDBRANCH   1   9
TORSDOF 3
ENDMDL
ENDMDL
