MODEL 3779
MODEL 1
REMARK VINA RESULT:    -4.526      0.000      0.000
REMARK INTER + INTRA:          -4.526
REMARK INTER:                  -4.526
REMARK INTRA:                   0.000
REMARK UNBOUND:                 0.000
REMARK  Name = No_3779-gen_results/8p0m/2024-11-27-11-27-31/
REMARK  0 active torsions:
REMARK  status: ('A' for Active; 'I' for Inactive)
REMARK                            x       y       z     vdW  Elec       q    Type
REMARK                         _______ _______ _______ _____ _____    ______ ____
ROOT
ATOM      1  C   UNL A   1     -23.994  -4.346  28.684  0.00  0.00    +0.030 A 
ATOM      2  C   UNL A   1     -24.891  -4.860  28.885  0.00  0.00    +0.140 A 
ATOM      3  C   UNL A   1     -23.989  -2.879  29.053  0.00  0.00    +0.002 A 
ATOM      4  C   UNL A   1     -25.089  -2.339  29.752  0.00  0.00    +0.000 A 
ATOM      5  C   UNL A   1     -26.139  -4.552  29.618  0.00  0.00    +0.030 A 
ATOM      6  C   UNL A   1     -26.169  -3.212  29.980  0.00  0.00    +0.002 A 
ATOM      7  F   UNL A   1     -24.885  -6.271  28.541  0.00  0.00    -0.204 F 
ENDROOT
TORSDOF 0
ENDMDL
ENDMDL
