MODEL 377
MODEL 1
REMARK VINA RESULT:    -5.453      0.000      0.000
REMARK INTER + INTRA:          -5.822
REMARK INTER:                  -5.772
REMARK INTRA:                  -0.051
REMARK UNBOUND:                -0.051
REMARK  Name = No_377-gen_results/8p0m/2024-11-27-11-27-31/
REMARK  1 active torsions:
REMARK  status: ('A' for Active; 'I' for Inactive)
REMARK    1  A    between atoms: C_3  and  C_4
REMARK                            x       y       z     vdW  Elec       q    Type
REMARK                         _______ _______ _______ _____ _____    ______ ____
ROOT
ATOM      1  C   UNL A   1     -10.377  -9.267  19.351  0.00  0.00    +0.007 A 
ATOM      2  C   UNL A   1      -9.895  -9.027  20.257  0.00  0.00    +0.000 A 
ATOM      3  C   UNL A   1      -9.661 -10.037  18.408  0.00  0.00    +0.080 A 
ATOM      4  C   UNL A   1      -8.545  -9.344  20.754  0.00  0.00    +0.000 A 
ATOM      5  C   UNL A   1      -7.776 -10.103  19.871  0.00  0.00    +0.000 A 
ATOM      6  C   UNL A   1      -8.325 -10.510  18.697  0.00  0.00    +0.007 A 
ENDROOT
BRANCH   3   7
ATOM      7  C   UNL A   1     -10.228 -10.550  17.134  0.00  0.00    +0.388 C 
ATOM      8  O   UNL A   1      -9.456 -10.945  16.290  0.00  0.00    -0.241 OA
ATOM      9  O   UNL A   1     -11.481 -10.503  16.943  0.00  0.00    -0.241 OA
ENDBRANCH   3   7
TORSDOF 1
ENDMDL
ENDMDL
