REMARK  Name = No_378-gen_results/8p0m/2024-11-27-11-27-31/
REMARK  6 active torsions:
REMARK  status: ('A' for Active; 'I' for Inactive)
REMARK    1  A    between atoms: C_3  and  C_8
REMARK    2  A    between atoms: C_6  and  O_7
REMARK    3  A    between atoms: O_7  and  C_14
REMARK    4  A    between atoms: C_14  and  C_15
REMARK    5  A    between atoms: C_16  and  C_17
REMARK    6  A    between atoms: C_18  and  C_19
REMARK                            x       y       z     vdW  Elec       q    Type
REMARK                         _______ _______ _______ _____ _____    ______ ____
ROOT
ATOM      1  C   UNL A   1     -28.016  -0.814  28.878  0.00  0.00    +0.037 A 
ATOM      2  C   UNL A   1     -27.064  -0.119  28.608  0.00  0.00    +0.003 A 
ATOM      3  C   UNL A   1     -25.792  -0.430  29.076  0.00  0.00    +0.000 A 
ATOM      4  C   UNL A   1     -25.576  -1.565  29.936  0.00  0.00    +0.003 A 
ATOM      5  C   UNL A   1     -26.735  -2.300  30.217  0.00  0.00    +0.037 A 
ATOM      6  C   UNL A   1     -27.918  -1.954  29.763  0.00  0.00    +0.139 A 
ENDROOT
BRANCH   3   7
ATOM      7  C   UNL A   1     -24.529   0.349  28.800  0.00  0.00    +0.000 A 
ATOM      8  C   UNL A   1     -24.117   1.337  29.665  0.00  0.00    +0.000 A 
ATOM      9  C   UNL A   1     -22.966   2.099  29.366  0.00  0.00    +0.000 A 
ATOM     10  C   UNL A   1     -22.199   1.819  28.189  0.00  0.00    +0.000 A 
ATOM     11  C   UNL A   1     -22.701   0.923  27.291  0.00  0.00    +0.000 A 
ATOM     12  C   UNL A   1     -23.812   0.212  27.579  0.00  0.00    +0.000 A 
ENDBRANCH   3   7
BRANCH   6  13
ATOM     13  O   UNL A   1     -29.000  -2.701  30.115  0.00  0.00    -0.471 OA
BRANCH  13  14
ATOM     14  C   UNL A   1     -29.355  -2.846  31.432  0.00  0.00    +0.232 C 
BRANCH  14  15
ATOM     15  C   UNL A   1     -29.915  -1.839  32.015  0.00  0.00    +0.021 C 
ATOM     16  C   UNL A   1     -30.336  -0.834  31.352  0.00  0.00    -0.001 C 
BRANCH  16  17
ATOM     17  C   UNL A   1     -30.739   0.172  31.745  0.00  0.00    -0.000 C 
ATOM     18  C   UNL A   1     -31.133   1.402  30.999  0.00  0.00    -0.000 C 
BRANCH  18  19
ATOM     19  C   UNL A   1     -31.192   1.208  29.615  0.00  0.00    -0.000 C 
ATOM     20  C   UNL A   1     -30.950  -0.006  29.090  0.00  0.00    -0.000 C 
ENDBRANCH  18  19
ENDBRANCH  16  17
ENDBRANCH  14  15
ENDBRANCH  13  14
ENDBRANCH   6  13
TORSDOF 6
