MODEL 3780
MODEL 1
REMARK VINA RESULT:    -8.527      0.000      0.000
REMARK INTER + INTRA:          -9.561
REMARK INTER:                  -9.524
REMARK INTRA:                  -0.037
REMARK UNBOUND:                -0.037
REMARK  Name = No_3780-gen_results/8p0m/2024-11-27-11-27-31/
REMARK  2 active torsions:
REMARK  status: ('A' for Active; 'I' for Inactive)
REMARK    1  A    between atoms: C_4  and  C_7
REMARK    2  A    between atoms: C_17  and  C_22
REMARK                            x       y       z     vdW  Elec       q    Type
REMARK                         _______ _______ _______ _____ _____    ______ ____
ROOT
ATOM      1  C   UNL A   1     -29.847   3.513  25.194  0.00  0.00    +0.004 A 
ATOM      2  C   UNL A   1     -28.997   3.107  24.722  0.00  0.00    +0.050 A 
ATOM      3  C   UNL A   1     -31.106   3.469  24.434  0.00  0.00    +0.000 A 
ATOM      4  C   UNL A   1     -31.178   2.780  23.188  0.00  0.00    -0.000 A 
ATOM      5  C   UNL A   1     -28.814   2.299  23.484  0.00  0.00    -0.016 A 
ATOM      6  C   UNL A   1     -29.960   2.245  22.747  0.00  0.00    -0.004 A 
ATOM      7  C   UNL A   1     -27.596   3.184  25.529  0.00  0.00    +0.249 C 
ATOM      8  O   UNL A   1     -27.570   4.058  26.268  0.00  0.00    -0.270 OA
ATOM      9  N   UNL A   1     -26.598   2.297  25.306  0.00  0.00    -0.277 N 
ATOM     10  C   UNL A   1     -25.379   2.404  26.062  0.00  0.00    +0.103 C 
ATOM     11  C   UNL A   1     -24.717   1.380  26.103  0.00  0.00    +0.097 C 
ATOM     12  C   UNL A   1     -24.932   0.238  25.276  0.00  0.00    +0.013 C 
ATOM     13  C   UNL A   1     -25.860   0.316  24.567  0.00  0.00    +0.021 C 
ATOM     14  C   UNL A   1     -26.903   1.132  24.570  0.00  0.00    +0.080 C 
ATOM     15  C   UNL A   1     -27.968   1.108  23.621  0.00  0.00    +0.046 C 
ENDROOT
BRANCH  11  16
ATOM     16  C   UNL A   1     -23.411   1.447  26.945  0.00  0.00    +0.227 C 
ATOM     17  O   UNL A   1     -22.439   1.858  26.611  0.00  0.00    -0.275 OA
ATOM     18  N   UNL A   1     -23.429   0.484  28.067  0.00  0.00    -0.280 N 
ATOM     19  C   UNL A   1     -22.306   0.344  28.875  0.00  0.00    +0.093 C 
ATOM     20  C   UNL A   1     -22.211  -0.795  29.384  0.00  0.00    +0.022 C 
ATOM     21  C   UNL A   1     -23.282  -1.755  29.459  0.00  0.00    +0.004 C 
ATOM     22  C   UNL A   1     -24.405  -1.525  28.618  0.00  0.00    +0.022 C 
ATOM     23  C   UNL A   1     -24.439  -0.486  27.941  0.00  0.00    +0.093 C 
ENDBRANCH  11  16
BRANCH   4  24
ATOM     24  C   UNL A   1     -32.374   2.699  22.418  0.00  0.00    -0.000 A 
ATOM     25  C   UNL A   1     -33.327   2.513  22.737  0.00  0.00    -0.000 A 
ATOM     26  C   UNL A   1     -34.610   2.272  21.950  0.00  0.00    -0.000 A 
ATOM     27  C   UNL A   1     -34.367   2.231  20.618  0.00  0.00    +0.000 A 
ATOM     28  C   UNL A   1     -33.098   2.383  20.046  0.00  0.00    -0.000 A 
ATOM     29  C   UNL A   1     -32.021   2.640  20.973  0.00  0.00    -0.000 A 
ENDBRANCH   4  24
TORSDOF 2
ENDMDL
ENDMDL
