MODEL 3781
MODEL 1
REMARK VINA RESULT:    -6.815      0.000      0.000
REMARK INTER + INTRA:         -10.879
REMARK INTER:                  -8.808
REMARK INTRA:                  -2.072
REMARK UNBOUND:                -2.072
REMARK  Name = No_3781-gen_results/8p0m/2024-11-27-11-27-31/
REMARK  5 active torsions:
REMARK  status: ('A' for Active; 'I' for Inactive)
REMARK    1  A    between atoms: C_2  and  O_17
REMARK    2  A    between atoms: C_3  and  C_7
REMARK    3  A    between atoms: C_6  and  C_13
REMARK    4  A    between atoms: O_17  and  C_18
REMARK    5  A    between atoms: C_18  and  C_19
REMARK                            x       y       z     vdW  Elec       q    Type
REMARK                         _______ _______ _______ _____ _____    ______ ____
ROOT
ATOM      1  C   UNL A   1     -11.654   1.376  35.120  0.00  0.00    +0.043 A 
ATOM      2  C   UNL A   1     -11.434   1.540  36.298  0.00  0.00    +0.139 A 
ATOM      3  C   UNL A   1     -12.324   2.169  37.168  0.00  0.00    +0.034 A 
ATOM      4  C   UNL A   1     -13.560   2.715  36.641  0.00  0.00    +0.003 A 
ATOM      5  C   UNL A   1     -13.743   2.493  35.258  0.00  0.00    +0.007 A 
ATOM      6  C   UNL A   1     -12.845   1.895  34.517  0.00  0.00    +0.083 A 
ENDROOT
BRANCH   3   7
ATOM      7  C   UNL A   1     -12.126   2.394  38.624  0.00  0.00    +0.004 A 
ATOM      8  C   UNL A   1     -12.764   1.689  39.523  0.00  0.00    +0.011 A 
ATOM      9  C   UNL A   1     -12.656   1.999  40.884  0.00  0.00    +0.058 A 
ATOM     10  C   UNL A   1     -11.955   3.076  41.371  0.00  0.00    +0.011 A 
ATOM     11  C   UNL A   1     -11.401   3.572  39.072  0.00  0.00    +0.000 A 
ATOM     12  C   UNL A   1     -11.319   3.875  40.460  0.00  0.00    +0.001 A 
ATOM     13 CL   UNL A   1     -13.461   0.936  42.028  0.00  0.00    -0.082 Cl
ENDBRANCH   3   7
BRANCH   6  14
ATOM     14  C   UNL A   1     -13.114   1.781  33.051  0.00  0.00    +0.388 C 
ATOM     15  O   UNL A   1     -12.527   1.062  32.401  0.00  0.00    -0.241 OA
ATOM     16  O   UNL A   1     -14.082   2.522  32.569  0.00  0.00    -0.241 OA
ENDBRANCH   6  14
BRANCH   2  17
ATOM     17  O   UNL A   1     -10.347   1.010  36.900  0.00  0.00    -0.471 OA
BRANCH  17  18
ATOM     18  C   UNL A   1     -10.221  -0.352  36.868  0.00  0.00    +0.232 C 
BRANCH  18  19
ATOM     19  C   UNL A   1     -10.674  -0.961  38.031  0.00  0.00    +0.021 A 
ATOM     20  C   UNL A   1     -10.186  -0.767  39.196  0.00  0.00    -0.001 A 
ATOM     21  C   UNL A   1     -11.687  -2.037  37.815  0.00  0.00    -0.001 A 
ATOM     22  C   UNL A   1     -12.246  -2.688  38.940  0.00  0.00    -0.000 A 
ATOM     23  C   UNL A   1     -10.829  -1.392  40.393  0.00  0.00    -0.000 A 
ATOM     24  C   UNL A   1     -11.810  -2.346  40.215  0.00  0.00    -0.000 A 
ENDBRANCH  18  19
ENDBRANCH  17  18
ENDBRANCH   2  17
TORSDOF 5
ENDMDL
ENDMDL
