REMARK  Name = No_3782-gen_results/8p0m/2024-11-27-11-27-31/
REMARK  5 active torsions:
REMARK  status: ('A' for Active; 'I' for Inactive)
REMARK    1  A    between atoms: C_2  and  C_23
REMARK    2  A    between atoms: C_3  and  C_7
REMARK    3  A    between atoms: C_7  and  C_14
REMARK    4  A    between atoms: C_8  and  C_9
REMARK    5  A    between atoms: C_10  and  C_17
REMARK                            x       y       z     vdW  Elec       q    Type
REMARK                         _______ _______ _______ _____ _____    ______ ____
ROOT
ATOM      1  C   UNL A   1     -27.460   0.380  26.709  0.00  0.00    -0.023 C 
ATOM      2  C   UNL A   1     -26.009   0.332  26.724  0.00  0.00    -0.008 C 
ENDROOT
BRANCH   1   5
ATOM      3  C   UNL A   1     -28.016  -0.814  28.878  0.00  0.00    +0.001 A 
ATOM      4  C   UNL A   1     -28.469  -0.785  29.829  0.00  0.00    +0.021 A 
ATOM      5  C   UNL A   1     -28.196   0.348  28.055  0.00  0.00    -0.004 A 
ATOM      6  C   UNL A   1     -29.019   1.350  28.378  0.00  0.00    -0.000 A 
ATOM      7  C   UNL A   1     -29.411   0.180  30.378  0.00  0.00    +0.002 A 
ATOM      8  C   UNL A   1     -29.606   1.250  29.619  0.00  0.00    +0.000 A 
BRANCH   4   9
ATOM      9  C   UNL A   1     -28.274  -2.003  30.902  0.00  0.00    +0.122 C 
ATOM     10  N   UNL A   1     -28.690  -1.983  31.981  0.00  0.00    -0.146 NA
ENDBRANCH   4   9
ENDBRANCH   1   5
BRANCH   2  11
ATOM     11  C   UNL A   1     -25.195   0.925  26.819  0.00  0.00    -0.018 C 
ATOM     12  C   UNL A   1     -24.203   1.240  27.650  0.00  0.00    -0.004 C 
ATOM     13  C   UNL A   1     -23.071   2.150  27.371  0.00  0.00    -0.004 C 
ATOM     14  C   UNL A   1     -23.105   2.680  26.072  0.00  0.00    -0.021 C 
ATOM     15  C   UNL A   1     -24.784   1.773  25.496  0.00  0.00    +0.052 C 
BRANCH  12  16
ATOM     16  C   UNL A   1     -24.034   0.608  29.042  0.00  0.00    -0.000 A 
ATOM     17  C   UNL A   1     -24.519   1.198  30.117  0.00  0.00    -0.000 A 
ATOM     18  C   UNL A   1     -23.571  -0.740  29.051  0.00  0.00    -0.000 A 
ATOM     19  C   UNL A   1     -24.672   0.533  31.323  0.00  0.00    -0.000 A 
ATOM     20  C   UNL A   1     -23.613  -1.442  30.244  0.00  0.00    -0.000 A 
ATOM     21  C   UNL A   1     -24.160  -0.774  31.422  0.00  0.00    -0.000 A 
ENDBRANCH  12  16
ENDBRANCH   2  11
BRANCH   1  22
ATOM     22  C   UNL A   1     -28.133   0.637  25.524  0.00  0.00    +0.022 C 
ATOM     23  C   UNL A   1     -28.289  -0.341  24.671  0.00  0.00    +0.005 C 
ATOM     24  C   UNL A   1     -28.704   1.931  25.292  0.00  0.00    +0.005 C 
ENDBRANCH   1  22
TORSDOF 5
