MODEL 3782
MODEL 1
REMARK VINA RESULT:    -6.611      0.000      0.000
REMARK INTER + INTRA:         -12.213
REMARK INTER:                  -8.543
REMARK INTRA:                  -3.670
REMARK UNBOUND:                -3.670
REMARK  Name = No_3782-gen_results/8p0m/2024-11-27-11-27-31/
REMARK  5 active torsions:
REMARK  status: ('A' for Active; 'I' for Inactive)
REMARK    1  A    between atoms: C_2  and  C_23
REMARK    2  A    between atoms: C_3  and  C_7
REMARK    3  A    between atoms: C_7  and  C_14
REMARK    4  A    between atoms: C_8  and  C_9
REMARK    5  A    between atoms: C_10  and  C_17
REMARK                            x       y       z     vdW  Elec       q    Type
REMARK                         _______ _______ _______ _____ _____    ______ ____
ROOT
ATOM      1  C   UNL A   1     -23.239  -0.752  28.544  0.00  0.00    -0.023 C 
ATOM      2  C   UNL A   1     -23.887  -2.050  28.505  0.00  0.00    -0.008 C 
ENDROOT
BRANCH   1   5
ATOM      3  C   UNL A   1     -24.620   0.072  26.581  0.00  0.00    +0.001 A 
ATOM      4  C   UNL A   1     -25.122   0.868  26.107  0.00  0.00    +0.021 A 
ATOM      5  C   UNL A   1     -23.891   0.403  27.772  0.00  0.00    -0.004 A 
ATOM      6  C   UNL A   1     -23.703   1.659  28.187  0.00  0.00    -0.000 A 
ATOM      7  C   UNL A   1     -25.045   2.298  26.367  0.00  0.00    +0.002 A 
ATOM      8  C   UNL A   1     -24.356   2.623  27.452  0.00  0.00    +0.000 A 
BRANCH   4   9
ATOM      9  C   UNL A   1     -26.060   0.619  24.791  0.00  0.00    +0.122 C 
ATOM     10  N   UNL A   1     -27.104   0.122  24.829  0.00  0.00    -0.146 NA
ENDBRANCH   4   9
ENDBRANCH   1   5
BRANCH   2  11
ATOM     11  C   UNL A   1     -24.618  -2.588  28.953  0.00  0.00    -0.018 C 
ATOM     12  C   UNL A   1     -25.765  -2.471  29.618  0.00  0.00    -0.004 C 
ATOM     13  C   UNL A   1     -26.650  -3.572  30.056  0.00  0.00    -0.004 C 
ATOM     14  C   UNL A   1     -26.175  -4.836  29.677  0.00  0.00    -0.021 C 
ATOM     15  C   UNL A   1     -24.520  -4.199  28.767  0.00  0.00    +0.052 C 
BRANCH  12  16
ATOM     16  C   UNL A   1     -26.408  -1.116  29.962  0.00  0.00    -0.000 A 
ATOM     17  C   UNL A   1     -26.021  -0.432  31.020  0.00  0.00    -0.000 A 
ATOM     18  C   UNL A   1     -27.229  -0.551  28.943  0.00  0.00    -0.000 A 
ATOM     19  C   UNL A   1     -26.332   0.908  31.192  0.00  0.00    -0.000 A 
ATOM     20  C   UNL A   1     -27.652   0.759  29.090  0.00  0.00    -0.000 A 
ATOM     21  C   UNL A   1     -27.207   1.503  30.265  0.00  0.00    -0.000 A 
ENDBRANCH  12  16
ENDBRANCH   2  11
BRANCH   1  22
ATOM     22  C   UNL A   1     -22.175  -0.534  29.407  0.00  0.00    +0.022 C 
ATOM     23  C   UNL A   1     -20.981  -0.382  28.898  0.00  0.00    +0.005 C 
ATOM     24  C   UNL A   1     -22.410  -0.404  30.815  0.00  0.00    +0.005 C 
ENDBRANCH   1  22
TORSDOF 5
ENDMDL
ENDMDL
