MODEL 3783
MODEL 1
REMARK VINA RESULT:    -6.623      0.000      0.000
REMARK INTER + INTRA:          -6.623
REMARK INTER:                  -6.623
REMARK INTRA:                   0.000
REMARK UNBOUND:                 0.000
REMARK  Name = No_3783-gen_results/8p0m/2024-11-27-11-27-31/
REMARK  0 active torsions:
REMARK  status: ('A' for Active; 'I' for Inactive)
REMARK                            x       y       z     vdW  Elec       q    Type
REMARK                         _______ _______ _______ _____ _____    ______ ____
ROOT
ATOM      1  C   UNL A   1     -31.063  -9.456  28.822  0.00  0.00    +0.000 A 
ATOM      2  C   UNL A   1     -31.056  -9.792  27.824  0.00  0.00    +0.000 A 
ATOM      3  C   UNL A   1     -30.192 -10.229  29.707  0.00  0.00    +0.000 A 
ATOM      4  C   UNL A   1     -29.431 -11.276  29.250  0.00  0.00    +0.000 A 
ATOM      5  C   UNL A   1     -30.367 -10.841  27.071  0.00  0.00    +0.000 A 
ATOM      6  C   UNL A   1     -29.521 -11.595  27.919  0.00  0.00    +0.000 A 
ATOM      7  C   UNL A   1     -30.033  -9.871  31.150  0.00  0.00    +0.000 A 
ATOM      8  C   UNL A   1     -29.079 -10.631  31.869  0.00  0.00    +0.000 A 
ATOM      9  C   UNL A   1     -28.380 -11.714  31.314  0.00  0.00    +0.000 A 
ATOM     10  C   UNL A   1     -28.523 -12.026  30.081  0.00  0.00    +0.000 A 
ATOM     11  C   UNL A   1     -28.882 -10.297  33.352  0.00  0.00    +0.000 A 
ATOM     12  C   UNL A   1     -27.767 -10.926  33.984  0.00  0.00    +0.000 A 
ATOM     13  C   UNL A   1     -27.049 -11.932  33.370  0.00  0.00    +0.000 A 
ATOM     14  C   UNL A   1     -27.322 -12.337  32.173  0.00  0.00    +0.000 A 
ENDROOT
TORSDOF 0
ENDMDL
ENDMDL
