MODEL 3784
MODEL 1
REMARK VINA RESULT:    -5.072      0.000      0.000
REMARK INTER + INTRA:          -5.407
REMARK INTER:                  -5.368
REMARK INTRA:                  -0.039
REMARK UNBOUND:                -0.039
REMARK  Name = No_3784-gen_results/8p0m/2024-11-27-11-27-31/
REMARK  1 active torsions:
REMARK  status: ('A' for Active; 'I' for Inactive)
REMARK    1  A    between atoms: C_2  and  C_7
REMARK                            x       y       z     vdW  Elec       q    Type
REMARK                         _______ _______ _______ _____ _____    ______ ____
ROOT
ATOM      1  C   UNL A   1     -27.868 -12.058  31.523  0.00  0.00    +0.007 A 
ATOM      2  C   UNL A   1     -28.101 -11.522  32.400  0.00  0.00    +0.080 A 
ATOM      3  C   UNL A   1     -28.686 -11.766  30.335  0.00  0.00    +0.000 A 
ATOM      4  C   UNL A   1     -29.641 -10.708  30.355  0.00  0.00    +0.000 A 
ATOM      5  C   UNL A   1     -28.986 -10.355  32.668  0.00  0.00    +0.007 A 
ATOM      6  C   UNL A   1     -29.768 -10.060  31.592  0.00  0.00    +0.000 A 
ENDROOT
BRANCH   2   7
ATOM      7  C   UNL A   1     -27.225 -11.797  33.704  0.00  0.00    +0.388 C 
ATOM      8  O   UNL A   1     -26.740 -12.802  33.732  0.00  0.00    -0.241 OA
ATOM      9  O   UNL A   1     -27.093 -10.881  34.665  0.00  0.00    -0.241 OA
ENDBRANCH   2   7
TORSDOF 1
ENDMDL
ENDMDL
