REMARK  Name = No_3785-gen_results/8p0m/2024-11-27-11-27-31/
REMARK  4 active torsions:
REMARK  status: ('A' for Active; 'I' for Inactive)
REMARK    1  A    between atoms: C_1  and  C_2
REMARK    2  A    between atoms: C_1  and  N_8
REMARK    3  A    between atoms: C_5  and  C_16
REMARK    4  A    between atoms: N_8  and  C_9
REMARK                            x       y       z     vdW  Elec       q    Type
REMARK                         _______ _______ _______ _____ _____    ______ ____
ROOT
ATOM      1  C   UNL A   1     -28.016  -0.814  28.878  0.00  0.00    +0.128 C 
ENDROOT
BRANCH   1   2
ATOM      2  C   UNL A   1     -27.064  -0.119  28.608  0.00  0.00    -0.002 A 
ATOM      3  C   UNL A   1     -27.001   0.691  27.491  0.00  0.00    -0.003 A 
ATOM      4  C   UNL A   1     -25.855   1.482  27.083  0.00  0.00    +0.004 A 
ATOM      5  C   UNL A   1     -24.690   1.453  27.881  0.00  0.00    +0.071 A 
ATOM      6  C   UNL A   1     -24.738   0.601  29.042  0.00  0.00    +0.004 A 
ATOM      7  C   UNL A   1     -25.823  -0.169  29.389  0.00  0.00    -0.003 A 
BRANCH   5   8
ATOM      8  C   UNL A   1     -23.502   2.178  27.544  0.00  0.00    +0.419 C 
ATOM      9  F   UNL A   1     -22.726   2.418  28.482  0.00  0.00    -0.166 F 
ATOM     10  F   UNL A   1     -23.764   3.294  26.957  0.00  0.00    -0.166 F 
ATOM     11  F   UNL A   1     -22.729   1.466  26.643  0.00  0.00    -0.166 F 
ENDBRANCH   5   8
ENDBRANCH   1   2
BRANCH   1  12
ATOM     12  N   UNL A   1     -29.207  -0.151  29.066  0.00  0.00    -0.218 N 
ATOM     13  C   UNL A   1     -30.000  -0.029  27.847  0.00  0.00    +0.451 C 
ATOM     14  O   UNL A   1     -29.779   0.889  27.211  0.00  0.00    -0.222 OA
ATOM     15  O   UNL A   1     -30.879  -0.883  27.710  0.00  0.00    -0.222 OA
BRANCH  12  16
ATOM     16  C   UNL A   1     -29.633   0.231  30.253  0.00  0.00    +0.057 A 
ATOM     17  C   UNL A   1     -29.148  -0.045  31.260  0.00  0.00    +0.015 A 
ATOM     18  C   UNL A   1     -30.871   1.111  30.136  0.00  0.00    +0.015 A 
ATOM     19  C   UNL A   1     -29.673   0.471  32.599  0.00  0.00    +0.001 A 
ATOM     20  C   UNL A   1     -31.369   1.591  31.384  0.00  0.00    +0.001 A 
ATOM     21  C   UNL A   1     -30.782   1.264  32.565  0.00  0.00    +0.000 A 
ENDBRANCH  12  16
ENDBRANCH   1  12
TORSDOF 4
