MODEL 3786
MODEL 1
REMARK VINA RESULT:    -7.306      0.000      0.000
REMARK INTER + INTRA:          -8.310
REMARK INTER:                  -8.160
REMARK INTRA:                  -0.150
REMARK UNBOUND:                -0.150
REMARK  Name = No_3786-gen_results/8p0m/2024-11-27-11-27-31/
REMARK  2 active torsions:
REMARK  status: ('A' for Active; 'I' for Inactive)
REMARK    1  A    between atoms: C_3  and  O_7
REMARK    2  A    between atoms: O_7  and  C_8
REMARK                            x       y       z     vdW  Elec       q    Type
REMARK                         _______ _______ _______ _____ _____    ______ ____
ROOT
ATOM      1  C   UNL A   1     -24.621  -0.447  28.840  0.00  0.00    +0.151 C 
ATOM      2  C   UNL A   1     -23.312   0.097  28.610  0.00  0.00    +0.010 A 
ATOM      3  C   UNL A   1     -22.278  -0.326  28.567  0.00  0.00    -0.001 A 
ATOM      4  C   UNL A   1     -21.063   0.413  28.236  0.00  0.00    -0.000 A 
ATOM      5  C   UNL A   1     -23.360   1.474  27.891  0.00  0.00    -0.023 A 
ATOM      6  C   UNL A   1     -24.712   2.180  27.745  0.00  0.00    +0.026 C 
ATOM      7  C   UNL A   1     -21.104   1.552  27.566  0.00  0.00    -0.000 A 
ATOM      8  C   UNL A   1     -22.210   2.112  27.471  0.00  0.00    -0.004 A 
ATOM      9  C   UNL A   1     -25.237  -1.033  27.646  0.00  0.00    +0.048 C 
ATOM     10  C   UNL A   1     -25.744   0.688  29.220  0.00  0.00    +0.045 C 
ATOM     11  C   UNL A   1     -25.508   1.817  28.893  0.00  0.00    +0.009 C 
ENDROOT
BRANCH   1  12
ATOM     12  O   UNL A   1     -24.709  -1.337  29.931  0.00  0.00    -0.478 OA
BRANCH  12  15
ATOM     13  C   UNL A   1     -26.165  -3.278  29.998  0.00  0.00    +0.037 A 
ATOM     14  C   UNL A   1     -26.337  -4.273  29.697  0.00  0.00    +0.003 A 
ATOM     15  C   UNL A   1     -24.903  -2.711  29.620  0.00  0.00    +0.139 A 
ATOM     16  C   UNL A   1     -23.918  -3.425  29.068  0.00  0.00    +0.037 A 
ATOM     17  C   UNL A   1     -25.415  -5.236  29.111  0.00  0.00    +0.000 A 
ATOM     18  C   UNL A   1     -24.235  -4.733  28.776  0.00  0.00    +0.003 A 
ENDBRANCH  12  15
ENDBRANCH   1  12
TORSDOF 2
ENDMDL
ENDMDL
