REMARK  Name = outputs/IAG933/test6/raw/output_3787_IAG933_linker_design_.xyz
REMARK  13 active torsions:
REMARK  status: ('A' for Active; 'I' for Inactive)
REMARK    1  A    between atoms: C_1  and  C_2
REMARK    2  A    between atoms: C_1  and  C_8
REMARK    3  A    between atoms: C_1  and  CA_43
REMARK    4  A    between atoms: C_13  and  C_40
REMARK    5  A    between atoms: C_14  and  C_15
REMARK    6  A    between atoms: C_21  and  O_22
REMARK    7  A    between atoms: O_22  and  C_23
REMARK    8  A    between atoms: C_23  and  C_24
REMARK    9  A    between atoms: N_28  and  C_40
REMARK   10  A    between atoms: N_28  and  CA_43
REMARK   11  A    between atoms: C_30  and  C_33
REMARK   12  A    between atoms: C_31  and  C_40
REMARK   13  A    between atoms: C_32  and  CA_43
REMARK                            x       y       z     vdW  Elec       q    Type
REMARK                         _______ _______ _______ _____ _____    ______ ____
ROOT
ATOM      1  C   UNL A   1     -24.743   1.223  27.345  0.00  0.00    +0.102 C 
ENDROOT
BRANCH   1   4
ATOM      2  C   UNL A   1     -19.958   1.325  28.201  0.00  0.00    +0.086 C 
ATOM      3  C   UNL A   1     -22.907   1.944  26.100  0.00  0.00    +0.095 C 
ATOM      4  C   UNL A   1     -23.445   1.319  27.241  0.00  0.00    +0.051 C 
ATOM      5  C   UNL A   1     -21.827   1.943  26.656  0.00  0.00    +0.114 C 
ATOM      6  F   UNL A   1     -18.795   3.199  27.442  0.00  0.00    -0.189 F 
ATOM      7  C   UNL A   1     -22.201   1.309  27.587  0.00  0.00    -0.012 C 
ATOM      8  O   UNL A   1     -20.579   2.396  26.319  0.00  0.00    -0.454 OA
ATOM      9  C   UNL A   1     -19.731   2.303  27.316  0.00  0.00    +0.327 C 
ATOM     10  C   UNL A   1     -21.237   0.836  28.439  0.00  0.00    +0.032 C 
BRANCH   3  11
ATOM     11  C   UNL A   1     -23.197   2.898  25.113  0.00  0.00    +0.190 C 
ATOM     12  O   UNL A   1     -22.280   3.493  24.419  0.00  0.00    -0.220 OA
ENDBRANCH   3  11
ENDBRANCH   1   4
BRANCH   1  13
ATOM     13  C   UNL A   1     -25.688   1.614  26.461  0.00  0.00    +0.032 C 
ATOM     14  C   UNL A   1     -26.250   2.920  26.395  0.00  0.00    +0.074 C 
ATOM     15  C   UNL A   1     -27.438   3.091  25.645  0.00  0.00    +0.106 C 
ATOM     16  N   UNL A   1     -28.075   2.089  25.003  0.00  0.00    -0.208 NA
ATOM     17  C   UNL A   1     -27.543   0.849  25.079  0.00  0.00    +0.253 C 
ATOM     18  C   UNL A   1     -26.354   0.576  25.777  0.00  0.00    +0.190 C 
ATOM     19  F   UNL A   1     -25.860  -0.681  25.795  0.00  0.00    -0.200 F 
BRANCH  14  20
ATOM     20  C   UNL A   1     -25.642   4.093  27.123  0.00  0.00    +0.266 C 
ATOM     21  N   UNL A   1     -25.614   5.252  26.449  0.00  0.00    -0.200 NA
ATOM     22  C   UNL A   1     -25.026   6.479  26.963  0.00  0.00    +0.139 C 
ATOM     23  O   UNL A   1     -25.143   3.966  28.243  0.00  0.00    -0.268 OA
ENDBRANCH  14  20
BRANCH  17  24
ATOM     24  O   UNL A   1     -28.193  -0.208  24.477  0.00  0.00    -0.456 OA
BRANCH  24  25
ATOM     25  C   UNL A   1     -29.460   0.005  23.866  0.00  0.00    +0.243 C 
BRANCH  25  26
ATOM     26  C   UNL A   1     -30.065  -1.377  23.573  0.00  0.00    +0.229 C 
ATOM     27  O   UNL A   1     -30.729  -1.878  24.721  0.00  0.00    -0.216 OA
ENDBRANCH  25  26
ENDBRANCH  24  25
ENDBRANCH  17  24
ENDBRANCH   1  13
BRANCH   1  28
ATOM     28  N   UNL A   1     -25.200   0.179  28.126  0.00  0.00    -0.208 NA
BRANCH  28  29
ATOM     29  CA  UNL A   1     -24.300  -0.245  29.079  0.00  0.00    +0.143 C 
BRANCH  29  30
ATOM     30  C   UNL A   1     -23.192  -0.007  29.514  0.00  0.00    +0.225 C 
ATOM     31  O   UNL A   1     -22.463   0.015  30.395  0.00  0.00    -0.287 OA
ENDBRANCH  29  30
BRANCH  29  32
ATOM     32  C   UNL A   1     -24.855  -1.012  30.143  0.00  0.00    +0.062 C 
BRANCH  32  33
ATOM     33  C   UNL A   1     -24.973  -2.505  29.788  0.00  0.00    -0.019 C 
ATOM     34  C   UNL A   1     -23.906  -3.173  29.146  0.00  0.00    -0.004 C 
ATOM     35  C   UNL A   1     -23.989  -4.549  28.853  0.00  0.00    -0.000 C 
ATOM     36  C   UNL A   1     -25.137  -5.280  29.205  0.00  0.00    -0.000 C 
ATOM     37  C   UNL A   1     -26.232  -4.611  29.784  0.00  0.00    -0.000 C 
ATOM     38  C   UNL A   1     -26.155  -3.232  30.065  0.00  0.00    -0.004 C 
ENDBRANCH  32  33
BRANCH  32  39
ATOM     39  C   UNL A   1     -25.387  -0.679  31.571  0.00  0.00    +0.079 C 
ATOM     40  C   UNL A   1     -25.189   0.773  32.028  0.00  0.00    +0.019 C 
ATOM     41  C   UNL A   1     -25.336   0.684  33.544  0.00  0.00    +0.020 C 
ATOM     42  C   UNL A   1     -24.829  -0.715  33.905  0.00  0.00    +0.089 C 
ATOM     43  N   UNL A   1     -24.758  -1.481  32.646  0.00  0.00    -0.219 NA
ENDBRANCH  32  39
ENDBRANCH  29  32
ENDBRANCH  28  29
ENDBRANCH   1  28
TORSDOF 13
