REMARK  Name = outputs/IAG933/test6/raw/output_3788_IAG933_linker_design_.xyz
REMARK  9 active torsions:
REMARK  status: ('A' for Active; 'I' for Inactive)
REMARK    1  A    between atoms: C_1  and  C_2
REMARK    2  A    between atoms: C_1  and  C_8
REMARK    3  A    between atoms: C_1  and  C_33
REMARK    4  A    between atoms: C_13  and  N_28
REMARK    5  A    between atoms: C_14  and  C_15
REMARK    6  A    between atoms: C_21  and  O_22
REMARK    7  A    between atoms: O_22  and  C_23
REMARK    8  A    between atoms: C_23  and  C_24
REMARK    9  A    between atoms: C_34  and  N_37
REMARK                            x       y       z     vdW  Elec       q    Type
REMARK                         _______ _______ _______ _____ _____    ______ ____
ROOT
ATOM      1  N   UNL A   1     -24.713   1.210  27.228  0.00  0.00    -0.219 N 
ATOM      2  C   UNL A   1     -21.751  -0.426  29.366  0.00  0.00    +0.033 C 
ATOM      3  C   UNL A   1     -19.976   0.900  28.174  0.00  0.00    +0.036 C 
ATOM      4  C   UNL A   1     -21.195   1.292  27.398  0.00  0.00    +0.167 C 
ATOM      5  O   UNL A   1     -22.930   1.504  30.303  0.00  0.00    -0.223 OA
ATOM      6  C   UNL A   1     -24.373   0.011  29.215  0.00  0.00    +0.177 C 
ATOM      7  C   UNL A   1     -23.576   1.599  27.107  0.00  0.00    +0.221 C 
ATOM      8  C   UNL A   1     -22.568   1.197  27.891  0.00  0.00    +0.105 C 
ATOM      9  O   UNL A   1     -25.121   0.142  28.048  0.00  0.00    -0.256 OA
ATOM     10  C   UNL A   1     -22.921   0.559  29.182  0.00  0.00    +0.160 C 
ATOM     11  C   UNL A   1     -20.531  -0.073  28.689  0.00  0.00    +0.005 C 
ATOM     12  F   UNL A   1     -20.731   2.079  26.418  0.00  0.00    -0.237 F 
ENDROOT
BRANCH   1  13
ATOM     13  C   UNL A   1     -25.688   1.614  26.461  0.00  0.00    +0.122 C 
ATOM     14  C   UNL A   1     -26.250   2.920  26.395  0.00  0.00    +0.094 C 
ATOM     15  C   UNL A   1     -27.438   3.091  25.645  0.00  0.00    +0.108 C 
ATOM     16  N   UNL A   1     -28.075   2.089  25.003  0.00  0.00    -0.208 NA
ATOM     17  C   UNL A   1     -27.543   0.849  25.079  0.00  0.00    +0.255 C 
ATOM     18  C   UNL A   1     -26.354   0.576  25.777  0.00  0.00    +0.211 C 
ATOM     19  F   UNL A   1     -25.860  -0.681  25.795  0.00  0.00    -0.198 F 
BRANCH  14  20
ATOM     20  C   UNL A   1     -25.642   4.093  27.123  0.00  0.00    +0.268 C 
ATOM     21  N   UNL A   1     -25.614   5.252  26.449  0.00  0.00    -0.200 NA
ATOM     22  C   UNL A   1     -25.026   6.479  26.963  0.00  0.00    +0.139 C 
ATOM     23  O   UNL A   1     -25.143   3.966  28.243  0.00  0.00    -0.268 OA
ENDBRANCH  14  20
BRANCH  17  24
ATOM     24  O   UNL A   1     -28.193  -0.208  24.477  0.00  0.00    -0.456 OA
BRANCH  24  25
ATOM     25  C   UNL A   1     -29.460   0.005  23.866  0.00  0.00    +0.243 C 
BRANCH  25  26
ATOM     26  C   UNL A   1     -30.065  -1.377  23.573  0.00  0.00    +0.229 C 
ATOM     27  O   UNL A   1     -30.729  -1.878  24.721  0.00  0.00    -0.216 OA
ENDBRANCH  25  26
ENDBRANCH  24  25
ENDBRANCH  17  24
ENDBRANCH   1  13
BRANCH   7  28
ATOM     28  N   UNL A   1     -23.281   2.486  26.177  0.00  0.00    -0.013 NA
ATOM     29  F   UNL A   1     -22.565   2.418  25.105  0.00  0.00    -0.112 F 
ENDBRANCH   7  28
BRANCH   6  30
ATOM     30  C   UNL A   1     -24.855  -1.012  30.143  0.00  0.00    +0.071 C 
BRANCH  30  31
ATOM     31  C   UNL A   1     -24.973  -2.505  29.788  0.00  0.00    -0.019 C 
ATOM     32  C   UNL A   1     -23.906  -3.173  29.146  0.00  0.00    -0.004 C 
ATOM     33  C   UNL A   1     -23.989  -4.549  28.853  0.00  0.00    -0.000 C 
ATOM     34  C   UNL A   1     -25.137  -5.280  29.205  0.00  0.00    -0.000 C 
ATOM     35  C   UNL A   1     -26.232  -4.611  29.784  0.00  0.00    -0.000 C 
ATOM     36  C   UNL A   1     -26.155  -3.232  30.065  0.00  0.00    -0.004 C 
ENDBRANCH  30  31
BRANCH  30  37
ATOM     37  C   UNL A   1     -25.387  -0.679  31.571  0.00  0.00    +0.079 C 
ATOM     38  C   UNL A   1     -25.189   0.773  32.028  0.00  0.00    +0.019 C 
ATOM     39  C   UNL A   1     -25.336   0.684  33.544  0.00  0.00    +0.020 C 
ATOM     40  C   UNL A   1     -24.829  -0.715  33.905  0.00  0.00    +0.089 C 
ATOM     41  N   UNL A   1     -24.758  -1.481  32.646  0.00  0.00    -0.219 NA
ENDBRANCH  30  37
ENDBRANCH   6  30
TORSDOF 9
