MODEL 3788
MODEL 1
REMARK VINA RESULT:    -7.156      0.000      0.000
REMARK INTER + INTRA:         -12.208
REMARK INTER:                 -10.502
REMARK INTRA:                  -1.706
REMARK UNBOUND:                -1.706
REMARK  Name = No_3788-gen_results/8p0m/2024-11-27-11-27-31/
REMARK  8 active torsions:
REMARK  status: ('A' for Active; 'I' for Inactive)
REMARK    1  A    between atoms: C_3  and  C_11
REMARK    2  A    between atoms: C_5  and  C_16
REMARK    3  A    between atoms: C_11  and  P_12
REMARK    4  A    between atoms: C_16  and  O_18
REMARK    5  A    between atoms: O_18  and  C_19
REMARK    6  A    between atoms: C_22  and  N_29
REMARK    7  A    between atoms: C_23  and  C_25
REMARK    8  A    between atoms: C_30  and  C_31
REMARK                            x       y       z     vdW  Elec       q    Type
REMARK                         _______ _______ _______ _____ _____    ______ ____
ROOT
ATOM      1  C   UNL A   1     -25.689   3.130  26.710  0.00  0.00    +0.346 C 
ATOM      2  O   UNL A   1     -26.071   4.152  27.078  0.00  0.00    -0.244 OA
ENDROOT
BRANCH   1   7
ATOM      3  N   UNL A   1     -22.694   0.057  30.008  0.00  0.00    -0.224 NA
ATOM      4  C   UNL A   1     -23.266   0.728  29.413  0.00  0.00    +0.081 A 
ATOM      5  C   UNL A   1     -24.617   0.720  29.478  0.00  0.00    +0.003 A 
ATOM      6  C   UNL A   1     -25.547   1.506  28.613  0.00  0.00    +0.004 A 
ATOM      7  C   UNL A   1     -24.896   2.245  27.609  0.00  0.00    +0.076 A 
ATOM      8  C   UNL A   1     -23.490   2.194  27.480  0.00  0.00    +0.009 A 
ATOM      9  C   UNL A   1     -22.691   1.428  28.282  0.00  0.00    +0.037 A 
ATOM     10  C   UNL A   1     -21.570  -0.582  29.409  0.00  0.00    +0.199 A 
ATOM     11  N   UNL A   1     -20.800   0.070  28.484  0.00  0.00    -0.222 NA
ATOM     12  C   UNL A   1     -21.487   1.026  27.787  0.00  0.00    +0.102 A 
BRANCH   5  13
ATOM     13  C   UNL A   1     -25.407   0.034  30.529  0.00  0.00    +0.087 C 
BRANCH  13  14
ATOM     14  P   UNL A   1     -26.053  -1.351  30.505  0.00  0.00    +0.122 P 
ATOM     15  O   UNL A   1     -25.289  -2.267  30.656  0.00  0.00    -0.357 OA
ATOM     16  O   UNL A   1     -26.989  -1.234  31.773  0.00  0.00    -0.460 OA
ATOM     17  O   UNL A   1     -27.076  -1.471  29.378  0.00  0.00    -0.357 OA
ENDBRANCH  13  14
ENDBRANCH   5  13
ENDBRANCH   1   7
BRANCH   1  18
ATOM     18  O   UNL A   1     -25.763   2.783  25.459  0.00  0.00    -0.421 OA
BRANCH  18  19
ATOM     19  C   UNL A   1     -26.885   2.271  24.987  0.00  0.00    +0.153 A 
ATOM     20  C   UNL A   1     -27.868   2.878  24.782  0.00  0.00    +0.039 A 
ATOM     21  C   UNL A   1     -29.148   2.339  24.291  0.00  0.00    +0.022 A 
ATOM     22  C   UNL A   1     -29.116   0.908  24.085  0.00  0.00    +0.082 A 
ATOM     23  C   UNL A   1     -26.825   0.752  24.806  0.00  0.00    +0.107 A 
ATOM     24  C   UNL A   1     -27.978   0.155  24.300  0.00  0.00    +0.026 A 
BRANCH  23  25
ATOM     25  C   UNL A   1     -25.629  -0.027  24.951  0.00  0.00    +0.421 C 
ATOM     26  F   UNL A   1     -24.573   0.507  24.652  0.00  0.00    -0.166 F 
ATOM     27  F   UNL A   1     -25.511  -0.461  26.306  0.00  0.00    -0.166 F 
ATOM     28  F   UNL A   1     -25.741  -1.183  24.205  0.00  0.00    -0.166 F 
ENDBRANCH  23  25
BRANCH  22  29
ATOM     29  N   UNL A   1     -30.264   0.298  23.554  0.00  0.00    -0.244 NA
ATOM     30  C   UNL A   1     -31.249   0.721  23.252  0.00  0.00    +0.099 C 
BRANCH  30  31
ATOM     31  C   UNL A   1     -32.349  -0.119  22.734  0.00  0.00    +0.016 C 
ATOM     32  C   UNL A   1     -32.988   0.337  21.640  0.00  0.00    -0.024 C 
ATOM     33  C   UNL A   1     -32.636   1.555  21.051  0.00  0.00    +0.031 C 
ENDBRANCH  30  31
ENDBRANCH  22  29
ENDBRANCH  18  19
ENDBRANCH   1  18
TORSDOF 8
ENDMDL
ENDMDL
