MODEL 378
MODEL 1
REMARK VINA RESULT:    -6.533      0.000      0.000
REMARK INTER + INTRA:          -9.872
REMARK INTER:                  -8.825
REMARK INTRA:                  -1.047
REMARK UNBOUND:                -1.047
REMARK  Name = No_378-gen_results/8p0m/2024-11-27-11-27-31/
REMARK  6 active torsions:
REMARK  status: ('A' for Active; 'I' for Inactive)
REMARK    1  A    between atoms: C_3  and  C_8
REMARK    2  A    between atoms: C_6  and  O_7
REMARK    3  A    between atoms: O_7  and  C_14
REMARK    4  A    between atoms: C_14  and  C_15
REMARK    5  A    between atoms: C_16  and  C_17
REMARK    6  A    between atoms: C_18  and  C_19
REMARK                            x       y       z     vdW  Elec       q    Type
REMARK                         _______ _______ _______ _____ _____    ______ ____
ROOT
ATOM      1  C   UNL A   1     -24.445  -1.242  30.173  0.00  0.00    +0.037 A 
ATOM      2  C   UNL A   1     -25.575  -1.536  30.486  0.00  0.00    +0.003 A 
ATOM      3  C   UNL A   1     -26.131  -2.755  30.113  0.00  0.00    +0.000 A 
ATOM      4  C   UNL A   1     -25.393  -3.687  29.300  0.00  0.00    +0.003 A 
ATOM      5  C   UNL A   1     -24.103  -3.257  28.962  0.00  0.00    +0.037 A 
ATOM      6  C   UNL A   1     -23.630  -2.087  29.327  0.00  0.00    +0.139 A 
ENDROOT
BRANCH   3   7
ATOM      7  C   UNL A   1     -27.520  -3.239  30.451  0.00  0.00    +0.000 A 
ATOM      8  C   UNL A   1     -27.859  -4.561  30.274  0.00  0.00    +0.000 A 
ATOM      9  C   UNL A   1     -29.178  -4.990  30.538  0.00  0.00    +0.000 A 
ATOM     10  C   UNL A   1     -30.155  -4.066  31.032  0.00  0.00    +0.000 A 
ATOM     11  C   UNL A   1     -29.824  -2.743  31.076  0.00  0.00    +0.000 A 
ATOM     12  C   UNL A   1     -28.564  -2.340  30.805  0.00  0.00    +0.000 A 
ENDBRANCH   3   7
BRANCH   6  13
ATOM     13  O   UNL A   1     -22.380  -1.730  28.925  0.00  0.00    -0.471 OA
BRANCH  13  14
ATOM     14  C   UNL A   1     -21.843  -0.522  29.290  0.00  0.00    +0.232 C 
BRANCH  14  15
ATOM     15  C   UNL A   1     -21.596   0.331  28.352  0.00  0.00    +0.021 C 
ATOM     16  C   UNL A   1     -22.468   1.184  27.980  0.00  0.00    -0.001 C 
BRANCH  16  17
ATOM     17  C   UNL A   1     -22.429   1.913  27.087  0.00  0.00    -0.000 C 
ATOM     18  C   UNL A   1     -23.324   2.019  25.899  0.00  0.00    -0.000 C 
BRANCH  18  19
ATOM     19  C   UNL A   1     -24.477   1.234  26.009  0.00  0.00    -0.000 C 
ATOM     20  C   UNL A   1     -24.838   0.416  25.005  0.00  0.00    -0.000 C 
ENDBRANCH  18  19
ENDBRANCH  16  17
ENDBRANCH  14  15
ENDBRANCH  13  14
ENDBRANCH   6  13
TORSDOF 6
ENDMDL
ENDMDL
