MODEL 3790
MODEL 1
REMARK VINA RESULT:    -6.542      0.000      0.000
REMARK INTER + INTRA:          -7.322
REMARK INTER:                  -6.924
REMARK INTRA:                  -0.398
REMARK UNBOUND:                -0.398
REMARK  Name = No_3790-gen_results/8p0m/2024-11-27-11-27-31/
REMARK  1 active torsions:
REMARK  status: ('A' for Active; 'I' for Inactive)
REMARK    1  A    between atoms: C_3  and  C_4
REMARK                            x       y       z     vdW  Elec       q    Type
REMARK                         _______ _______ _______ _____ _____    ______ ____
ROOT
ATOM      1  C   UNL A   1     -24.057  -4.079  28.684  0.00  0.00    +0.000 A 
ATOM      2  C   UNL A   1     -24.714  -4.861  28.943  0.00  0.00    +0.000 A 
ATOM      3  C   UNL A   1     -24.450  -2.758  28.995  0.00  0.00    +0.000 A 
ATOM      4  C   UNL A   1     -26.038  -4.844  29.590  0.00  0.00    +0.000 A 
ATOM      5  C   UNL A   1     -26.493  -3.569  29.924  0.00  0.00    +0.000 A 
ATOM      6  C   UNL A   1     -25.696  -2.497  29.681  0.00  0.00    +0.000 A 
ENDROOT
BRANCH   3   7
ATOM      7  C   UNL A   1     -23.597  -1.557  28.797  0.00  0.00    +0.000 A 
ATOM      8  C   UNL A   1     -22.580  -1.217  29.164  0.00  0.00    +0.000 A 
ATOM      9  C   UNL A   1     -21.829  -0.034  28.890  0.00  0.00    +0.000 A 
ATOM     10  C   UNL A   1     -22.556   0.896  28.036  0.00  0.00    +0.000 A 
ATOM     11  C   UNL A   1     -23.761   0.574  27.661  0.00  0.00    +0.000 A 
ATOM     12  C   UNL A   1     -24.334  -0.567  27.961  0.00  0.00    +0.000 A 
ENDBRANCH   3   7
TORSDOF 1
ENDMDL
ENDMDL
