MODEL 3791
MODEL 1
REMARK VINA RESULT:    -5.674      0.000      0.000
REMARK INTER + INTRA:          -6.076
REMARK INTER:                  -6.006
REMARK INTRA:                  -0.070
REMARK UNBOUND:                -0.070
REMARK  Name = No_3791-gen_results/8p0m/2024-11-27-11-27-31/
REMARK  1 active torsions:
REMARK  status: ('A' for Active; 'I' for Inactive)
REMARK    1  A    between atoms: C_6  and  C_8
REMARK                            x       y       z     vdW  Elec       q    Type
REMARK                         _______ _______ _______ _____ _____    ______ ____
ROOT
ATOM      1  C   UNL A   1     -24.200  -4.041  28.673  0.00  0.00    +0.034 A 
ATOM      2  C   UNL A   1     -24.939  -4.955  28.956  0.00  0.00    +0.140 A 
ATOM      3  C   UNL A   1     -26.155  -4.726  29.591  0.00  0.00    +0.030 A 
ATOM      4  C   UNL A   1     -26.551  -3.395  29.973  0.00  0.00    +0.003 A 
ATOM      5  C   UNL A   1     -25.627  -2.400  29.628  0.00  0.00    +0.005 A 
ATOM      6  C   UNL A   1     -24.483  -2.671  29.042  0.00  0.00    +0.057 A 
ATOM      7  F   UNL A   1     -24.665  -6.238  28.717  0.00  0.00    -0.204 F 
ENDROOT
BRANCH   6   8
ATOM      8  C   UNL A   1     -23.579  -1.518  28.783  0.00  0.00    +0.265 C 
ATOM      9  N   UNL A   1     -22.450  -1.523  29.193  0.00  0.00    -0.200 NA
ATOM     10  O   UNL A   1     -24.113  -0.375  28.471  0.00  0.00    -0.268 OA
ATOM     11  C   UNL A   1     -21.447  -0.452  29.005  0.00  0.00    +0.139 C 
ENDBRANCH   6   8
TORSDOF 1
ENDMDL
ENDMDL
