MODEL 3792
MODEL 1
REMARK VINA RESULT:    -5.542      0.000      0.000
REMARK INTER + INTRA:          -7.022
REMARK INTER:                  -6.514
REMARK INTRA:                  -0.509
REMARK UNBOUND:                -0.509
REMARK  Name = No_3792-gen_results/8p0m/2024-11-27-11-27-31/
REMARK  3 active torsions:
REMARK  status: ('A' for Active; 'I' for Inactive)
REMARK    1  A    between atoms: C_2  and  C_8
REMARK    2  A    between atoms: C_3  and  C_11
REMARK    3  A    between atoms: C_11  and  C_12
REMARK                            x       y       z     vdW  Elec       q    Type
REMARK                         _______ _______ _______ _____ _____    ______ ____
ROOT
ATOM      1  C   UNL A   1     -23.660  -2.515  29.536  0.00  0.00    +0.004 A 
ATOM      2  C   UNL A   1     -24.617  -2.955  29.566  0.00  0.00    +0.080 A 
ATOM      3  C   UNL A   1     -23.563  -1.128  30.132  0.00  0.00    -0.007 A 
ATOM      4  C   UNL A   1     -24.680  -0.583  30.800  0.00  0.00    +0.054 A 
ATOM      5  C   UNL A   1     -25.906  -2.626  30.215  0.00  0.00    +0.007 A 
ATOM      6  C   UNL A   1     -25.854  -1.360  30.780  0.00  0.00    +0.011 A 
ATOM      7 CL   UNL A   1     -24.648   0.932  31.446  0.00  0.00    -0.083 Cl
ENDROOT
BRANCH   2   8
ATOM      8  C   UNL A   1     -24.739  -4.455  28.939  0.00  0.00    +0.388 C 
ATOM      9  O   UNL A   1     -23.828  -4.865  28.142  0.00  0.00    -0.241 OA
ATOM     10  O   UNL A   1     -25.652  -5.153  29.338  0.00  0.00    -0.241 OA
ENDBRANCH   2   8
BRANCH   3  11
ATOM     11  C   UNL A   1     -22.325  -0.357  29.936  0.00  0.00    +0.053 C 
BRANCH  11  12
ATOM     12  C   UNL A   1     -22.056   0.146  28.596  0.00  0.00    -0.026 C 
ATOM     13  C   UNL A   1     -22.558   1.219  28.273  0.00  0.00    -0.030 C 
ATOM     14  C   UNL A   1     -22.141   1.867  26.971  0.00  0.00    +0.030 C 
ENDBRANCH  11  12
ENDBRANCH   3  11
TORSDOF 3
ENDMDL
ENDMDL
