MODEL 3793
MODEL 1
REMARK VINA RESULT:    -6.412      0.000      0.000
REMARK INTER + INTRA:          -9.872
REMARK INTER:                  -8.661
REMARK INTRA:                  -1.211
REMARK UNBOUND:                -1.211
REMARK  Name = No_3793-gen_results/8p0m/2024-11-27-11-27-31/
REMARK  6 active torsions:
REMARK  status: ('A' for Active; 'I' for Inactive)
REMARK    1  A    between atoms: C_3  and  C_4
REMARK    2  A    between atoms: C_7  and  C_13
REMARK    3  A    between atoms: C_8  and  O_20
REMARK    4  A    between atoms: C_13  and  C_14
REMARK    5  A    between atoms: C_14  and  P_16
REMARK    6  A    between atoms: P_16  and  O_19
REMARK                            x       y       z     vdW  Elec       q    Type
REMARK                         _______ _______ _______ _____ _____    ______ ____
ROOT
ATOM      1  C   UNL A   1     -21.669  -0.697  29.163  0.00  0.00    -0.000 A 
ATOM      2  C   UNL A   1     -21.010  -0.006  28.718  0.00  0.00    -0.000 A 
ATOM      3  C   UNL A   1     -23.041  -0.602  28.840  0.00  0.00    -0.001 A 
ATOM      4  C   UNL A   1     -21.254   1.108  27.786  0.00  0.00    -0.000 A 
ATOM      5  C   UNL A   1     -22.592   1.265  27.423  0.00  0.00    -0.004 A 
ATOM      6  C   UNL A   1     -23.514   0.390  27.900  0.00  0.00    -0.022 A 
ENDROOT
BRANCH   3   7
ATOM      7  C   UNL A   1     -24.083  -1.560  29.293  0.00  0.00    +0.034 A 
ATOM      8  C   UNL A   1     -24.934  -1.537  30.040  0.00  0.00    +0.139 A 
ATOM      9  C   UNL A   1     -25.907  -2.522  30.388  0.00  0.00    +0.037 A 
ATOM     10  C   UNL A   1     -25.698  -3.779  29.681  0.00  0.00    +0.003 A 
ATOM     11  C   UNL A   1     -24.679  -3.868  28.875  0.00  0.00    +0.000 A 
ATOM     12  C   UNL A   1     -23.866  -2.871  28.619  0.00  0.00    +0.003 A 
BRANCH   8  13
ATOM     13  O   UNL A   1     -24.884  -0.643  31.024  0.00  0.00    -0.471 OA
ATOM     14  C   UNL A   1     -24.294  -1.133  32.216  0.00  0.00    +0.253 C 
ENDBRANCH   8  13
ENDBRANCH   3   7
BRANCH   6  15
ATOM     15  C   UNL A   1     -24.906   0.518  27.530  0.00  0.00    +0.035 C 
ATOM     16  C   UNL A   1     -25.348  -0.334  26.404  0.00  0.00    +0.005 C 
BRANCH  15  17
ATOM     17  C   UNL A   1     -25.817   1.223  28.171  0.00  0.00    +0.123 C 
BRANCH  17  18
ATOM     18  P   UNL A   1     -26.113   2.871  27.865  0.00  0.00    +0.380 P 
ATOM     19  O   UNL A   1     -25.060   3.616  28.693  0.00  0.00    -0.139 OA
ATOM     20  O   UNL A   1     -27.461   3.072  28.632  0.00  0.00    -0.255 OA
BRANCH  18  21
ATOM     21  O   UNL A   1     -26.050   3.286  26.550  0.00  0.00    -0.226 OA
ATOM     22 BR   UNL A   1     -24.595   4.031  25.966  0.00  0.00    +0.108 Br
ENDBRANCH  18  21
ENDBRANCH  17  18
ENDBRANCH  15  17
ENDBRANCH   6  15
TORSDOF 6
ENDMDL
ENDMDL
