REMARK  Name = No_3794-gen_results/8p0m/2024-11-27-11-27-31/
REMARK  7 active torsions:
REMARK  status: ('A' for Active; 'I' for Inactive)
REMARK    1  A    between atoms: C_2  and  O_7
REMARK    2  A    between atoms: C_4  and  C_15
REMARK    3  A    between atoms: O_7  and  C_8
REMARK    4  A    between atoms: C_16  and  C_22
REMARK    5  A    between atoms: C_22  and  C_25
REMARK    6  A    between atoms: C_26  and  C_29
REMARK    7  A    between atoms: C_32  and  C_33
REMARK                            x       y       z     vdW  Elec       q    Type
REMARK                         _______ _______ _______ _____ _____    ______ ____
ROOT
ATOM      1  C   UNL A   1     -27.747   3.265  30.000  0.00  0.00    +0.000 A 
ATOM      2  C   UNL A   1     -27.759   4.255  29.484  0.00  0.00    -0.000 A 
ATOM      3  C   UNL A   1     -27.451   5.602  29.968  0.00  0.00    -0.000 A 
ATOM      4  C   UNL A   1     -27.062   5.695  31.299  0.00  0.00    -0.000 A 
ATOM      5  C   UNL A   1     -27.108   3.495  31.450  0.00  0.00    +0.000 A 
ATOM      6  C   UNL A   1     -26.858   4.603  32.020  0.00  0.00    +0.000 A 
ENDROOT
BRANCH   1  10
ATOM      7  C   UNL A   1     -28.016  -0.814  28.878  0.00  0.00    +0.049 A 
ATOM      8  C   UNL A   1     -27.064  -0.119  28.608  0.00  0.00    +0.146 A 
ATOM      9  C   UNL A   1     -26.876   1.133  28.913  0.00  0.00    +0.037 A 
ATOM     10  C   UNL A   1     -27.901   1.807  29.644  0.00  0.00    +0.004 A 
ATOM     11  C   UNL A   1     -29.046  -0.232  29.718  0.00  0.00    +0.061 A 
ATOM     12  C   UNL A   1     -28.940   1.052  30.060  0.00  0.00    +0.012 A 
ATOM     13 CL   UNL A   1     -30.405  -1.160  30.134  0.00  0.00    -0.082 Cl
BRANCH   8  14
ATOM     14  O   UNL A   1     -25.980  -0.691  27.875  0.00  0.00    -0.453 OA
BRANCH  14  15
ATOM     15  C   UNL A   1     -24.627  -0.470  28.331  0.00  0.00    +0.146 A 
ATOM     16  C   UNL A   1     -23.934   0.622  27.761  0.00  0.00    +0.049 A 
ATOM     17  C   UNL A   1     -22.630   0.803  28.195  0.00  0.00    +0.061 A 
ATOM     18  C   UNL A   1     -21.962  -0.186  28.969  0.00  0.00    +0.012 A 
ATOM     19  C   UNL A   1     -24.085  -1.363  29.229  0.00  0.00    +0.037 A 
ATOM     20  C   UNL A   1     -22.745  -1.235  29.512  0.00  0.00    +0.004 A 
ATOM     21 CL   UNL A   1     -21.625   2.064  27.559  0.00  0.00    -0.082 Cl
ENDBRANCH  14  15
ENDBRANCH   8  14
ENDBRANCH   1  10
BRANCH   2  22
ATOM     22  C   UNL A   1     -28.221   4.315  28.029  0.00  0.00    -0.004 C 
ATOM     23  C   UNL A   1     -27.636   4.942  27.164  0.00  0.00    -0.026 C 
ATOM     24  C   UNL A   1     -26.912   5.341  26.416  0.00  0.00    +0.031 C 
BRANCH  22  25
ATOM     25  C   UNL A   1     -29.431   3.635  27.709  0.00  0.00    -0.001 A 
ATOM     26  C   UNL A   1     -30.678   4.080  28.128  0.00  0.00    -0.004 A 
ATOM     27  C   UNL A   1     -29.399   2.685  26.647  0.00  0.00    -0.000 A 
ATOM     28  C   UNL A   1     -30.542   1.908  26.355  0.00  0.00    -0.000 A 
ATOM     29  C   UNL A   1     -31.746   2.291  26.873  0.00  0.00    -0.000 A 
ATOM     30  C   UNL A   1     -31.832   3.300  27.800  0.00  0.00    -0.000 A 
BRANCH  26  31
ATOM     31  C   UNL A   1     -30.862   5.064  29.201  0.00  0.00    -0.022 C 
ATOM     32  C   UNL A   1     -31.295   6.368  28.741  0.00  0.00    -0.004 C 
ATOM     33  C   UNL A   1     -30.712   4.824  30.557  0.00  0.00    +0.031 C 
BRANCH  32  34
ATOM     34  C   UNL A   1     -31.437   7.411  29.672  0.00  0.00    -0.000 C 
ATOM     35  C   UNL A   1     -31.275   7.103  31.058  0.00  0.00    -0.000 C 
ENDBRANCH  32  34
ENDBRANCH  26  31
ENDBRANCH  22  25
ENDBRANCH   2  22
TORSDOF 7
