MODEL 3795
MODEL 1
REMARK VINA RESULT:    -6.716      0.000      0.000
REMARK INTER + INTRA:          -7.489
REMARK INTER:                  -7.109
REMARK INTRA:                  -0.380
REMARK UNBOUND:                -0.380
REMARK  Name = No_3795-gen_results/8p0m/2024-11-27-11-27-31/
REMARK  1 active torsions:
REMARK  status: ('A' for Active; 'I' for Inactive)
REMARK    1  A    between atoms: C_3  and  C_4
REMARK                            x       y       z     vdW  Elec       q    Type
REMARK                         _______ _______ _______ _____ _____    ______ ____
ROOT
ATOM      1  C   UNL A   1     -23.953  -4.217  28.533  0.00  0.00    +0.000 A 
ATOM      2  C   UNL A   1     -24.499  -5.077  28.803  0.00  0.00    +0.000 A 
ATOM      3  C   UNL A   1     -24.651  -2.965  28.825  0.00  0.00    +0.000 A 
ATOM      4  C   UNL A   1     -25.462  -5.213  29.339  0.00  0.00    +0.000 A 
ATOM      5  C   UNL A   1     -26.363  -4.217  29.770  0.00  0.00    +0.000 A 
ATOM      6  C   UNL A   1     -25.863  -3.000  29.535  0.00  0.00    +0.000 A 
ENDROOT
BRANCH   3   7
ATOM      7  C   UNL A   1     -24.050  -1.626  28.635  0.00  0.00    +0.000 A 
ATOM      8  C   UNL A   1     -24.691  -0.681  27.937  0.00  0.00    +0.000 A 
ATOM      9  C   UNL A   1     -22.781  -1.295  29.191  0.00  0.00    +0.000 A 
ATOM     10  C   UNL A   1     -24.043   0.476  27.505  0.00  0.00    +0.000 A 
ATOM     11  C   UNL A   1     -22.246  -0.049  29.089  0.00  0.00    +0.000 A 
ATOM     12  C   UNL A   1     -22.843   0.836  28.203  0.00  0.00    +0.000 A 
ENDBRANCH   3   7
TORSDOF 1
ENDMDL
ENDMDL
