REMARK  Name = No_3795-gen_results/8p0m/2024-11-27-11-27-31/
REMARK  1 active torsions:
REMARK  status: ('A' for Active; 'I' for Inactive)
REMARK    1  A    between atoms: C_3  and  C_4
REMARK                            x       y       z     vdW  Elec       q    Type
REMARK                         _______ _______ _______ _____ _____    ______ ____
ROOT
ATOM      1  C   UNL A   1     -28.016  -0.814  28.878  0.00  0.00    +0.000 A 
ATOM      2  C   UNL A   1     -28.469  -0.785  29.829  0.00  0.00    +0.000 A 
ATOM      3  C   UNL A   1     -27.087   0.290  28.638  0.00  0.00    +0.000 A 
ATOM      4  C   UNL A   1     -28.314  -0.127  30.710  0.00  0.00    +0.000 A 
ATOM      5  C   UNL A   1     -27.483   1.008  30.810  0.00  0.00    +0.000 A 
ATOM      6  C   UNL A   1     -26.777   1.172  29.687  0.00  0.00    +0.000 A 
ENDROOT
BRANCH   3   7
ATOM      7  C   UNL A   1     -26.252   0.411  27.422  0.00  0.00    +0.000 A 
ATOM      8  C   UNL A   1     -26.802   0.720  26.242  0.00  0.00    +0.000 A 
ATOM      9  C   UNL A   1     -24.842   0.213  27.465  0.00  0.00    +0.000 A 
ATOM     10  C   UNL A   1     -26.102   0.568  25.045  0.00  0.00    +0.000 A 
ATOM     11  C   UNL A   1     -24.049   0.391  26.375  0.00  0.00    +0.000 A 
ATOM     12  C   UNL A   1     -24.672   0.520  25.142  0.00  0.00    +0.000 A 
ENDBRANCH   3   7
TORSDOF 1
