MODEL 3796
MODEL 1
REMARK VINA RESULT:    -5.290      0.000      0.000
REMARK INTER + INTRA:          -5.635
REMARK INTER:                  -5.599
REMARK INTRA:                  -0.036
REMARK UNBOUND:                -0.036
REMARK  Name = No_3796-gen_results/8p0m/2024-11-27-11-27-31/
REMARK  1 active torsions:
REMARK  status: ('A' for Active; 'I' for Inactive)
REMARK    1  A    between atoms: C_2  and  C_7
REMARK                            x       y       z     vdW  Elec       q    Type
REMARK                         _______ _______ _______ _____ _____    ______ ____
ROOT
ATOM      1  C   UNL A   1      -8.556 -10.532  18.422  0.00  0.00    +0.007 A 
ATOM      2  C   UNL A   1      -9.523 -10.118  18.357  0.00  0.00    +0.080 A 
ATOM      3  C   UNL A   1      -7.775 -10.165  19.664  0.00  0.00    +0.000 A 
ATOM      4  C   UNL A   1      -8.412  -9.439  20.692  0.00  0.00    +0.000 A 
ATOM      5  C   UNL A   1     -10.415  -9.379  19.277  0.00  0.00    +0.007 A 
ATOM      6  C   UNL A   1      -9.733  -9.029  20.434  0.00  0.00    +0.000 A 
ENDROOT
BRANCH   2   7
ATOM      7  C   UNL A   1     -10.381 -10.502  17.054  0.00  0.00    +0.388 C 
ATOM      8  O   UNL A   1     -11.464 -10.507  16.970  0.00  0.00    -0.241 OA
ATOM      9  O   UNL A   1      -9.614 -10.966  16.071  0.00  0.00    -0.241 OA
ENDBRANCH   2   7
TORSDOF 1
ENDMDL
ENDMDL
