MODEL 3797
MODEL 1
REMARK VINA RESULT:    -5.435      0.000      0.000
REMARK INTER + INTRA:          -5.839
REMARK INTER:                  -5.752
REMARK INTRA:                  -0.086
REMARK UNBOUND:                -0.086
REMARK  Name = No_3797-gen_results/8p0m/2024-11-27-11-27-31/
REMARK  1 active torsions:
REMARK  status: ('A' for Active; 'I' for Inactive)
REMARK    1  A    between atoms: C_5  and  C_7
REMARK                            x       y       z     vdW  Elec       q    Type
REMARK                         _______ _______ _______ _____ _____    ______ ____
ROOT
ATOM      1  C   UNL A   1     -24.592  -5.217  28.939  0.00  0.00    +0.000 A 
ATOM      2  C   UNL A   1     -25.716  -5.136  29.378  0.00  0.00    +0.000 A 
ATOM      3  C   UNL A   1     -26.335  -3.963  29.775  0.00  0.00    +0.000 A 
ATOM      4  C   UNL A   1     -25.592  -2.755  29.625  0.00  0.00    +0.005 A 
ATOM      5  C   UNL A   1     -24.404  -2.863  28.996  0.00  0.00    +0.055 A 
ATOM      6  C   UNL A   1     -23.936  -4.039  28.572  0.00  0.00    +0.005 A 
ENDROOT
BRANCH   5   7
ATOM      7  C   UNL A   1     -23.683  -1.588  28.815  0.00  0.00    +0.265 C 
ATOM      8  N   UNL A   1     -22.585  -1.457  28.959  0.00  0.00    -0.200 NA
ATOM      9  O   UNL A   1     -24.422  -0.537  28.565  0.00  0.00    -0.268 OA
ATOM     10  C   UNL A   1     -21.744  -0.709  29.176  0.00  0.00    +0.139 C 
ENDBRANCH   5   7
TORSDOF 1
ENDMDL
ENDMDL
