REMARK  Name = outputs/IAG933/test6/raw/output_3799_IAG933_linker_design_.xyz
REMARK  13 active torsions:
REMARK  status: ('A' for Active; 'I' for Inactive)
REMARK    1  A    between atoms: C_1  and  C_2
REMARK    2  A    between atoms: C_1  and  C_8
REMARK    3  A    between atoms: C_9  and  C_48
REMARK    4  A    between atoms: C_13  and  C_38
REMARK    5  A    between atoms: C_14  and  C_15
REMARK    6  A    between atoms: C_21  and  O_22
REMARK    7  A    between atoms: O_22  and  C_23
REMARK    8  A    between atoms: C_23  and  C_24
REMARK    9  A    between atoms: C_31  and  N_37
REMARK   10  A    between atoms: C_41  and  O_45
REMARK   11  A    between atoms: C_41  and  C_48
REMARK   12  A    between atoms: C_43  and  O_45
REMARK   13  A    between atoms: C_47  and  C_48
REMARK                            x       y       z     vdW  Elec       q    Type
REMARK                         _______ _______ _______ _____ _____    ______ ____
ROOT
ATOM      1  C   UNL A   1     -26.149   1.750  30.053  0.00  0.00    +0.207 C 
ENDROOT
BRANCH   1   2
ATOM      2  O   UNL A   1     -25.146   1.336  29.170  0.00  0.00    -0.478 OA
BRANCH   2   9
ATOM      3  O   UNL A   1     -20.779   2.070  27.593  0.00  0.00    -0.219 OA
ATOM      4 CL   UNL A   1     -22.737   2.128  24.841  0.00  0.00    -0.107 Cl
ATOM      5  C   UNL A   1     -22.772   1.381  28.664  0.00  0.00    +0.179 C 
ATOM      6  N   UNL A   1     -22.299   0.369  29.680  0.00  0.00    -0.122 NA
ATOM      7  C   UNL A   1     -24.372   1.506  26.961  0.00  0.00    +0.029 C 
ATOM      8  C   UNL A   1     -22.079   1.327  27.326  0.00  0.00    +0.196 C 
ATOM      9  C   UNL A   1     -24.185   1.383  28.314  0.00  0.00    +0.133 C 
ATOM     10  C   UNL A   1     -23.122   1.685  26.469  0.00  0.00    +0.137 C 
BRANCH   7  11
ATOM     11  C   UNL A   1     -25.688   1.614  26.461  0.00  0.00    +0.038 C 
ATOM     12  C   UNL A   1     -26.250   2.920  26.395  0.00  0.00    +0.076 C 
ATOM     13  C   UNL A   1     -27.438   3.091  25.645  0.00  0.00    +0.107 C 
ATOM     14  N   UNL A   1     -28.075   2.089  25.003  0.00  0.00    -0.208 NA
ATOM     15  C   UNL A   1     -27.543   0.849  25.079  0.00  0.00    +0.253 C 
ATOM     16  C   UNL A   1     -26.354   0.576  25.777  0.00  0.00    +0.193 C 
ATOM     17  F   UNL A   1     -25.860  -0.681  25.795  0.00  0.00    -0.199 F 
BRANCH  12  18
ATOM     18  C   UNL A   1     -25.642   4.093  27.123  0.00  0.00    +0.266 C 
ATOM     19  N   UNL A   1     -25.614   5.252  26.449  0.00  0.00    -0.200 NA
ATOM     20  C   UNL A   1     -25.026   6.479  26.963  0.00  0.00    +0.139 C 
ATOM     21  O   UNL A   1     -25.143   3.966  28.243  0.00  0.00    -0.268 OA
ENDBRANCH  12  18
BRANCH  15  22
ATOM     22  O   UNL A   1     -28.193  -0.208  24.477  0.00  0.00    -0.456 OA
BRANCH  22  23
ATOM     23  C   UNL A   1     -29.460   0.005  23.866  0.00  0.00    +0.243 C 
BRANCH  23  24
ATOM     24  C   UNL A   1     -30.065  -1.377  23.573  0.00  0.00    +0.229 C 
ATOM     25  O   UNL A   1     -30.729  -1.878  24.721  0.00  0.00    -0.216 OA
ENDBRANCH  23  24
ENDBRANCH  22  23
ENDBRANCH  15  22
ENDBRANCH   7  11
ENDBRANCH   2   9
ENDBRANCH   1   2
BRANCH   1  26
ATOM     26  C   UNL A   1     -25.353   2.167  31.318  0.00  0.00    +0.065 C 
BRANCH  26  28
ATOM     27  C   UNL A   1     -25.387  -0.679  31.571  0.00  0.00    +0.077 C 
ATOM     28  C   UNL A   1     -25.189   0.773  32.028  0.00  0.00    +0.023 C 
ATOM     29  C   UNL A   1     -25.336   0.684  33.544  0.00  0.00    +0.020 C 
ATOM     30  C   UNL A   1     -24.829  -0.715  33.905  0.00  0.00    +0.089 C 
ATOM     31  N   UNL A   1     -24.758  -1.481  32.646  0.00  0.00    -0.219 NA
BRANCH  27  32
ATOM     32  C   UNL A   1     -24.855  -1.012  30.143  0.00  0.00    +0.044 C 
BRANCH  32  33
ATOM     33  C   UNL A   1     -24.973  -2.505  29.788  0.00  0.00    -0.021 C 
ATOM     34  C   UNL A   1     -23.906  -3.173  29.146  0.00  0.00    -0.004 C 
ATOM     35  C   UNL A   1     -23.989  -4.549  28.853  0.00  0.00    -0.000 C 
ATOM     36  C   UNL A   1     -25.137  -5.280  29.205  0.00  0.00    -0.000 C 
ATOM     37  C   UNL A   1     -26.232  -4.611  29.784  0.00  0.00    -0.000 C 
ATOM     38  C   UNL A   1     -26.155  -3.232  30.065  0.00  0.00    -0.004 C 
ENDBRANCH  32  33
ENDBRANCH  27  32
ENDBRANCH  26  28
BRANCH  26  43
ATOM     39  C   UNL A   1     -27.122   3.904  33.576  0.00  0.00    +0.090 C 
ATOM     40  C   UNL A   1     -26.197   4.981  33.336  0.00  0.00    +0.049 C 
ATOM     41  N   UNL A   1     -27.172   3.128  32.339  0.00  0.00    -0.237 NA
ATOM     42  C   UNL A   1     -25.484   4.772  32.092  0.00  0.00    +0.065 C 
ATOM     43  C   UNL A   1     -26.142   3.550  31.420  0.00  0.00    +0.102 C 
BRANCH  40  46
ATOM     44  C   UNL A   1     -24.802   8.168  34.711  0.00  0.00    +0.095 C 
ATOM     45  C   UNL A   1     -24.746   6.718  34.211  0.00  0.00    +0.230 C 
ATOM     46  N   UNL A   1     -25.902   5.938  34.230  0.00  0.00    -0.259 N 
ATOM     47  O   UNL A   1     -23.606   6.296  33.851  0.00  0.00    -0.275 OA
ATOM     48  C   UNL A   1     -25.721   5.214  35.477  0.00  0.00    +0.120 C 
ENDBRANCH  40  46
ENDBRANCH  26  43
ENDBRANCH   1  26
TORSDOF 13
