MODEL 379
MODEL 1
REMARK VINA RESULT:    -4.300      0.000      0.000
REMARK INTER + INTRA:          -4.300
REMARK INTER:                  -4.300
REMARK INTRA:                   0.000
REMARK UNBOUND:                 0.000
REMARK  Name = No_379-gen_results/8p0m/2024-11-27-11-27-31/
REMARK  0 active torsions:
REMARK  status: ('A' for Active; 'I' for Inactive)
REMARK                            x       y       z     vdW  Elec       q    Type
REMARK                         _______ _______ _______ _____ _____    ______ ____
ROOT
ATOM      1 BR   UNL A   1     -23.369  -1.327  28.984  0.00  0.00    -0.049 Br
ATOM      2  C   UNL A   1     -24.305  -2.690  29.026  0.00  0.00    +0.035 A 
ATOM      3  C   UNL A   1     -23.956  -3.890  28.733  0.00  0.00    +0.007 A 
ATOM      4  C   UNL A   1     -24.674  -5.083  28.985  0.00  0.00    +0.001 A 
ATOM      5  C   UNL A   1     -25.976  -4.921  29.512  0.00  0.00    +0.000 A 
ATOM      6  C   UNL A   1     -26.399  -3.669  29.853  0.00  0.00    +0.001 A 
ATOM      7  C   UNL A   1     -25.569  -2.650  29.668  0.00  0.00    +0.007 A 
ENDROOT
TORSDOF 0
ENDMDL
ENDMDL
