REMARK  Name = No_38-gen_results/8p0m/2024-11-27-11-27-31/
REMARK  4 active torsions:
REMARK  status: ('A' for Active; 'I' for Inactive)
REMARK    1  A    between atoms: C_3  and  C_8
REMARK    2  A    between atoms: C_6  and  O_7
REMARK    3  A    between atoms: O_7  and  C_14
REMARK    4  A    between atoms: C_14  and  C_15
REMARK                            x       y       z     vdW  Elec       q    Type
REMARK                         _______ _______ _______ _____ _____    ______ ____
ROOT
ATOM      1  C   UNL A   1     -28.016  -0.814  28.878  0.00  0.00    +0.037 A 
ATOM      2  C   UNL A   1     -27.064  -0.119  28.608  0.00  0.00    +0.003 A 
ATOM      3  C   UNL A   1     -25.792  -0.430  29.076  0.00  0.00    +0.000 A 
ATOM      4  C   UNL A   1     -25.576  -1.565  29.936  0.00  0.00    +0.003 A 
ATOM      5  C   UNL A   1     -26.735  -2.300  30.217  0.00  0.00    +0.037 A 
ATOM      6  C   UNL A   1     -27.918  -1.954  29.763  0.00  0.00    +0.139 A 
ENDROOT
BRANCH   3   7
ATOM      7  C   UNL A   1     -24.529   0.349  28.800  0.00  0.00    +0.000 A 
ATOM      8  C   UNL A   1     -23.344   0.006  29.166  0.00  0.00    +0.000 A 
ATOM      9  C   UNL A   1     -22.178   0.781  28.778  0.00  0.00    +0.000 A 
ATOM     10  C   UNL A   1     -22.322   1.750  27.773  0.00  0.00    +0.000 A 
ATOM     11  C   UNL A   1     -24.610   1.356  27.748  0.00  0.00    +0.000 A 
ATOM     12  C   UNL A   1     -23.515   2.034  27.307  0.00  0.00    +0.000 A 
ENDBRANCH   3   7
BRANCH   6  13
ATOM     13  O   UNL A   1     -29.000  -2.701  30.115  0.00  0.00    -0.471 OA
BRANCH  13  14
ATOM     14  C   UNL A   1     -30.126  -2.134  30.584  0.00  0.00    +0.234 C 
BRANCH  14  15
ATOM     15  C   UNL A   1     -30.227  -1.146  31.042  0.00  0.00    +0.049 A 
ATOM     16  C   UNL A   1     -30.840  -0.394  31.584  0.00  0.00    +0.002 A 
ATOM     17  C   UNL A   1     -30.665   1.004  32.123  0.00  0.00    -0.000 A 
ATOM     18  C   UNL A   1     -29.424   1.557  31.780  0.00  0.00    +0.002 A 
ATOM     19  C   UNL A   1     -28.488   0.803  31.163  0.00  0.00    +0.029 A 
ATOM     20  C   UNL A   1     -28.755  -0.447  30.776  0.00  0.00    +0.140 A 
ATOM     21  F   UNL A   1     -27.933  -1.006  31.830  0.00  0.00    -0.204 F 
ENDBRANCH  14  15
ENDBRANCH  13  14
ENDBRANCH   6  13
TORSDOF 4
