MODEL 3800
MODEL 1
REMARK VINA RESULT:    -7.300      0.000      0.000
REMARK INTER + INTRA:          -8.854
REMARK INTER:                  -8.153
REMARK INTRA:                  -0.701
REMARK UNBOUND:                -0.701
REMARK  Name = No_3800-gen_results/8p0m/2024-11-27-11-27-31/
REMARK  2 active torsions:
REMARK  status: ('A' for Active; 'I' for Inactive)
REMARK    1  A    between atoms: C_5  and  C_12
REMARK    2  A    between atoms: N_10  and  C_11
REMARK                            x       y       z     vdW  Elec       q    Type
REMARK                         _______ _______ _______ _____ _____    ______ ____
ROOT
ATOM      1  C   UNL A   1     -21.707   1.863  27.211  0.00  0.00    +0.003 C 
ATOM      2  C   UNL A   1     -22.320   1.008  27.806  0.00  0.00    +0.018 C 
ATOM      3  C   UNL A   1     -23.599   0.766  27.765  0.00  0.00    +0.073 C 
ATOM      4  C   UNL A   1     -24.315  -0.300  28.509  0.00  0.00    +0.031 C 
ATOM      5  C   UNL A   1     -23.511  -1.165  29.305  0.00  0.00    +0.105 C 
ATOM      6  C   UNL A   1     -22.156  -0.951  29.304  0.00  0.00    +0.011 C 
ATOM      7  C   UNL A   1     -21.539   0.025  28.598  0.00  0.00    +0.002 C 
ATOM      8  C   UNL A   1     -22.231   2.158  25.804  0.00  0.00    +0.021 C 
ATOM      9  C   UNL A   1     -23.576   2.386  25.778  0.00  0.00    +0.091 C 
ATOM     10  N   UNL A   1     -24.275   1.261  26.471  0.00  0.00    -0.309 N 
ENDROOT
BRANCH  10  11
ATOM     11  C   UNL A   1     -25.630   0.882  26.170  0.00  0.00    +0.048 A 
ATOM     12  C   UNL A   1     -25.792  -0.035  25.197  0.00  0.00    +0.015 A 
ATOM     13  C   UNL A   1     -26.531  -0.028  24.463  0.00  0.00    +0.001 A 
ATOM     14  C   UNL A   1     -27.213   0.591  24.066  0.00  0.00    -0.004 A 
ATOM     15  C   UNL A   1     -27.576   1.681  25.067  0.00  0.00    -0.021 A 
ATOM     16  C   UNL A   1     -26.358   2.169  25.625  0.00  0.00    +0.010 A 
ATOM     17  C   UNL A   1     -28.369   2.858  24.448  0.00  0.00    +0.031 C 
ENDBRANCH  10  11
BRANCH   5  18
ATOM     18  C   UNL A   1     -24.103  -2.187  30.160  0.00  0.00    +0.364 C 
ATOM     19  O   UNL A   1     -24.727  -1.891  31.192  0.00  0.00    -0.246 OA
ATOM     20  O   UNL A   1     -24.178  -3.446  29.704  0.00  0.00    -0.246 OA
ENDBRANCH   5  18
TORSDOF 2
ENDMDL
ENDMDL
