MODEL 3801
MODEL 1
REMARK VINA RESULT:    -4.902      0.000      0.000
REMARK INTER + INTRA:          -5.546
REMARK INTER:                  -5.475
REMARK INTRA:                  -0.071
REMARK UNBOUND:                -0.071
REMARK  Name = No_3801-gen_results/8p0m/2024-11-27-11-27-31/
REMARK  2 active torsions:
REMARK  status: ('A' for Active; 'I' for Inactive)
REMARK    1  A    between atoms: C_2  and  N_10
REMARK    2  A    between atoms: C_5  and  C_7
REMARK                            x       y       z     vdW  Elec       q    Type
REMARK                         _______ _______ _______ _____ _____    ______ ____
ROOT
ATOM      1  N   UNL A   1     -23.778  -1.871  30.047  0.00  0.00    -0.225 NA
ATOM      2  C   UNL A   1     -24.712  -2.211  29.318  0.00  0.00    +0.162 A 
ATOM      3  C   UNL A   1     -25.094  -1.514  28.239  0.00  0.00    +0.039 A 
ATOM      4  C   UNL A   1     -24.296  -0.362  27.862  0.00  0.00    +0.011 A 
ATOM      5  C   UNL A   1     -23.206  -0.143  28.622  0.00  0.00    +0.099 A 
ATOM      6  C   UNL A   1     -22.903  -0.975  29.609  0.00  0.00    +0.107 A 
ENDROOT
BRANCH   5   7
ATOM      7  C   UNL A   1     -22.380   1.009  28.212  0.00  0.00    +0.389 C 
ATOM      8  O   UNL A   1     -21.316   0.882  27.825  0.00  0.00    -0.240 OA
ATOM      9  O   UNL A   1     -23.040   2.256  28.206  0.00  0.00    -0.240 OA
ENDBRANCH   5   7
BRANCH   2  10
ATOM     10  N   UNL A   1     -25.586  -3.298  29.722  0.00  0.00    -0.230 NA
ATOM     11  C   UNL A   1     -25.457  -4.568  29.313  0.00  0.00    +0.074 C 
ATOM     12  C   UNL A   1     -24.249  -4.909  28.646  0.00  0.00    +0.053 C 
ENDBRANCH   2  10
TORSDOF 2
ENDMDL
ENDMDL
