REMARK  Name = No_3801-gen_results/8p0m/2024-11-27-11-27-31/
REMARK  2 active torsions:
REMARK  status: ('A' for Active; 'I' for Inactive)
REMARK    1  A    between atoms: C_2  and  N_10
REMARK    2  A    between atoms: C_5  and  C_7
REMARK                            x       y       z     vdW  Elec       q    Type
REMARK                         _______ _______ _______ _____ _____    ______ ____
ROOT
ATOM      1  N   UNL A   1     -28.054  -1.050  28.725  0.00  0.00    -0.225 NA
ATOM      2  C   UNL A   1     -26.966  -0.472  28.771  0.00  0.00    +0.162 A 
ATOM      3  C   UNL A   1     -26.549   0.388  27.831  0.00  0.00    +0.039 A 
ATOM      4  C   UNL A   1     -27.476   0.726  26.767  0.00  0.00    +0.011 A 
ATOM      5  C   UNL A   1     -28.698   0.168  26.868  0.00  0.00    +0.099 A 
ATOM      6  C   UNL A   1     -28.997  -0.597  27.909  0.00  0.00    +0.107 A 
ENDROOT
BRANCH   5   7
ATOM      7  C   UNL A   1     -29.646   0.543  25.802  0.00  0.00    +0.389 C 
ATOM      8  O   UNL A   1     -30.132   1.573  25.761  0.00  0.00    -0.240 OA
ATOM      9  O   UNL A   1     -29.805  -0.406  24.771  0.00  0.00    -0.240 OA
ENDBRANCH   5   7
BRANCH   2  10
ATOM     10  N   UNL A   1     -25.982  -0.861  29.766  0.00  0.00    -0.230 NA
ATOM     11  C   UNL A   1     -24.692  -0.498  29.741  0.00  0.00    +0.074 C 
ATOM     12  C   UNL A   1     -24.331   0.527  28.826  0.00  0.00    +0.053 C 
ENDBRANCH   2  10
TORSDOF 2
