MODEL 3802
MODEL 1
REMARK VINA RESULT:    -6.578      0.000      0.000
REMARK INTER + INTRA:          -8.177
REMARK INTER:                  -7.732
REMARK INTRA:                  -0.445
REMARK UNBOUND:                -0.445
REMARK  Name = No_3802-gen_results/8p0m/2024-11-27-11-27-31/
REMARK  3 active torsions:
REMARK  status: ('A' for Active; 'I' for Inactive)
REMARK    1  A    between atoms: C_1  and  C_2
REMARK    2  A    between atoms: C_1  and  N_8
REMARK    3  A    between atoms: N_8  and  C_9
REMARK                            x       y       z     vdW  Elec       q    Type
REMARK                         _______ _______ _______ _____ _____    ______ ____
ROOT
ATOM      1  C   UNL A   1     -24.708  -1.416  28.877  0.00  0.00    +0.139 C 
ENDROOT
BRANCH   1   2
ATOM      2  C   UNL A   1     -24.718  -2.582  29.198  0.00  0.00    -0.001 A 
ATOM      3  C   UNL A   1     -23.831  -3.518  28.705  0.00  0.00    -0.003 A 
ATOM      4  C   UNL A   1     -24.179  -4.866  28.631  0.00  0.00    -0.000 A 
ATOM      5  C   UNL A   1     -25.275  -5.261  29.132  0.00  0.00    -0.000 A 
ATOM      6  C   UNL A   1     -26.249  -4.432  29.702  0.00  0.00    -0.000 A 
ATOM      7  C   UNL A   1     -25.941  -3.093  29.606  0.00  0.00    -0.003 A 
ENDBRANCH   1   2
BRANCH   1   8
ATOM      8  N   UNL A   1     -23.605  -0.703  29.237  0.00  0.00    -0.233 NA
BRANCH   8   9
ATOM      9  C   UNL A   1     -23.304   0.313  28.763  0.00  0.00    +0.066 A 
ATOM     10  C   UNL A   1     -23.469   1.216  28.228  0.00  0.00    +0.016 A 
ATOM     11  C   UNL A   1     -22.561   1.820  27.330  0.00  0.00    +0.001 A 
ATOM     12  C   UNL A   1     -21.238   1.504  27.476  0.00  0.00    +0.000 A 
ATOM     13  C   UNL A   1     -20.887   0.492  28.240  0.00  0.00    +0.001 A 
ATOM     14  C   UNL A   1     -21.695   0.018  28.738  0.00  0.00    +0.016 A 
ENDBRANCH   8   9
ENDBRANCH   1   8
TORSDOF 3
ENDMDL
ENDMDL
