REMARK  Name = outputs/IAG933/test6/raw/output_3802_IAG933_linker_design_.xyz
REMARK  16 active torsions:
REMARK  status: ('A' for Active; 'I' for Inactive)
REMARK    1  A    between atoms: C_1  and  C_2
REMARK    2  A    between atoms: C_1  and  C_8
REMARK    3  A    between atoms: C_1  and  N_38
REMARK    4  A    between atoms: C_13  and  C_39
REMARK    5  A    between atoms: C_14  and  C_15
REMARK    6  A    between atoms: C_21  and  O_22
REMARK    7  A    between atoms: O_22  and  C_23
REMARK    8  A    between atoms: C_23  and  C_24
REMARK    9  A    between atoms: N_29  and  C_30
REMARK   10  A    between atoms: N_29  and  C_37
REMARK   11  A    between atoms: C_30  and  C_40
REMARK   12  A    between atoms: CA_35  and  C_36
REMARK   13  A    between atoms: CA_35  and  C_37
REMARK   14  A    between atoms: C_37  and  C_41
REMARK   15  A    between atoms: N_38  and  C_41
REMARK   16  A    between atoms: C_39  and  C_41
REMARK                            x       y       z     vdW  Elec       q    Type
REMARK                         _______ _______ _______ _____ _____    ______ ____
ROOT
ATOM      1  C   UNL A   1     -24.555   1.147  28.660  0.00  0.00    +0.112 C 
ENDROOT
BRANCH   1   3
ATOM      2  O   UNL A   1     -25.703  -0.935  27.987  0.00  0.00    -0.118 OA
ATOM      3  N   UNL A   1     -24.832  -0.272  28.901  0.00  0.00    -0.128 NA
BRANCH   3   4
ATOM      4  C   UNL A   1     -24.855  -1.012  30.143  0.00  0.00    +0.125 C 
BRANCH   4   5
ATOM      5  C   UNL A   1     -24.973  -2.505  29.788  0.00  0.00    -0.004 C 
ATOM      6  C   UNL A   1     -23.906  -3.173  29.146  0.00  0.00    -0.003 C 
ATOM      7  C   UNL A   1     -23.989  -4.549  28.853  0.00  0.00    -0.000 C 
ATOM      8  C   UNL A   1     -25.137  -5.280  29.205  0.00  0.00    -0.000 C 
ATOM      9  C   UNL A   1     -26.232  -4.611  29.784  0.00  0.00    -0.000 C 
ATOM     10  C   UNL A   1     -26.155  -3.232  30.065  0.00  0.00    -0.003 C 
ENDBRANCH   4   5
BRANCH   4  11
ATOM     11  C   UNL A   1     -25.387  -0.679  31.571  0.00  0.00    +0.094 C 
ATOM     12  C   UNL A   1     -25.189   0.773  32.028  0.00  0.00    +0.021 C 
ATOM     13  C   UNL A   1     -25.336   0.684  33.544  0.00  0.00    +0.020 C 
ATOM     14  C   UNL A   1     -24.829  -0.715  33.905  0.00  0.00    +0.089 C 
ATOM     15  N   UNL A   1     -24.758  -1.481  32.646  0.00  0.00    -0.218 NA
ENDBRANCH   4  11
ENDBRANCH   3   4
ENDBRANCH   1   3
BRANCH   1  16
ATOM     16  C   UNL A   1     -23.092   1.417  29.074  0.00  0.00    +0.116 C 
BRANCH  16  18
ATOM     17  N   UNL A   1     -22.268  -0.508  30.243  0.00  0.00    -0.153 NA
ATOM     18  CA  UNL A   1     -22.193   0.261  29.227  0.00  0.00    +0.107 C 
BRANCH  18  20
ATOM     19  O   UNL A   1     -20.078   0.989  28.237  0.00  0.00    -0.214 OA
ATOM     20  C   UNL A   1     -20.973   0.030  28.522  0.00  0.00    +0.226 C 
ENDBRANCH  18  20
ENDBRANCH  16  18
BRANCH  16  21
ATOM     21  N   UNL A   1     -22.621   2.195  27.861  0.00  0.00    -0.265 NA
ATOM     22  C   UNL A   1     -23.442   2.107  27.039  0.00  0.00    +0.090 C 
BRANCH  21  23
ATOM     23  C   UNL A   1     -22.225   2.103  27.055  0.00  0.00    +0.108 C 
BRANCH  23  25
ATOM     24  O   UNL A   1     -22.516   2.697  24.659  0.00  0.00    -0.219 OA
ATOM     25  C   UNL A   1     -21.575   2.007  25.525  0.00  0.00    +0.199 C 
ENDBRANCH  23  25
ENDBRANCH  21  23
ENDBRANCH  16  21
ENDBRANCH   1  16
BRANCH   1  26
ATOM     26  C   UNL A   1     -24.718   1.478  27.181  0.00  0.00    +0.049 C 
BRANCH  26  27
ATOM     27  C   UNL A   1     -25.688   1.614  26.461  0.00  0.00    +0.017 C 
ATOM     28  C   UNL A   1     -26.250   2.920  26.395  0.00  0.00    +0.073 C 
ATOM     29  C   UNL A   1     -27.438   3.091  25.645  0.00  0.00    +0.106 C 
ATOM     30  N   UNL A   1     -28.075   2.089  25.003  0.00  0.00    -0.208 NA
ATOM     31  C   UNL A   1     -27.543   0.849  25.079  0.00  0.00    +0.253 C 
ATOM     32  C   UNL A   1     -26.354   0.576  25.777  0.00  0.00    +0.189 C 
ATOM     33  F   UNL A   1     -25.860  -0.681  25.795  0.00  0.00    -0.200 F 
BRANCH  28  34
ATOM     34  C   UNL A   1     -25.642   4.093  27.123  0.00  0.00    +0.266 C 
ATOM     35  N   UNL A   1     -25.614   5.252  26.449  0.00  0.00    -0.200 NA
ATOM     36  C   UNL A   1     -25.026   6.479  26.963  0.00  0.00    +0.139 C 
ATOM     37  O   UNL A   1     -25.143   3.966  28.243  0.00  0.00    -0.268 OA
ENDBRANCH  28  34
BRANCH  31  38
ATOM     38  O   UNL A   1     -28.193  -0.208  24.477  0.00  0.00    -0.456 OA
BRANCH  38  39
ATOM     39  C   UNL A   1     -29.460   0.005  23.866  0.00  0.00    +0.243 C 
BRANCH  39  40
ATOM     40  C   UNL A   1     -30.065  -1.377  23.573  0.00  0.00    +0.229 C 
ATOM     41  O   UNL A   1     -30.729  -1.878  24.721  0.00  0.00    -0.216 OA
ENDBRANCH  39  40
ENDBRANCH  38  39
ENDBRANCH  31  38
ENDBRANCH  26  27
ENDBRANCH   1  26
TORSDOF 16
