MODEL 3803
MODEL 1
REMARK VINA RESULT:    -3.995      0.000      0.000
REMARK INTER + INTRA:          -4.613
REMARK INTER:                  -4.463
REMARK INTRA:                  -0.151
REMARK UNBOUND:                -0.151
REMARK  Name = No_3803-gen_results/8p0m/2024-11-27-11-27-31/
REMARK  2 active torsions:
REMARK  status: ('A' for Active; 'I' for Inactive)
REMARK    1  A    between atoms: C_1  and  C_2
REMARK    2  A    between atoms: C_5  and  C_6
REMARK                            x       y       z     vdW  Elec       q    Type
REMARK                         _______ _______ _______ _____ _____    ______ ____
ROOT
ATOM      1  C   UNL A   1     -23.709  -1.885  29.571  0.00  0.00    -0.000 C 
ATOM      2  C   UNL A   1     -24.458  -3.116  29.783  0.00  0.00    -0.000 C 
ENDROOT
BRANCH   1   3
ATOM      3  C   UNL A   1     -23.030  -1.542  28.842  0.00  0.00    -0.005 C 
ATOM      4  C   UNL A   1     -22.047  -0.591  29.359  0.00  0.00    -0.026 C 
ATOM      5  C   UNL A   1     -20.928  -0.049  28.556  0.00  0.00    +0.031 C 
ENDBRANCH   1   3
BRANCH   2   6
ATOM      6  C   UNL A   1     -24.222  -4.069  28.813  0.00  0.00    -0.000 C 
ATOM      7  C   UNL A   1     -24.762  -5.294  28.936  0.00  0.00    -0.000 C 
ENDBRANCH   2   6
TORSDOF 2
ENDMDL
ENDMDL
