REMARK  Name = No_3803-gen_results/8p0m/2024-11-27-11-27-31/
REMARK  2 active torsions:
REMARK  status: ('A' for Active; 'I' for Inactive)
REMARK    1  A    between atoms: C_1  and  C_2
REMARK    2  A    between atoms: C_5  and  C_6
REMARK                            x       y       z     vdW  Elec       q    Type
REMARK                         _______ _______ _______ _____ _____    ______ ____
ROOT
ATOM      1  C   UNL A   1     -28.469  -0.785  29.829  0.00  0.00    -0.000 C 
ATOM      2  C   UNL A   1     -28.391   0.104  30.980  0.00  0.00    -0.000 C 
ENDROOT
BRANCH   1   3
ATOM      3  C   UNL A   1     -28.016  -0.814  28.878  0.00  0.00    -0.005 C 
ATOM      4  C   UNL A   1     -27.087   0.290  28.638  0.00  0.00    -0.026 C 
ATOM      5  C   UNL A   1     -26.252   0.411  27.422  0.00  0.00    +0.031 C 
ENDBRANCH   1   3
BRANCH   2   6
ATOM      6  C   UNL A   1     -27.533   1.167  30.787  0.00  0.00    -0.000 C 
ATOM      7  C   UNL A   1     -26.828   1.256  29.645  0.00  0.00    -0.000 C 
ENDBRANCH   2   6
TORSDOF 2
