MODEL 3804
MODEL 1
REMARK VINA RESULT:    -3.489      0.000      0.000
REMARK INTER + INTRA:          -3.489
REMARK INTER:                  -3.489
REMARK INTRA:                   0.000
REMARK UNBOUND:                 0.000
REMARK  Name = No_3804-gen_results/8p0m/2024-11-27-11-27-31/
REMARK  0 active torsions:
REMARK  status: ('A' for Active; 'I' for Inactive)
REMARK                            x       y       z     vdW  Elec       q    Type
REMARK                         _______ _______ _______ _____ _____    ______ ____
ROOT
ATOM      1  F   UNL A   1      -7.902 -10.538  19.518  0.00  0.00    -0.140 F 
ATOM      2  C   UNL A   1      -7.915  -9.712  20.311  0.00  0.00    +0.561 C 
ATOM      3  F   UNL A   1      -7.371 -10.187  21.222  0.00  0.00    -0.140 F 
ATOM      4  F   UNL A   1      -9.211  -9.423  20.637  0.00  0.00    -0.140 F 
ATOM      5  F   UNL A   1      -7.385  -8.542  19.917  0.00  0.00    -0.140 F 
ENDROOT
TORSDOF 0
ENDMDL
ENDMDL
