MODEL 3805
MODEL 1
REMARK VINA RESULT:    -4.286      0.000      0.000
REMARK INTER + INTRA:          -4.286
REMARK INTER:                  -4.286
REMARK INTRA:                   0.000
REMARK UNBOUND:                 0.000
REMARK  Name = No_3805-gen_results/8p0m/2024-11-27-11-27-31/
REMARK  0 active torsions:
REMARK  status: ('A' for Active; 'I' for Inactive)
REMARK                            x       y       z     vdW  Elec       q    Type
REMARK                         _______ _______ _______ _____ _____    ______ ____
ROOT
ATOM      1  C   UNL A   1     -25.415  -2.555  29.721  0.00  0.00    +0.011 A 
ATOM      2  C   UNL A   1     -24.376  -2.883  29.198  0.00  0.00    +0.058 A 
ATOM      3  C   UNL A   1     -24.099  -4.219  28.927  0.00  0.00    +0.011 A 
ATOM      4  C   UNL A   1     -25.025  -5.131  28.999  0.00  0.00    +0.001 A 
ATOM      5  C   UNL A   1     -26.267  -4.785  29.634  0.00  0.00    +0.000 A 
ATOM      6  C   UNL A   1     -26.429  -3.531  29.999  0.00  0.00    +0.001 A 
ATOM      7 CL   UNL A   1     -23.052  -1.779  28.960  0.00  0.00    -0.082 Cl
ENDROOT
TORSDOF 0
ENDMDL
ENDMDL
