REMARK  Name = outputs/IAG933/test6/raw/output_3805_IAG933_linker_design_.xyz
REMARK  15 active torsions:
REMARK  status: ('A' for Active; 'I' for Inactive)
REMARK    1  A    between atoms: C_1  and  C_2
REMARK    2  A    between atoms: C_1  and  C_8
REMARK    3  A    between atoms: C_1  and  C_30
REMARK    4  A    between atoms: C_13  and  C_35
REMARK    5  A    between atoms: C_14  and  C_15
REMARK    6  A    between atoms: C_15  and  O_18
REMARK    7  A    between atoms: O_18  and  C_46
REMARK    8  A    between atoms: C_21  and  O_22
REMARK    9  A    between atoms: O_22  and  C_23
REMARK   10  A    between atoms: C_23  and  C_24
REMARK   11  A    between atoms: C_30  and  C_44
REMARK   12  A    between atoms: C_31  and  C_40
REMARK   13  A    between atoms: C_31  and  C_46
REMARK   14  A    between atoms: N_34  and  C_42
REMARK   15  A    between atoms: C_40  and  C_42
REMARK                            x       y       z     vdW  Elec       q    Type
REMARK                         _______ _______ _______ _____ _____    ______ ____
ROOT
ATOM      1  C   UNL A   1     -25.688   1.614  26.461  0.00  0.00    +0.036 C 
ATOM      2  C   UNL A   1     -26.250   2.920  26.395  0.00  0.00    +0.074 C 
ATOM      3  C   UNL A   1     -27.438   3.091  25.645  0.00  0.00    +0.107 C 
ATOM      4  N   UNL A   1     -28.075   2.089  25.003  0.00  0.00    -0.208 NA
ATOM      5  C   UNL A   1     -27.543   0.849  25.079  0.00  0.00    +0.253 C 
ATOM      6  C   UNL A   1     -26.354   0.576  25.777  0.00  0.00    +0.193 C 
ATOM      7  F   UNL A   1     -25.860  -0.681  25.795  0.00  0.00    -0.199 F 
ENDROOT
BRANCH   1   8
ATOM      8  C   UNL A   1     -24.455   1.212  27.064  0.00  0.00    +0.009 C 
ATOM      9  C   UNL A   1     -21.232   1.489  27.557  0.00  0.00    +0.020 C 
ATOM     10  C   UNL A   1     -22.015   1.872  26.527  0.00  0.00    +0.001 C 
ATOM     11  C   UNL A   1     -21.832   0.667  28.584  0.00  0.00    +0.094 C 
ATOM     12  N   UNL A   1     -23.081   0.375  29.112  0.00  0.00    -0.259 NA
ATOM     13  C   UNL A   1     -23.430   1.680  26.047  0.00  0.00    -0.002 C 
ATOM     14  C   UNL A   1     -24.400   0.515  28.288  0.00  0.00    +0.183 C 
BRANCH  14  16
ATOM     15  O   UNL A   1     -26.453  -0.393  28.583  0.00  0.00    -0.293 OA
ATOM     16  C   UNL A   1     -25.311  -0.236  28.881  0.00  0.00    +0.182 C 
BRANCH  16  17
ATOM     17  C   UNL A   1     -24.855  -1.012  30.143  0.00  0.00    +0.098 C 
BRANCH  17  18
ATOM     18  C   UNL A   1     -24.973  -2.505  29.788  0.00  0.00    -0.014 C 
ATOM     19  C   UNL A   1     -23.906  -3.173  29.146  0.00  0.00    -0.004 C 
ATOM     20  C   UNL A   1     -23.989  -4.549  28.853  0.00  0.00    -0.000 C 
ATOM     21  C   UNL A   1     -25.137  -5.280  29.205  0.00  0.00    -0.000 C 
ATOM     22  C   UNL A   1     -26.232  -4.611  29.784  0.00  0.00    -0.000 C 
ATOM     23  C   UNL A   1     -26.155  -3.232  30.065  0.00  0.00    -0.004 C 
ENDBRANCH  17  18
BRANCH  17  24
ATOM     24  C   UNL A   1     -25.387  -0.679  31.571  0.00  0.00    +0.084 C 
ATOM     25  C   UNL A   1     -25.189   0.773  32.028  0.00  0.00    +0.020 C 
ATOM     26  C   UNL A   1     -25.336   0.684  33.544  0.00  0.00    +0.020 C 
ATOM     27  C   UNL A   1     -24.829  -0.715  33.905  0.00  0.00    +0.089 C 
ATOM     28  N   UNL A   1     -24.758  -1.481  32.646  0.00  0.00    -0.219 NA
ENDBRANCH  17  24
ENDBRANCH  16  17
ENDBRANCH  14  16
ENDBRANCH   1   8
BRANCH   2  29
ATOM     29  C   UNL A   1     -25.642   4.093  27.123  0.00  0.00    +0.222 C 
ATOM     30  N   UNL A   1     -25.614   5.252  26.449  0.00  0.00    -0.236 NA
ATOM     31  C   UNL A   1     -25.026   6.479  26.963  0.00  0.00    +0.155 C 
BRANCH  29  32
ATOM     32  O   UNL A   1     -25.143   3.966  28.243  0.00  0.00    -0.452 OA
BRANCH  32  33
ATOM     33  C   UNL A   1     -25.478   3.243  29.384  0.00  0.00    +0.271 C 
BRANCH  33  34
ATOM     34  C   UNL A   1     -26.547   3.925  29.969  0.00  0.00    +0.196 C 
ATOM     35  O   UNL A   1     -27.686   3.535  30.091  0.00  0.00    -0.292 OA
BRANCH  34  36
ATOM     36  C   UNL A   1     -26.344   5.232  30.450  0.00  0.00    +0.088 C 
BRANCH  36  37
ATOM     37  C   UNL A   1     -26.866   5.462  31.834  0.00  0.00    +0.112 C 
BRANCH  37  40
ATOM     38  C   UNL A   1     -23.927   5.271  33.422  0.00  0.00    +0.314 C 
ATOM     39  C   UNL A   1     -25.952   4.475  33.873  0.00  0.00    +0.247 C 
ATOM     40  N   UNL A   1     -25.777   4.959  32.578  0.00  0.00    -0.133 NA
ATOM     41  O   UNL A   1     -24.944   5.322  34.311  0.00  0.00    -0.306 OA
ATOM     42  O   UNL A   1     -24.555   4.822  32.192  0.00  0.00    -0.247 OA
ENDBRANCH  37  40
ENDBRANCH  36  37
ENDBRANCH  34  36
ENDBRANCH  33  34
ENDBRANCH  32  33
ENDBRANCH  29  32
ENDBRANCH   2  29
BRANCH   5  43
ATOM     43  O   UNL A   1     -28.193  -0.208  24.477  0.00  0.00    -0.456 OA
BRANCH  43  44
ATOM     44  C   UNL A   1     -29.460   0.005  23.866  0.00  0.00    +0.243 C 
BRANCH  44  45
ATOM     45  C   UNL A   1     -30.065  -1.377  23.573  0.00  0.00    +0.229 C 
ATOM     46  O   UNL A   1     -30.729  -1.878  24.721  0.00  0.00    -0.216 OA
ENDBRANCH  44  45
ENDBRANCH  43  44
ENDBRANCH   5  43
TORSDOF 15
