MODEL 3806
MODEL 1
REMARK VINA RESULT:    -5.422      0.000      0.000
REMARK INTER + INTRA:          -6.280
REMARK INTER:                  -6.056
REMARK INTRA:                  -0.224
REMARK UNBOUND:                -0.224
REMARK  Name = No_3806-gen_results/8p0m/2024-11-27-11-27-31/
REMARK  2 active torsions:
REMARK  status: ('A' for Active; 'I' for Inactive)
REMARK    1  A    between atoms: C_2  and  C_7
REMARK    2  A    between atoms: C_7  and  C_8
REMARK                            x       y       z     vdW  Elec       q    Type
REMARK                         _______ _______ _______ _____ _____    ______ ____
ROOT
ATOM      1  C   UNL A   1     -23.844  -3.447  28.820  0.00  0.00    -0.004 A 
ATOM      2  C   UNL A   1     -24.592  -2.711  29.421  0.00  0.00    -0.018 A 
ATOM      3  C   UNL A   1     -25.801  -3.090  29.907  0.00  0.00    -0.004 A 
ATOM      4  C   UNL A   1     -26.217  -4.419  29.702  0.00  0.00    -0.000 A 
ATOM      5  C   UNL A   1     -24.163  -4.843  28.658  0.00  0.00    -0.000 A 
ATOM      6  C   UNL A   1     -25.379  -5.267  29.103  0.00  0.00    -0.000 A 
ENDROOT
BRANCH   2   7
ATOM      7  C   UNL A   1     -24.247  -1.259  29.724  0.00  0.00    +0.052 C 
BRANCH   7   8
ATOM      8  C   UNL A   1     -23.139  -0.694  28.870  0.00  0.00    -0.026 C 
ATOM      9  C   UNL A   1     -21.980  -0.452  29.388  0.00  0.00    -0.030 C 
ATOM     10  C   UNL A   1     -20.959   0.029  28.563  0.00  0.00    +0.030 C 
ENDBRANCH   7   8
ENDBRANCH   2   7
TORSDOF 2
ENDMDL
ENDMDL
