REMARK  Name = No_3807-gen_results/8p0m/2024-11-27-11-27-31/
REMARK  5 active torsions:
REMARK  status: ('A' for Active; 'I' for Inactive)
REMARK    1  A    between atoms: C_2  and  C_7
REMARK    2  A    between atoms: N_9  and  C_10
REMARK    3  A    between atoms: C_13  and  C_14
REMARK    4  A    between atoms: C_20  and  C_22
REMARK    5  A    between atoms: C_26  and  C_28
REMARK                            x       y       z     vdW  Elec       q    Type
REMARK                         _______ _______ _______ _____ _____    ______ ____
ROOT
ATOM      1  C   UNL A   1     -32.109  -1.893  30.667  0.00  0.00    +0.074 A 
ATOM      2  C   UNL A   1     -32.911  -1.246  30.403  0.00  0.00    +0.017 A 
ATOM      3  C   UNL A   1     -34.292  -1.547  30.312  0.00  0.00    +0.001 A 
ATOM      4  C   UNL A   1     -32.393  -3.290  31.080  0.00  0.00    +0.015 A 
ATOM      5  C   UNL A   1     -34.577  -2.829  30.720  0.00  0.00    +0.000 A 
ATOM      6  C   UNL A   1     -33.680  -3.655  31.100  0.00  0.00    +0.001 A 
ENDROOT
BRANCH   4   7
ATOM      7  C   UNL A   1     -31.390  -4.283  31.469  0.00  0.00    +0.001 A 
ATOM      8  C   UNL A   1     -30.760  -4.287  32.580  0.00  0.00    +0.000 A 
ATOM      9  C   UNL A   1     -29.703  -5.230  32.922  0.00  0.00    +0.000 A 
ATOM     10  C   UNL A   1     -29.234  -6.024  31.850  0.00  0.00    +0.000 A 
ATOM     11  C   UNL A   1     -30.800  -5.127  30.458  0.00  0.00    +0.000 A 
ATOM     12  C   UNL A   1     -29.843  -5.936  30.633  0.00  0.00    +0.000 A 
BRANCH  11  13
ATOM     13  C   UNL A   1     -31.408  -4.998  29.047  0.00  0.00    +0.000 A 
ATOM     14  C   UNL A   1     -31.288  -6.141  28.264  0.00  0.00    +0.000 A 
ATOM     15  C   UNL A   1     -31.265  -5.781  26.878  0.00  0.00    +0.000 A 
ATOM     16  C   UNL A   1     -32.471  -5.183  26.521  0.00  0.00    +0.000 A 
ATOM     17  C   UNL A   1     -32.770  -3.952  27.320  0.00  0.00    +0.000 A 
ATOM     18  C   UNL A   1     -32.243  -3.937  28.595  0.00  0.00    +0.000 A 
BRANCH  17  19
ATOM     19  C   UNL A   1     -33.681  -2.999  26.741  0.00  0.00    +0.000 C 
ATOM     20  C   UNL A   1     -34.999  -3.285  26.653  0.00  0.00    +0.000 C 
ENDBRANCH  17  19
ENDBRANCH  11  13
ENDBRANCH   4   7
BRANCH   1  23
ATOM     21  C   UNL A   1     -30.074  -0.836  29.861  0.00  0.00    +0.269 C 
ATOM     22  O   UNL A   1     -30.561  -0.442  28.942  0.00  0.00    -0.268 OA
ATOM     23  N   UNL A   1     -30.704  -1.742  30.773  0.00  0.00    -0.175 NA
BRANCH  21  25
ATOM     24  C   UNL A   1     -28.016  -0.814  28.878  0.00  0.00    +0.005 A 
ATOM     25  C   UNL A   1     -28.469  -0.785  29.829  0.00  0.00    +0.055 A 
ATOM     26  C   UNL A   1     -26.504  -0.778  28.877  0.00  0.00    +0.000 A 
ATOM     27  C   UNL A   1     -25.810  -0.853  30.103  0.00  0.00    +0.000 A 
ATOM     28  C   UNL A   1     -27.991  -0.892  31.226  0.00  0.00    +0.005 A 
ATOM     29  C   UNL A   1     -26.604  -0.868  31.265  0.00  0.00    +0.000 A 
ENDBRANCH  21  25
ENDBRANCH   1  23
TORSDOF 5
