MODEL 3807
MODEL 1
REMARK VINA RESULT:    -8.518      0.000      0.000
REMARK INTER + INTRA:         -12.872
REMARK INTER:                 -11.008
REMARK INTRA:                  -1.863
REMARK UNBOUND:                -1.863
REMARK  Name = No_3807-gen_results/8p0m/2024-11-27-11-27-31/
REMARK  5 active torsions:
REMARK  status: ('A' for Active; 'I' for Inactive)
REMARK    1  A    between atoms: C_2  and  C_7
REMARK    2  A    between atoms: N_9  and  C_10
REMARK    3  A    between atoms: C_13  and  C_14
REMARK    4  A    between atoms: C_20  and  C_22
REMARK    5  A    between atoms: C_26  and  C_28
REMARK                            x       y       z     vdW  Elec       q    Type
REMARK                         _______ _______ _______ _____ _____    ______ ____
ROOT
ATOM      1  C   UNL A   1     -23.329   0.462  27.815  0.00  0.00    +0.074 A 
ATOM      2  C   UNL A   1     -22.377   0.771  28.174  0.00  0.00    +0.017 A 
ATOM      3  C   UNL A   1     -21.457   1.666  27.574  0.00  0.00    +0.001 A 
ATOM      4  C   UNL A   1     -23.876   1.054  26.569  0.00  0.00    +0.015 A 
ATOM      5  C   UNL A   1     -21.960   2.247  26.433  0.00  0.00    +0.000 A 
ATOM      6  C   UNL A   1     -23.114   1.970  25.961  0.00  0.00    +0.001 A 
ENDROOT
BRANCH   4   7
ATOM      7  C   UNL A   1     -25.169   0.724  25.966  0.00  0.00    +0.001 A 
ATOM      8  C   UNL A   1     -25.343  -0.138  25.039  0.00  0.00    +0.000 A 
ATOM      9  C   UNL A   1     -26.620  -0.397  24.387  0.00  0.00    +0.000 A 
ATOM     10  C   UNL A   1     -27.644   0.534  24.677  0.00  0.00    +0.000 A 
ATOM     11  C   UNL A   1     -26.285   1.619  26.151  0.00  0.00    +0.000 A 
ATOM     12  C   UNL A   1     -27.416   1.521  25.590  0.00  0.00    +0.000 A 
BRANCH  11  13
ATOM     13  C   UNL A   1     -26.041   2.796  27.116  0.00  0.00    +0.000 A 
ATOM     14  C   UNL A   1     -25.949   4.037  26.495  0.00  0.00    +0.000 A 
ATOM     15  C   UNL A   1     -25.131   4.914  27.279  0.00  0.00    +0.000 A 
ATOM     16  C   UNL A   1     -25.724   5.136  28.519  0.00  0.00    +0.000 A 
ATOM     17  C   UNL A   1     -25.937   3.874  29.297  0.00  0.00    +0.000 A 
ATOM     18  C   UNL A   1     -26.132   2.740  28.536  0.00  0.00    +0.000 A 
BRANCH  17  19
ATOM     19  C   UNL A   1     -26.064   3.998  30.726  0.00  0.00    +0.000 C 
ATOM     20  C   UNL A   1     -25.474   3.095  31.542  0.00  0.00    +0.000 C 
ENDBRANCH  17  19
ENDBRANCH  11  13
ENDBRANCH   4   7
BRANCH   1  23
ATOM     21  C   UNL A   1     -23.884  -1.661  28.862  0.00  0.00    +0.269 C 
ATOM     22  O   UNL A   1     -22.854  -2.065  28.746  0.00  0.00    -0.268 OA
ATOM     23  N   UNL A   1     -24.327  -0.428  28.285  0.00  0.00    -0.175 NA
BRANCH  21  25
ATOM     24  C   UNL A   1     -25.860  -2.422  29.709  0.00  0.00    +0.005 A 
ATOM     25  C   UNL A   1     -24.988  -2.768  29.228  0.00  0.00    +0.055 A 
ATOM     26  C   UNL A   1     -26.878  -3.486  30.054  0.00  0.00    +0.000 A 
ATOM     27  C   UNL A   1     -26.552  -4.844  29.856  0.00  0.00    +0.000 A 
ATOM     28  C   UNL A   1     -24.400  -4.096  28.944  0.00  0.00    +0.005 A 
ATOM     29  C   UNL A   1     -25.305  -5.101  29.255  0.00  0.00    +0.000 A 
ENDBRANCH  21  25
ENDBRANCH   1  23
TORSDOF 5
ENDMDL
ENDMDL
