MODEL 3808
MODEL 1
REMARK VINA RESULT:    -6.277      0.000      0.000
REMARK INTER + INTRA:          -6.864
REMARK INTER:                  -6.644
REMARK INTRA:                  -0.221
REMARK UNBOUND:                -0.221
REMARK  Name = No_3808-gen_results/8p0m/2024-11-27-11-27-31/
REMARK  1 active torsions:
REMARK  status: ('A' for Active; 'I' for Inactive)
REMARK    1  A    between atoms: C_3  and  C_5
REMARK                            x       y       z     vdW  Elec       q    Type
REMARK                         _______ _______ _______ _____ _____    ______ ____
ROOT
ATOM      1  O   UNL A   1     -25.349  -0.671  27.167  0.00  0.00    -0.273 OA
ATOM      2  C   UNL A   1     -24.588  -0.627  28.140  0.00  0.00    +0.245 C 
ATOM      3  C   UNL A   1     -24.287  -1.198  28.954  0.00  0.00    +0.100 C 
ATOM      4  N   UNL A   1     -24.070   0.893  28.327  0.00  0.00    -0.205 NA
ATOM      5  C   UNL A   1     -23.446   1.309  29.381  0.00  0.00    +0.115 C 
ATOM      6  C   UNL A   1     -23.097   0.486  30.342  0.00  0.00    +0.024 C 
ATOM      7  C   UNL A   1     -23.446  -0.785  30.294  0.00  0.00    +0.015 C 
ENDROOT
BRANCH   3   8
ATOM      8  C   UNL A   1     -24.459  -2.631  29.007  0.00  0.00    -0.018 A 
ATOM      9  C   UNL A   1     -23.812  -3.384  28.635  0.00  0.00    -0.004 A 
ATOM     10  C   UNL A   1     -24.130  -4.888  28.604  0.00  0.00    -0.000 A 
ATOM     11  C   UNL A   1     -25.331  -5.268  29.194  0.00  0.00    -0.000 A 
ATOM     12  C   UNL A   1     -26.200  -4.325  29.715  0.00  0.00    -0.005 A 
ATOM     13  C   UNL A   1     -25.846  -3.016  29.717  0.00  0.00    -0.025 A 
ATOM     14  C   UNL A   1     -26.646  -2.087  30.402  0.00  0.00    +0.031 C 
ENDBRANCH   3   8
TORSDOF 1
ENDMDL
ENDMDL
