REMARK  Name = outputs/IAG933/test6/raw/output_3808_IAG933_linker_design_.xyz
REMARK  11 active torsions:
REMARK  status: ('A' for Active; 'I' for Inactive)
REMARK    1  A    between atoms: C_1  and  C_2
REMARK    2  A    between atoms: C_1  and  C_8
REMARK    3  A    between atoms: C_1  and  C_33
REMARK    4  A    between atoms: C_13  and  C_30
REMARK    5  A    between atoms: C_14  and  C_15
REMARK    6  A    between atoms: C_21  and  O_22
REMARK    7  A    between atoms: O_22  and  C_23
REMARK    8  A    between atoms: C_23  and  C_24
REMARK    9  A    between atoms: N_29  and  C_32
REMARK   10  A    between atoms: C_31  and  C_33
REMARK   11  A    between atoms: C_32  and  C_44
REMARK                            x       y       z     vdW  Elec       q    Type
REMARK                         _______ _______ _______ _____ _____    ______ ____
ROOT
ATOM      1  C   UNL A   1     -23.838   1.420  28.858  0.00  0.00    +0.269 C 
ATOM      2  O   UNL A   1     -23.217   1.650  29.899  0.00  0.00    -0.268 OA
ENDROOT
BRANCH   1   8
ATOM      3  C   UNL A   1     -24.164   1.605  26.410  0.00  0.00    +0.024 C 
ATOM      4  F   UNL A   1     -23.757   1.497  23.979  0.00  0.00    -0.197 F 
ATOM      5  C   UNL A   1     -22.024   1.538  27.258  0.00  0.00    +0.042 C 
ATOM      6  C   UNL A   1     -23.371   1.606  25.292  0.00  0.00    +0.166 C 
ATOM      7  S   UNL A   1     -21.775   1.670  25.592  0.00  0.00    -0.057 S 
ATOM      8  C   UNL A   1     -23.351   1.554  27.581  0.00  0.00    +0.061 C 
BRANCH   3   9
ATOM      9  C   UNL A   1     -25.688   1.614  26.461  0.00  0.00    +0.095 C 
ATOM     10  C   UNL A   1     -26.250   2.920  26.395  0.00  0.00    +0.059 C 
ATOM     11  C   UNL A   1     -27.438   3.091  25.645  0.00  0.00    +0.102 C 
ATOM     12  N   UNL A   1     -28.075   2.089  25.003  0.00  0.00    -0.212 NA
ATOM     13  C   UNL A   1     -27.543   0.849  25.079  0.00  0.00    +0.234 C 
ATOM     14  C   UNL A   1     -26.354   0.576  25.777  0.00  0.00    +0.244 C 
ATOM     15  F   UNL A   1     -25.860  -0.681  25.795  0.00  0.00    -0.227 F 
BRANCH  10  16
ATOM     16  C   UNL A   1     -25.642   4.093  27.123  0.00  0.00    +0.263 C 
ATOM     17  N   UNL A   1     -25.614   5.252  26.449  0.00  0.00    -0.200 NA
ATOM     18  C   UNL A   1     -25.026   6.479  26.963  0.00  0.00    +0.139 C 
ATOM     19  O   UNL A   1     -25.143   3.966  28.243  0.00  0.00    -0.269 OA
ENDBRANCH  10  16
BRANCH  13  20
ATOM     20  O   UNL A   1     -28.193  -0.208  24.477  0.00  0.00    -0.459 OA
BRANCH  20  21
ATOM     21  C   UNL A   1     -29.460   0.005  23.866  0.00  0.00    +0.242 C 
BRANCH  21  22
ATOM     22  C   UNL A   1     -30.065  -1.377  23.573  0.00  0.00    +0.229 C 
ATOM     23  O   UNL A   1     -30.729  -1.878  24.721  0.00  0.00    -0.216 OA
ENDBRANCH  21  22
ENDBRANCH  20  21
ENDBRANCH  13  20
ENDBRANCH   3   9
ENDBRANCH   1   8
BRANCH   1  24
ATOM     24  N   UNL A   1     -25.063   1.115  28.893  0.00  0.00    -0.175 NA
ATOM     25  C   UNL A   1     -25.714  -0.106  29.353  0.00  0.00    +0.110 C 
BRANCH  25  27
ATOM     26  N   UNL A   1     -28.007   0.741  28.735  0.00  0.00    -0.275 N 
ATOM     27  C   UNL A   1     -27.202  -0.291  29.166  0.00  0.00    +0.261 C 
ATOM     28  C   UNL A   1     -29.756   2.382  28.879  0.00  0.00    +0.023 C 
ATOM     29  C   UNL A   1     -28.215   2.168  29.104  0.00  0.00    +0.094 C 
ATOM     30  C   UNL A   1     -30.136   1.314  27.890  0.00  0.00    +0.023 C 
ATOM     31  O   UNL A   1     -27.718  -1.389  29.296  0.00  0.00    -0.269 OA
ATOM     32  C   UNL A   1     -28.970   0.377  27.678  0.00  0.00    +0.094 C 
ENDBRANCH  25  27
BRANCH  25  33
ATOM     33  C   UNL A   1     -24.855  -1.012  30.143  0.00  0.00    +0.081 C 
BRANCH  33  34
ATOM     34  C   UNL A   1     -24.973  -2.505  29.788  0.00  0.00    -0.016 C 
ATOM     35  C   UNL A   1     -23.906  -3.173  29.146  0.00  0.00    -0.004 C 
ATOM     36  C   UNL A   1     -23.989  -4.549  28.853  0.00  0.00    -0.000 C 
ATOM     37  C   UNL A   1     -25.137  -5.280  29.205  0.00  0.00    -0.000 C 
ATOM     38  C   UNL A   1     -26.232  -4.611  29.784  0.00  0.00    -0.000 C 
ATOM     39  C   UNL A   1     -26.155  -3.232  30.065  0.00  0.00    -0.004 C 
ENDBRANCH  33  34
BRANCH  33  40
ATOM     40  C   UNL A   1     -25.387  -0.679  31.571  0.00  0.00    +0.082 C 
ATOM     41  C   UNL A   1     -25.189   0.773  32.028  0.00  0.00    +0.020 C 
ATOM     42  C   UNL A   1     -25.336   0.684  33.544  0.00  0.00    +0.020 C 
ATOM     43  C   UNL A   1     -24.829  -0.715  33.905  0.00  0.00    +0.089 C 
ATOM     44  N   UNL A   1     -24.758  -1.481  32.646  0.00  0.00    -0.219 NA
ENDBRANCH  33  40
ENDBRANCH  25  33
ENDBRANCH   1  24
TORSDOF 11
