MODEL 3809
MODEL 1
REMARK VINA RESULT:    -7.569      0.000      0.000
REMARK INTER + INTRA:         -10.388
REMARK INTER:                  -9.339
REMARK INTRA:                  -1.049
REMARK UNBOUND:                -1.049
REMARK  Name = No_3809-gen_results/8p0m/2024-11-27-11-27-31/
REMARK  4 active torsions:
REMARK  status: ('A' for Active; 'I' for Inactive)
REMARK    1  A    between atoms: C_1  and  C_2
REMARK    2  A    between atoms: C_5  and  C_18
REMARK    3  A    between atoms: C_8  and  C_9
REMARK    4  A    between atoms: C_11  and  C_12
REMARK                            x       y       z     vdW  Elec       q    Type
REMARK                         _______ _______ _______ _____ _____    ______ ____
ROOT
ATOM      1  C   UNL A   1      -8.962   0.137  35.348  0.00  0.00    +0.000 A 
ATOM      2  C   UNL A   1      -9.183  -0.379  36.491  0.00  0.00    +0.000 A 
ATOM      3  C   UNL A   1     -10.600  -0.364  36.825  0.00  0.00    +0.000 A 
ATOM      4  C   UNL A   1     -11.083   0.897  36.506  0.00  0.00    +0.000 A 
ATOM      5  C   UNL A   1     -10.850   1.525  35.162  0.00  0.00    +0.000 A 
ATOM      6  C   UNL A   1      -9.617   1.227  34.698  0.00  0.00    +0.000 A 
ENDROOT
BRANCH   3   7
ATOM      7  C   UNL A   1     -10.976  -0.889  38.121  0.00  0.00    +0.000 A 
ATOM      8  C   UNL A   1     -10.279  -0.548  39.060  0.00  0.00    +0.000 A 
ATOM      9  C   UNL A   1     -10.510  -1.175  40.375  0.00  0.00    +0.000 A 
ATOM     10  C   UNL A   1     -11.463  -2.210  40.481  0.00  0.00    +0.000 A 
ATOM     11  C   UNL A   1     -12.133  -2.607  39.347  0.00  0.00    +0.000 A 
ATOM     12  C   UNL A   1     -11.836  -1.989  38.125  0.00  0.00    +0.000 A 
ENDBRANCH   3   7
BRANCH   1  14
ATOM     13  C   UNL A   1      -6.835  -1.247  34.924  0.00  0.00    +0.000 C 
ATOM     14  C   UNL A   1      -7.581   0.061  34.840  0.00  0.00    +0.000 C 
BRANCH  13  15
ATOM     15  C   UNL A   1      -5.675  -1.194  34.588  0.00  0.00    +0.000 A 
ATOM     16  C   UNL A   1      -4.945  -2.294  34.182  0.00  0.00    +0.000 A 
ATOM     17  C   UNL A   1      -3.534  -2.296  33.844  0.00  0.00    +0.005 A 
ATOM     18  C   UNL A   1      -2.817  -1.081  33.915  0.00  0.00    +0.059 A 
ATOM     19  C   UNL A   1      -3.563   0.072  34.350  0.00  0.00    +0.005 A 
ATOM     20  C   UNL A   1      -4.892   0.042  34.701  0.00  0.00    +0.000 A 
BRANCH  18  21
ATOM     21  C   UNL A   1      -1.424  -0.977  33.599  0.00  0.00    +0.297 C 
ATOM     22  N   UNL A   1      -1.006  -0.493  32.478  0.00  0.00    -0.102 NA
ATOM     23  O   UNL A   1      -0.548  -1.741  34.211  0.00  0.00    -0.264 OA
ENDBRANCH  18  21
ENDBRANCH  13  15
ENDBRANCH   1  14
TORSDOF 4
ENDMDL
ENDMDL
