REMARK  Name = outputs/IAG933/test6/raw/output_3809_IAG933_linker_design_.xyz
REMARK  11 active torsions:
REMARK  status: ('A' for Active; 'I' for Inactive)
REMARK    1  A    between atoms: C_1  and  C_2
REMARK    2  A    between atoms: C_1  and  C_8
REMARK    3  A    between atoms: C_1  and  N_42
REMARK    4  A    between atoms: C_13  and  C_32
REMARK    5  A    between atoms: C_14  and  C_15
REMARK    6  A    between atoms: C_21  and  O_22
REMARK    7  A    between atoms: O_22  and  C_23
REMARK    8  A    between atoms: C_23  and  C_24
REMARK    9  A    between atoms: C_30  and  N_42
REMARK   10  A    between atoms: CA_33  and  N_37
REMARK   11  A    between atoms: CA_33  and  C_41
REMARK                            x       y       z     vdW  Elec       q    Type
REMARK                         _______ _______ _______ _____ _____    ______ ____
ROOT
ATOM      1  O   UNK     1     -23.517   1.601  26.064  0.00  0.00    -0.445 OA
ATOM      2  C   UNK     1     -24.290   0.662  28.297  0.00  0.00    +0.079 C 
ATOM      3  F   UNK     1     -20.794   1.923  28.036  0.00  0.00    -0.198 F 
ATOM      4  C   UNK     1     -24.468   1.226  26.991  0.00  0.00    +0.229 C 
ATOM      5  C   UNK     1     -22.936   0.837  28.681  0.00  0.00    +0.050 C 
ATOM      6  F   UNK     1     -21.269   1.837  25.604  0.00  0.00    -0.161 F 
ATOM      7  C   UNK     1     -21.993   1.417  27.798  0.00  0.00    +0.204 C 
ATOM      8  C   UNK     1     -22.249   1.609  26.502  0.00  0.00    +0.312 C 
ENDROOT
BRANCH   4   9
ATOM      9  C   UNK     1     -25.688   1.614  26.461  0.00  0.00    +0.061 C 
ATOM     10  C   UNK     1     -26.250   2.920  26.395  0.00  0.00    +0.076 C 
ATOM     11  C   UNK     1     -27.438   3.091  25.645  0.00  0.00    +0.106 C 
ATOM     12  N   UNK     1     -28.075   2.089  25.003  0.00  0.00    -0.208 NA
ATOM     13  C   UNK     1     -27.543   0.849  25.079  0.00  0.00    +0.253 C 
ATOM     14  C   UNK     1     -26.354   0.576  25.777  0.00  0.00    +0.193 C 
ATOM     15  F   UNK     1     -25.860  -0.681  25.795  0.00  0.00    -0.199 F 
BRANCH  10  16
ATOM     16  C   UNK     1     -25.642   4.093  27.123  0.00  0.00    +0.266 C 
ATOM     17  N   UNK     1     -25.614   5.252  26.449  0.00  0.00    -0.200 NA
ATOM     18  C   UNK     1     -25.026   6.479  26.963  0.00  0.00    +0.139 C 
ATOM     19  O   UNK     1     -25.143   3.966  28.243  0.00  0.00    -0.268 OA
ENDBRANCH  10  16
BRANCH  13  20
ATOM     20  O   UNK     1     -28.193  -0.208  24.477  0.00  0.00    -0.456 OA
BRANCH  20  21
ATOM     21  C   UNK     1     -29.460   0.005  23.866  0.00  0.00    +0.243 C 
BRANCH  21  22
ATOM     22  C   UNK     1     -30.065  -1.377  23.573  0.00  0.00    +0.229 C 
ATOM     23  O   UNK     1     -30.729  -1.878  24.721  0.00  0.00    -0.216 OA
ENDBRANCH  21  22
ENDBRANCH  20  21
ENDBRANCH  13  20
ENDBRANCH   4   9
BRANCH   2  26
ATOM     24  C   UNK     1     -26.760   0.346  29.207  0.00  0.00    +0.328 C 
ATOM     25  N   ALA A   1     -27.744  -0.675  29.381  0.00  0.00    -0.178 NA
ATOM     26  N   UNK     1     -25.310   0.014  29.138  0.00  0.00    -0.238 N 
ATOM     27  O   UNK     1     -27.102   1.511  29.105  0.00  0.00    -0.250 OA
BRANCH  25  29
ATOM     28  CB  ALA A   1     -30.181   0.313  28.283  0.00  0.00    +0.036 C 
ATOM     29  CA  ALA A   1     -29.184  -0.590  29.089  0.00  0.00    +0.199 C 
BRANCH  29  31
ATOM     30  OXT ALA A   1     -30.956  -1.209  30.590  0.00  0.00    -0.244 OA
ATOM     31  C   ALA A   1     -29.961  -1.639  29.956  0.00  0.00    +0.384 C 
ATOM     32  O   ALA A   1     -29.535  -2.857  30.032  0.00  0.00    -0.244 OA
ENDBRANCH  29  31
ENDBRANCH  25  29
BRANCH  26  33
ATOM     33  C   UNK     1     -24.855  -1.012  30.143  0.00  0.00    +0.119 C 
BRANCH  33  34
ATOM     34  C   UNK     1     -24.973  -2.505  29.788  0.00  0.00    -0.003 C 
ATOM     35  C   UNK     1     -23.906  -3.173  29.146  0.00  0.00    -0.003 C 
ATOM     36  C   UNK     1     -23.989  -4.549  28.853  0.00  0.00    -0.000 C 
ATOM     37  C   UNK     1     -25.137  -5.280  29.205  0.00  0.00    -0.000 C 
ATOM     38  C   UNK     1     -26.232  -4.611  29.784  0.00  0.00    -0.000 C 
ATOM     39  C   UNK     1     -26.155  -3.232  30.065  0.00  0.00    -0.003 C 
ENDBRANCH  33  34
BRANCH  33  40
ATOM     40  C   UNK     1     -25.387  -0.679  31.571  0.00  0.00    +0.096 C 
ATOM     41  C   UNK     1     -25.189   0.773  32.028  0.00  0.00    +0.021 C 
ATOM     42  C   UNK     1     -25.336   0.684  33.544  0.00  0.00    +0.020 C 
ATOM     43  C   UNK     1     -24.829  -0.715  33.905  0.00  0.00    +0.089 C 
ATOM     44  N   UNK     1     -24.758  -1.481  32.646  0.00  0.00    -0.217 NA
ENDBRANCH  33  40
ENDBRANCH  26  33
ENDBRANCH   2  26
TORSDOF 11
