MODEL 380
MODEL 1
REMARK VINA RESULT:    -6.940      0.000      0.000
REMARK INTER + INTRA:          -8.776
REMARK INTER:                  -8.158
REMARK INTRA:                  -0.618
REMARK UNBOUND:                -0.618
REMARK  Name = No_380-gen_results/8p0m/2024-11-27-11-27-31/
REMARK  3 active torsions:
REMARK  status: ('A' for Active; 'I' for Inactive)
REMARK    1  A    between atoms: C_1  and  C_2
REMARK    2  A    between atoms: C_1  and  C_8
REMARK    3  A    between atoms: C_8  and  C_9
REMARK                            x       y       z     vdW  Elec       q    Type
REMARK                         _______ _______ _______ _____ _____    ______ ____
ROOT
ATOM      1  C   UNL A   1     -24.203  -0.636  28.928  0.00  0.00    +0.031 C 
ENDROOT
BRANCH   1   2
ATOM      2  C   UNL A   1     -23.819   0.105  28.053  0.00  0.00    -0.022 A 
ATOM      3  C   UNL A   1     -24.542   0.367  26.890  0.00  0.00    -0.004 A 
ATOM      4  C   UNL A   1     -24.146   1.244  25.771  0.00  0.00    -0.000 A 
ATOM      5  C   UNL A   1     -22.997   2.060  25.999  0.00  0.00    -0.000 A 
ATOM      6  C   UNL A   1     -22.265   1.863  27.174  0.00  0.00    -0.000 A 
ATOM      7  C   UNL A   1     -22.630   0.984  28.134  0.00  0.00    -0.004 A 
ENDBRANCH   1   2
BRANCH   1   8
ATOM      8  C   UNL A   1     -23.581  -1.986  28.916  0.00  0.00    +0.031 C 
BRANCH   8   9
ATOM      9  C   UNL A   1     -24.186  -2.829  29.012  0.00  0.00    -0.022 A 
ATOM     10  C   UNL A   1     -25.539  -2.573  29.711  0.00  0.00    -0.004 A 
ATOM     11  C   UNL A   1     -26.507  -3.611  29.924  0.00  0.00    -0.000 A 
ATOM     12  C   UNL A   1     -26.061  -4.891  29.541  0.00  0.00    -0.000 A 
ATOM     13  C   UNL A   1     -24.876  -5.168  28.945  0.00  0.00    -0.000 A 
ATOM     14  C   UNL A   1     -24.005  -4.171  28.695  0.00  0.00    -0.004 A 
ENDBRANCH   8   9
ENDBRANCH   1   8
TORSDOF 3
ENDMDL
ENDMDL
