REMARK  Name = No_3810-gen_results/8p0m/2024-11-27-11-27-31/
REMARK  5 active torsions:
REMARK  status: ('A' for Active; 'I' for Inactive)
REMARK    1  A    between atoms: C_2  and  C_3
REMARK    2  A    between atoms: C_3  and  C_4
REMARK    3  A    between atoms: C_4  and  C_5
REMARK    4  A    between atoms: C_5  and  C_6
REMARK    5  A    between atoms: C_6  and  C_8
REMARK                            x       y       z     vdW  Elec       q    Type
REMARK                         _______ _______ _______ _____ _____    ______ ____
ROOT
ATOM      1  C   UNL A   1     -24.858   1.342  27.601  0.00  0.00    +0.044 C 
ENDROOT
BRANCH   1   2
ATOM      2  C   UNL A   1     -23.569   2.111  27.321  0.00  0.00    +0.225 C 
ATOM      3  F   UNL A   1     -23.709   2.776  26.325  0.00  0.00    -0.229 F 
BRANCH   2   4
ATOM      4  C   UNL A   1     -22.304   1.881  27.834  0.00  0.00    +0.242 C 
ATOM      5  O   UNL A   1     -21.269   2.320  27.472  0.00  0.00    -0.285 OA
ENDBRANCH   2   4
ENDBRANCH   1   2
BRANCH   1   6
ATOM      6  C   UNL A   1     -25.821   1.491  27.116  0.00  0.00    +0.008 C 
BRANCH   6   7
ATOM      7  C   UNL A   1     -26.972   0.714  27.506  0.00  0.00    +0.026 C 
BRANCH   7   9
ATOM      8  C   UNL A   1     -28.016  -0.814  28.878  0.00  0.00    -0.005 C 
ATOM      9  C   UNL A   1     -27.064  -0.119  28.608  0.00  0.00    -0.026 C 
ENDBRANCH   7   9
ENDBRANCH   6   7
ENDBRANCH   1   6
TORSDOF 5
