MODEL 3811
MODEL 1
REMARK VINA RESULT:    -6.206      0.000      0.000
REMARK INTER + INTRA:          -7.264
REMARK INTER:                  -6.932
REMARK INTRA:                  -0.332
REMARK UNBOUND:                -0.332
REMARK  Name = No_3811-gen_results/8p0m/2024-11-27-11-27-31/
REMARK  2 active torsions:
REMARK  status: ('A' for Active; 'I' for Inactive)
REMARK    1  A    between atoms: C_2  and  O_7
REMARK    2  A    between atoms: O_7  and  C_8
REMARK                            x       y       z     vdW  Elec       q    Type
REMARK                         _______ _______ _______ _____ _____    ______ ____
ROOT
ATOM      1  O   UNL A   1     -24.469  -1.144  29.642  0.00  0.00    -0.454 OA
ENDROOT
BRANCH   1   3
ATOM      2  C   UNL A   1     -24.706  -0.158  27.603  0.00  0.00    +0.037 A 
ATOM      3  C   UNL A   1     -24.044  -0.306  28.605  0.00  0.00    +0.145 A 
ATOM      4  C   UNL A   1     -22.862   0.322  28.832  0.00  0.00    +0.037 A 
ATOM      5  C   UNL A   1     -22.370   1.198  27.847  0.00  0.00    +0.003 A 
ATOM      6  C   UNL A   1     -24.311   0.795  26.597  0.00  0.00    +0.003 A 
ATOM      7  C   UNL A   1     -23.116   1.429  26.764  0.00  0.00    +0.000 A 
ENDBRANCH   1   3
BRANCH   1   8
ATOM      8  C   UNL A   1     -24.497  -2.527  29.370  0.00  0.00    +0.145 A 
ATOM      9  C   UNL A   1     -23.888  -3.310  28.758  0.00  0.00    +0.037 A 
ATOM     10  C   UNL A   1     -25.841  -3.138  29.845  0.00  0.00    +0.037 A 
ATOM     11  C   UNL A   1     -24.005  -4.645  28.553  0.00  0.00    +0.003 A 
ATOM     12  C   UNL A   1     -26.125  -4.413  29.644  0.00  0.00    +0.003 A 
ATOM     13  C   UNL A   1     -25.190  -5.219  29.022  0.00  0.00    +0.000 A 
ENDBRANCH   1   8
TORSDOF 2
ENDMDL
ENDMDL
