REMARK  Name = outputs/IAG933/test6/raw/output_3812_IAG933_linker_design_.xyz
REMARK  12 active torsions:
REMARK  status: ('A' for Active; 'I' for Inactive)
REMARK    1  A    between atoms: C_1  and  C_2
REMARK    2  A    between atoms: C_1  and  C_8
REMARK    3  A    between atoms: C_1  and  C_28
REMARK    4  A    between atoms: C_13  and  C_34
REMARK    5  A    between atoms: C_14  and  C_15
REMARK    6  A    between atoms: C_21  and  O_22
REMARK    7  A    between atoms: O_22  and  C_23
REMARK    8  A    between atoms: C_23  and  C_24
REMARK    9  A    between atoms: C_28  and  C_33
REMARK   10  A    between atoms: C_28  and  C_36
REMARK   11  A    between atoms: C_29  and  O_39
REMARK   12  A    between atoms: C_35  and  N_38
REMARK                            x       y       z     vdW  Elec       q    Type
REMARK                         _______ _______ _______ _____ _____    ______ ____
ROOT
ATOM      1  C   UNL A   1     -23.461   1.119  27.457  0.00  0.00    +0.134 C 
ATOM      2  N   UNL A   1     -22.571  -0.136  29.228  0.00  0.00    -0.122 NA
ATOM      3  C   UNL A   1     -23.892   0.469  28.436  0.00  0.00    +0.156 C 
ATOM      4  C   UNL A   1     -24.655   1.227  27.405  0.00  0.00    +0.035 C 
ENDROOT
BRANCH   4   5
ATOM      5  C   UNL A   1     -25.688   1.614  26.461  0.00  0.00    +0.038 C 
ATOM      6  C   UNL A   1     -26.250   2.920  26.395  0.00  0.00    +0.076 C 
ATOM      7  C   UNL A   1     -27.438   3.091  25.645  0.00  0.00    +0.107 C 
ATOM      8  N   UNL A   1     -28.075   2.089  25.003  0.00  0.00    -0.208 NA
ATOM      9  C   UNL A   1     -27.543   0.849  25.079  0.00  0.00    +0.253 C 
ATOM     10  C   UNL A   1     -26.354   0.576  25.777  0.00  0.00    +0.193 C 
ATOM     11  F   UNL A   1     -25.860  -0.681  25.795  0.00  0.00    -0.199 F 
BRANCH   6  12
ATOM     12  C   UNL A   1     -25.642   4.093  27.123  0.00  0.00    +0.266 C 
ATOM     13  N   UNL A   1     -25.614   5.252  26.449  0.00  0.00    -0.200 NA
ATOM     14  C   UNL A   1     -25.026   6.479  26.963  0.00  0.00    +0.139 C 
ATOM     15  O   UNL A   1     -25.143   3.966  28.243  0.00  0.00    -0.268 OA
ENDBRANCH   6  12
BRANCH   9  16
ATOM     16  O   UNL A   1     -28.193  -0.208  24.477  0.00  0.00    -0.456 OA
BRANCH  16  17
ATOM     17  C   UNL A   1     -29.460   0.005  23.866  0.00  0.00    +0.243 C 
BRANCH  17  18
ATOM     18  C   UNL A   1     -30.065  -1.377  23.573  0.00  0.00    +0.229 C 
ATOM     19  O   UNL A   1     -30.729  -1.878  24.721  0.00  0.00    -0.216 OA
ENDBRANCH  17  18
ENDBRANCH  16  17
ENDBRANCH   9  16
ENDBRANCH   4   5
BRANCH   1  21
ATOM     20  C   UNL A   1     -21.277   1.800  27.092  0.00  0.00    +0.252 C 
ATOM     21  O   UNL A   1     -22.602   1.526  26.548  0.00  0.00    -0.474 OA
ENDBRANCH   1  21
BRANCH   3  22
ATOM     22  C   UNL A   1     -25.212  -0.038  29.068  0.00  0.00    +0.111 C 
BRANCH  22  23
ATOM     23  C   UNL A   1     -26.727   0.222  28.857  0.00  0.00    +0.243 C 
ATOM     24  O   UNL A   1     -27.460  -0.575  28.346  0.00  0.00    -0.273 OA
ATOM     25  N   UNL A   1     -27.200   1.497  29.192  0.00  0.00    -0.207 NA
BRANCH  25  27
ATOM     26  C   UNL A   1     -29.016   3.306  29.598  0.00  0.00    +0.023 C 
ATOM     27  C   UNL A   1     -28.476   1.943  29.779  0.00  0.00    +0.095 C 
ATOM     28  C   UNL A   1     -29.398   2.253  28.613  0.00  0.00    +0.023 C 
ENDBRANCH  25  27
ENDBRANCH  22  23
BRANCH  22  29
ATOM     29  C   UNL A   1     -24.855  -1.012  30.143  0.00  0.00    +0.049 C 
BRANCH  29  30
ATOM     30  C   UNL A   1     -24.973  -2.505  29.788  0.00  0.00    -0.021 C 
ATOM     31  C   UNL A   1     -23.906  -3.173  29.146  0.00  0.00    -0.004 C 
ATOM     32  C   UNL A   1     -23.989  -4.549  28.853  0.00  0.00    -0.000 C 
ATOM     33  C   UNL A   1     -25.137  -5.280  29.205  0.00  0.00    -0.000 C 
ATOM     34  C   UNL A   1     -26.232  -4.611  29.784  0.00  0.00    -0.000 C 
ATOM     35  C   UNL A   1     -26.155  -3.232  30.065  0.00  0.00    -0.004 C 
ENDBRANCH  29  30
BRANCH  29  36
ATOM     36  C   UNL A   1     -25.387  -0.679  31.571  0.00  0.00    +0.077 C 
ATOM     37  C   UNL A   1     -25.189   0.773  32.028  0.00  0.00    +0.019 C 
ATOM     38  C   UNL A   1     -25.336   0.684  33.544  0.00  0.00    +0.020 C 
ATOM     39  C   UNL A   1     -24.829  -0.715  33.905  0.00  0.00    +0.089 C 
ATOM     40  N   UNL A   1     -24.758  -1.481  32.646  0.00  0.00    -0.219 NA
ENDBRANCH  29  36
ENDBRANCH  22  29
ENDBRANCH   3  22
TORSDOF 12
