MODEL 3812
MODEL 1
REMARK VINA RESULT:    -6.667      0.000      0.000
REMARK INTER + INTRA:          -7.397
REMARK INTER:                  -7.057
REMARK INTRA:                  -0.340
REMARK UNBOUND:                -0.340
REMARK  Name = No_3812-gen_results/8p0m/2024-11-27-11-27-31/
REMARK  1 active torsions:
REMARK  status: ('A' for Active; 'I' for Inactive)
REMARK    1  A    between atoms: C_3  and  C_8
REMARK                            x       y       z     vdW  Elec       q    Type
REMARK                         _______ _______ _______ _____ _____    ______ ____
ROOT
ATOM      1  C   UNL A   1     -23.922   0.866  27.666  0.00  0.00    +0.030 A 
ATOM      2  C   UNL A   1     -24.523  -0.174  27.811  0.00  0.00    +0.002 A 
ATOM      3  C   UNL A   1     -23.955  -1.242  28.497  0.00  0.00    +0.000 A 
ATOM      4  C   UNL A   1     -22.614  -1.159  29.016  0.00  0.00    +0.002 A 
ATOM      5  C   UNL A   1     -21.983   0.070  28.783  0.00  0.00    +0.030 A 
ATOM      6  C   UNL A   1     -22.558   1.043  28.114  0.00  0.00    +0.140 A 
ATOM      7  F   UNL A   1     -21.900   2.172  27.933  0.00  0.00    -0.204 F 
ENDROOT
BRANCH   3   8
ATOM      8  C   UNL A   1     -24.609  -2.580  28.741  0.00  0.00    +0.000 A 
ATOM      9  C   UNL A   1     -24.006  -3.715  28.629  0.00  0.00    +0.000 A 
ATOM     10  C   UNL A   1     -24.682  -4.959  28.968  0.00  0.00    +0.000 A 
ATOM     11  C   UNL A   1     -25.898  -4.891  29.675  0.00  0.00    +0.000 A 
ATOM     12  C   UNL A   1     -25.889  -2.559  29.429  0.00  0.00    +0.000 A 
ATOM     13  C   UNL A   1     -26.504  -3.745  29.804  0.00  0.00    +0.000 A 
ENDBRANCH   3   8
TORSDOF 1
ENDMDL
ENDMDL
