MODEL 3813
MODEL 1
REMARK VINA RESULT:    -4.258      0.000      0.000
REMARK INTER + INTRA:          -4.258
REMARK INTER:                  -4.258
REMARK INTRA:                   0.000
REMARK UNBOUND:                 0.000
REMARK  Name = No_3813-gen_results/8p0m/2024-11-27-11-27-31/
REMARK  0 active torsions:
REMARK  status: ('A' for Active; 'I' for Inactive)
REMARK                            x       y       z     vdW  Elec       q    Type
REMARK                         _______ _______ _______ _____ _____    ______ ____
ROOT
ATOM      1  C   UNL A   1     -26.061  -4.833  29.650  0.00  0.00    +0.000 A 
ATOM      2  C   UNL A   1     -26.219  -3.635  29.711  0.00  0.00    +0.000 A 
ATOM      3  C   UNL A   1     -25.262  -2.717  29.323  0.00  0.00    +0.000 A 
ATOM      4  C   UNL A   1     -24.040  -3.213  28.788  0.00  0.00    +0.000 A 
ATOM      5  C   UNL A   1     -23.979  -4.549  28.583  0.00  0.00    +0.000 A 
ATOM      6  C   UNL A   1     -24.962  -5.350  28.948  0.00  0.00    +0.000 A 
ENDROOT
TORSDOF 0
ENDMDL
ENDMDL
