REMARK  Name = outputs/IAG933/test6/raw/output_3814_IAG933_linker_design_.xyz
REMARK  12 active torsions:
REMARK  status: ('A' for Active; 'I' for Inactive)
REMARK    1  A    between atoms: C_1  and  C_2
REMARK    2  A    between atoms: C_1  and  C_8
REMARK    3  A    between atoms: C_1  and  C_40
REMARK    4  A    between atoms: C_13  and  C_30
REMARK    5  A    between atoms: C_14  and  C_15
REMARK    6  A    between atoms: C_21  and  O_22
REMARK    7  A    between atoms: O_22  and  C_23
REMARK    8  A    between atoms: C_23  and  C_24
REMARK    9  A    between atoms: O_28  and  C_29
REMARK   10  A    between atoms: O_28  and  C_35
REMARK   11  A    between atoms: C_29  and  C_37
REMARK   12  A    between atoms: C_34  and  N_45
REMARK                            x       y       z     vdW  Elec       q    Type
REMARK                         _______ _______ _______ _____ _____    ______ ____
ROOT
ATOM      1  C   UNL A   1     -24.808   1.220  27.337  0.00  0.00    +0.003 C 
ATOM      2  C   UNL A   1     -22.582   1.170  28.101  0.00  0.00    +0.195 C 
ATOM      3  C   UNL A   1     -25.299   0.449  28.304  0.00  0.00    +0.068 C 
ATOM      4  C   UNL A   1     -23.023   0.326  29.148  0.00  0.00    +0.039 C 
ATOM      5  C   UNL A   1     -24.396  -0.035  29.198  0.00  0.00    +0.001 C 
ATOM      6  C   UNL A   1     -23.505   1.598  27.177  0.00  0.00    +0.039 C 
ATOM      7  O   UNL A   1     -21.293   1.602  27.916  0.00  0.00    -0.287 OA
ENDROOT
BRANCH   1   8
ATOM      8  C   UNL A   1     -25.688   1.614  26.461  0.00  0.00    +0.094 C 
ATOM      9  C   UNL A   1     -26.250   2.920  26.395  0.00  0.00    +0.059 C 
ATOM     10  C   UNL A   1     -27.438   3.091  25.645  0.00  0.00    +0.102 C 
ATOM     11  N   UNL A   1     -28.075   2.089  25.003  0.00  0.00    -0.212 NA
ATOM     12  C   UNL A   1     -27.543   0.849  25.079  0.00  0.00    +0.234 C 
ATOM     13  C   UNL A   1     -26.354   0.576  25.777  0.00  0.00    +0.244 C 
ATOM     14  F   UNL A   1     -25.860  -0.681  25.795  0.00  0.00    -0.227 F 
BRANCH   9  15
ATOM     15  C   UNL A   1     -25.642   4.093  27.123  0.00  0.00    +0.263 C 
ATOM     16  N   UNL A   1     -25.614   5.252  26.449  0.00  0.00    -0.200 NA
ATOM     17  C   UNL A   1     -25.026   6.479  26.963  0.00  0.00    +0.139 C 
ATOM     18  O   UNL A   1     -25.143   3.966  28.243  0.00  0.00    -0.269 OA
ENDBRANCH   9  15
BRANCH  12  19
ATOM     19  O   UNL A   1     -28.193  -0.208  24.477  0.00  0.00    -0.459 OA
BRANCH  19  20
ATOM     20  C   UNL A   1     -29.460   0.005  23.866  0.00  0.00    +0.242 C 
BRANCH  20  21
ATOM     21  C   UNL A   1     -30.065  -1.377  23.573  0.00  0.00    +0.229 C 
ATOM     22  O   UNL A   1     -30.729  -1.878  24.721  0.00  0.00    -0.216 OA
ENDBRANCH  20  21
ENDBRANCH  19  20
ENDBRANCH  12  19
ENDBRANCH   1   8
BRANCH   3  27
ATOM     23  C   UNL A   1     -28.395   2.307  30.073  0.00  0.00    +0.279 C 
ATOM     24  N   UNL A   1     -27.574   1.249  30.087  0.00  0.00    -0.124 NA
ATOM     25  O   UNL A   1     -28.153   3.379  30.712  0.00  0.00    -0.270 OA
ATOM     26  C   UNL A   1     -27.575   0.298  29.171  0.00  0.00    +0.350 C 
ATOM     27  N   UNL A   1     -26.646   0.179  28.230  0.00  0.00    -0.161 NA
ATOM     28  O   UNL A   1     -28.472  -0.549  29.128  0.00  0.00    -0.248 OA
BRANCH  23  29
ATOM     29  C   UNL A   1     -29.784   2.204  29.496  0.00  0.00    +0.231 C 
BRANCH  29  30
ATOM     30  O   UNL A   1     -30.397   3.513  29.547  0.00  0.00    -0.322 OA
BRANCH  30  33
ATOM     31  C   UNL A   1     -30.916   4.584  26.100  0.00  0.00    +0.005 C 
ATOM     32  C   UNL A   1     -30.450   3.591  27.158  0.00  0.00    +0.059 C 
ATOM     33  C   UNL A   1     -30.104   4.387  28.423  0.00  0.00    +0.219 C 
ATOM     34  O   UNL A   1     -28.732   4.805  28.342  0.00  0.00    -0.195 OA
ATOM     35  C   UNL A   1     -31.390   5.813  26.827  0.00  0.00    +0.005 C 
ATOM     36  C   UNL A   1     -31.039   5.624  28.316  0.00  0.00    +0.059 C 
ENDBRANCH  30  33
ENDBRANCH  29  30
ENDBRANCH  23  29
ENDBRANCH   3  27
BRANCH   5  37
ATOM     37  C   UNL A   1     -24.855  -1.012  30.143  0.00  0.00    +0.062 C 
BRANCH  37  38
ATOM     38  C   UNL A   1     -24.973  -2.505  29.788  0.00  0.00    -0.017 C 
ATOM     39  C   UNL A   1     -23.906  -3.173  29.146  0.00  0.00    -0.004 C 
ATOM     40  C   UNL A   1     -23.989  -4.549  28.853  0.00  0.00    -0.000 C 
ATOM     41  C   UNL A   1     -25.137  -5.280  29.205  0.00  0.00    -0.000 C 
ATOM     42  C   UNL A   1     -26.232  -4.611  29.784  0.00  0.00    -0.000 C 
ATOM     43  C   UNL A   1     -26.155  -3.232  30.065  0.00  0.00    -0.004 C 
ENDBRANCH  37  38
BRANCH  37  44
ATOM     44  C   UNL A   1     -25.387  -0.679  31.571  0.00  0.00    +0.081 C 
ATOM     45  C   UNL A   1     -25.189   0.773  32.028  0.00  0.00    +0.019 C 
ATOM     46  C   UNL A   1     -25.336   0.684  33.544  0.00  0.00    +0.020 C 
ATOM     47  C   UNL A   1     -24.829  -0.715  33.905  0.00  0.00    +0.089 C 
ATOM     48  N   UNL A   1     -24.758  -1.481  32.646  0.00  0.00    -0.219 NA
ENDBRANCH  37  44
ENDBRANCH   5  37
TORSDOF 12
