MODEL 3815
MODEL 1
REMARK VINA RESULT:    -5.294      0.000      0.000
REMARK INTER + INTRA:          -5.753
REMARK INTER:                  -5.604
REMARK INTRA:                  -0.150
REMARK UNBOUND:                -0.150
REMARK  Name = No_3815-gen_results/8p0m/2024-11-27-11-27-31/
REMARK  1 active torsions:
REMARK  status: ('A' for Active; 'I' for Inactive)
REMARK    1  A    between atoms: C_4  and  C_7
REMARK                            x       y       z     vdW  Elec       q    Type
REMARK                         _______ _______ _______ _____ _____    ______ ____
ROOT
ATOM      1  C   UNL A   1     -26.636  -3.992  29.850  0.00  0.00    -0.000 A 
ATOM      2  C   UNL A   1     -26.133  -4.894  29.640  0.00  0.00    -0.000 A 
ATOM      3  C   UNL A   1     -25.846  -2.731  29.581  0.00  0.00    -0.000 A 
ATOM      4  C   UNL A   1     -24.586  -2.824  28.953  0.00  0.00    -0.000 A 
ATOM      5  C   UNL A   1     -24.866  -5.261  28.967  0.00  0.00    -0.000 A 
ATOM      6  C   UNL A   1     -24.115  -4.125  28.699  0.00  0.00    -0.000 A 
ENDROOT
BRANCH   4   7
ATOM      7  C   UNL A   1     -23.792  -1.672  28.693  0.00  0.00    -0.005 C 
ATOM      8  C   UNL A   1     -22.741  -1.378  29.337  0.00  0.00    -0.026 C 
ATOM      9  C   UNL A   1     -21.855  -0.260  28.967  0.00  0.00    +0.031 C 
ENDBRANCH   4   7
TORSDOF 1
ENDMDL
ENDMDL
