REMARK  Name = outputs/IAG933/test6/raw/output_3815_IAG933_linker_design_.xyz
REMARK  15 active torsions:
REMARK  status: ('A' for Active; 'I' for Inactive)
REMARK    1  A    between atoms: C_1  and  C_2
REMARK    2  A    between atoms: C_1  and  C_8
REMARK    3  A    between atoms: C_1  and  C_35
REMARK    4  A    between atoms: C_13  and  C_40
REMARK    5  A    between atoms: C_14  and  C_15
REMARK    6  A    between atoms: C_21  and  O_22
REMARK    7  A    between atoms: O_22  and  C_23
REMARK    8  A    between atoms: C_23  and  C_24
REMARK    9  A    between atoms: C_28  and  C_30
REMARK   10  A    between atoms: C_28  and  C_37
REMARK   11  A    between atoms: C_30  and  C_41
REMARK   12  A    between atoms: C_30  and  C_43
REMARK   13  A    between atoms: S_34  and  C_35
REMARK   14  A    between atoms: S_34  and  C_41
REMARK   15  A    between atoms: C_35  and  C_36
REMARK                            x       y       z     vdW  Elec       q    Type
REMARK                         _______ _______ _______ _____ _____    ______ ____
ROOT
ATOM      1  C   UNL A   1     -25.421  -0.040  29.115  0.00  0.00    +0.054 C 
ENDROOT
BRANCH   1   4
ATOM      2  C   UNL A   1     -21.972   1.062  27.780  0.00  0.00    +0.048 C 
ATOM      3  C   UNL A   1     -22.983  -0.176  28.459  0.00  0.00    +0.013 C 
ATOM      4  C   UNL A   1     -24.368   0.088  28.021  0.00  0.00    +0.025 C 
ATOM      5  C   UNL A   1     -22.314   0.871  29.213  0.00  0.00    +0.012 C 
ATOM      6  C   UNL A   1     -24.525   1.378  27.360  0.00  0.00    +0.073 C 
ATOM      7  S   UNL A   1     -22.983   1.699  26.355  0.00  0.00    -0.137 S 
BRANCH   6   8
ATOM      8  C   UNL A   1     -25.688   1.614  26.461  0.00  0.00    +0.026 C 
ATOM      9  C   UNL A   1     -26.250   2.920  26.395  0.00  0.00    +0.073 C 
ATOM     10  C   UNL A   1     -27.438   3.091  25.645  0.00  0.00    +0.106 C 
ATOM     11  N   UNL A   1     -28.075   2.089  25.003  0.00  0.00    -0.208 NA
ATOM     12  C   UNL A   1     -27.543   0.849  25.079  0.00  0.00    +0.253 C 
ATOM     13  C   UNL A   1     -26.354   0.576  25.777  0.00  0.00    +0.190 C 
ATOM     14  F   UNL A   1     -25.860  -0.681  25.795  0.00  0.00    -0.200 F 
BRANCH   9  15
ATOM     15  C   UNL A   1     -25.642   4.093  27.123  0.00  0.00    +0.266 C 
ATOM     16  N   UNL A   1     -25.614   5.252  26.449  0.00  0.00    -0.200 NA
ATOM     17  C   UNL A   1     -25.026   6.479  26.963  0.00  0.00    +0.139 C 
ATOM     18  O   UNL A   1     -25.143   3.966  28.243  0.00  0.00    -0.268 OA
ENDBRANCH   9  15
BRANCH  12  19
ATOM     19  O   UNL A   1     -28.193  -0.208  24.477  0.00  0.00    -0.456 OA
BRANCH  19  20
ATOM     20  C   UNL A   1     -29.460   0.005  23.866  0.00  0.00    +0.243 C 
BRANCH  20  21
ATOM     21  C   UNL A   1     -30.065  -1.377  23.573  0.00  0.00    +0.229 C 
ATOM     22  O   UNL A   1     -30.729  -1.878  24.721  0.00  0.00    -0.216 OA
ENDBRANCH  20  21
ENDBRANCH  19  20
ENDBRANCH  12  19
ENDBRANCH   6   8
ENDBRANCH   1   4
BRANCH   1  23
ATOM     23  C   UNL A   1     -24.855  -1.012  30.143  0.00  0.00    +0.048 C 
BRANCH  23  24
ATOM     24  C   UNL A   1     -24.973  -2.505  29.788  0.00  0.00    -0.020 C 
ATOM     25  C   UNL A   1     -23.906  -3.173  29.146  0.00  0.00    -0.004 C 
ATOM     26  C   UNL A   1     -23.989  -4.549  28.853  0.00  0.00    -0.000 C 
ATOM     27  C   UNL A   1     -25.137  -5.280  29.205  0.00  0.00    -0.000 C 
ATOM     28  C   UNL A   1     -26.232  -4.611  29.784  0.00  0.00    -0.000 C 
ATOM     29  C   UNL A   1     -26.155  -3.232  30.065  0.00  0.00    -0.004 C 
ENDBRANCH  23  24
BRANCH  23  30
ATOM     30  C   UNL A   1     -25.387  -0.679  31.571  0.00  0.00    +0.078 C 
ATOM     31  C   UNL A   1     -25.189   0.773  32.028  0.00  0.00    +0.019 C 
ATOM     32  C   UNL A   1     -25.336   0.684  33.544  0.00  0.00    +0.020 C 
ATOM     33  C   UNL A   1     -24.829  -0.715  33.905  0.00  0.00    +0.089 C 
ATOM     34  N   UNL A   1     -24.758  -1.481  32.646  0.00  0.00    -0.219 NA
ENDBRANCH  23  30
ENDBRANCH   1  23
BRANCH   1  35
ATOM     35  S   UNL A   1     -27.144   0.326  28.764  0.00  0.00    -0.141 S 
BRANCH  35  36
ATOM     36  C   UNL A   1     -28.146  -1.042  29.468  0.00  0.00    +0.060 C 
BRANCH  36  37
ATOM     37  C   UNL A   1     -29.625  -1.138  29.052  0.00  0.00    +0.046 C 
BRANCH  37  39
ATOM     38  O   UNL A   1     -30.012  -0.151  26.989  0.00  0.00    -0.220 OA
ATOM     39  C   UNL A   1     -29.995   0.187  28.367  0.00  0.00    +0.183 C 
ENDBRANCH  37  39
BRANCH  37  40
ATOM     40  C   UNL A   1     -30.660  -1.469  30.165  0.00  0.00    +0.036 C 
BRANCH  40  42
ATOM     41  O   UNL A   1     -29.211  -2.839  31.691  0.00  0.00    -0.223 OA
ATOM     42  C   UNL A   1     -30.306  -2.821  30.910  0.00  0.00    +0.152 C 
ATOM     43  C   UNL A   1     -30.362  -4.048  29.961  0.00  0.00    +0.035 C 
ENDBRANCH  40  42
ENDBRANCH  37  40
ENDBRANCH  36  37
ENDBRANCH  35  36
ENDBRANCH   1  35
TORSDOF 15
