MODEL 3816
MODEL 1
REMARK VINA RESULT:    -7.145      0.000      0.000
REMARK INTER + INTRA:          -9.122
REMARK INTER:                  -8.399
REMARK INTRA:                  -0.723
REMARK UNBOUND:                -0.723
REMARK  Name = No_3816-gen_results/8p0m/2024-11-27-11-27-31/
REMARK  3 active torsions:
REMARK  status: ('A' for Active; 'I' for Inactive)
REMARK    1  A    between atoms: C_4  and  C_7
REMARK    2  A    between atoms: C_7  and  C_9
REMARK    3  A    between atoms: N_8  and  C_15
REMARK                            x       y       z     vdW  Elec       q    Type
REMARK                         _______ _______ _______ _____ _____    ______ ____
ROOT
ATOM      1  C   UNL A   1     -24.512  -1.113  29.178  0.00  0.00    +0.081 C 
ATOM      2  N   UNL A   1     -24.182  -0.463  30.032  0.00  0.00    -0.244 NA
ENDROOT
BRANCH   1   6
ATOM      3  C   UNL A   1     -24.135  -4.820  28.621  0.00  0.00    +0.000 A 
ATOM      4  C   UNL A   1     -25.060  -5.132  29.018  0.00  0.00    +0.000 A 
ATOM      5  C   UNL A   1     -23.961  -3.368  28.613  0.00  0.00    +0.002 A 
ATOM      6  C   UNL A   1     -24.702  -2.649  29.137  0.00  0.00    +0.018 A 
ATOM      7  C   UNL A   1     -26.150  -4.452  29.691  0.00  0.00    +0.000 A 
ATOM      8  C   UNL A   1     -25.915  -3.050  29.705  0.00  0.00    +0.002 A 
ENDBRANCH   1   6
BRANCH   1   9
ATOM      9  C   UNL A   1     -24.703  -0.390  27.881  0.00  0.00    +0.018 A 
ATOM     10  C   UNL A   1     -25.425  -0.545  26.886  0.00  0.00    +0.002 A 
ATOM     11  C   UNL A   1     -25.410   0.237  25.799  0.00  0.00    +0.000 A 
ATOM     12  C   UNL A   1     -24.380   1.006  25.609  0.00  0.00    +0.000 A 
ATOM     13  C   UNL A   1     -23.630   0.630  27.630  0.00  0.00    +0.002 A 
ATOM     14  C   UNL A   1     -23.516   1.388  26.635  0.00  0.00    +0.000 A 
ENDBRANCH   1   9
BRANCH   2  15
ATOM     15  C   UNL A   1     -22.978  -0.723  30.736  0.00  0.00    +0.099 C 
ATOM     16  C   UNL A   1     -23.159  -1.114  32.162  0.00  0.00    +0.022 C 
ENDBRANCH   2  15
TORSDOF 3
ENDMDL
ENDMDL
