MODEL 3817
MODEL 1
REMARK VINA RESULT:    -5.046      0.000      0.000
REMARK INTER + INTRA:          -5.793
REMARK INTER:                  -5.636
REMARK INTRA:                  -0.157
REMARK UNBOUND:                -0.157
REMARK  Name = No_3817-gen_results/8p0m/2024-11-27-11-27-31/
REMARK  2 active torsions:
REMARK  status: ('A' for Active; 'I' for Inactive)
REMARK    1  A    between atoms: C_1  and  C_2
REMARK    2  A    between atoms: C_1  and  N_8
REMARK                            x       y       z     vdW  Elec       q    Type
REMARK                         _______ _______ _______ _____ _____    ______ ____
ROOT
ATOM      1  C   UNL A   1     -24.665  -2.460  29.198  0.00  0.00    +0.002 A 
ATOM      2  C   UNL A   1     -25.855  -2.899  29.680  0.00  0.00    -0.002 A 
ATOM      3  C   UNL A   1     -26.273  -4.318  29.726  0.00  0.00    -0.000 A 
ATOM      4  C   UNL A   1     -25.351  -5.282  29.199  0.00  0.00    -0.000 A 
ATOM      5  C   UNL A   1     -24.155  -4.779  28.641  0.00  0.00    -0.000 A 
ATOM      6  C   UNL A   1     -23.834  -3.446  28.634  0.00  0.00    -0.002 A 
ENDROOT
BRANCH   1   7
ATOM      7  C   UNL A   1     -24.337  -1.297  29.165  0.00  0.00    +0.151 C 
BRANCH   7   8
ATOM      8  N   UNL A   1     -23.018  -0.938  28.907  0.00  0.00    -0.269 NA
ATOM      9  C   UNL A   1     -22.381  -0.018  28.853  0.00  0.00    +0.068 C 
ATOM     10  C   UNL A   1     -20.932   0.074  28.488  0.00  0.00    +0.053 C 
ENDBRANCH   7   8
ENDBRANCH   1   7
TORSDOF 2
ENDMDL
ENDMDL
