REMARK  Name = outputs/IAG933/test6/raw/output_3818_IAG933_linker_design_.xyz
REMARK  12 active torsions:
REMARK  status: ('A' for Active; 'I' for Inactive)
REMARK    1  A    between atoms: C_1  and  C_2
REMARK    2  A    between atoms: C_1  and  C_8
REMARK    3  A    between atoms: C_1  and  N_33
REMARK    4  A    between atoms: C_13  and  C_38
REMARK    5  A    between atoms: C_14  and  C_15
REMARK    6  A    between atoms: C_21  and  O_22
REMARK    7  A    between atoms: O_22  and  C_23
REMARK    8  A    between atoms: C_23  and  C_24
REMARK    9  A    between atoms: C_30  and  O_39
REMARK   10  A    between atoms: N_33  and  C_40
REMARK   11  A    between atoms: C_38  and  C_40
REMARK   12  A    between atoms: C_38  and  C_43
REMARK                            x       y       z     vdW  Elec       q    Type
REMARK                         _______ _______ _______ _____ _____    ______ ____
ROOT
ATOM      1  C   UNL A   1     -24.917   1.288  27.745  0.00  0.00    +0.051 C 
ENDROOT
BRANCH   1   9
ATOM      2  C   UNL A   1     -21.473   1.841  26.841  0.00  0.00    +0.070 C 
ATOM      3  C   UNL A   1     -20.838   1.149  27.834  0.00  0.00    +0.139 C 
ATOM      4  C   UNL A   1     -22.929   1.732  26.693  0.00  0.00    +0.184 C 
ATOM      5  C   UNL A   1     -22.887   0.171  28.530  0.00  0.00    -0.003 C 
ATOM      6  C   UNL A   1     -21.474   0.139  28.588  0.00  0.00    +0.005 C 
ATOM      7  F   UNL A   1     -19.591   1.545  28.001  0.00  0.00    -0.204 F 
ATOM      8  C   UNL A   1     -20.885  -0.742  29.303  0.00  0.00    +0.033 C 
ATOM      9  C   UNL A   1     -23.615   1.024  27.633  0.00  0.00    +0.017 C 
BRANCH   4  11
ATOM     10  O   UNL A   1     -22.529   2.581  24.665  0.00  0.00    +0.028 OA
ATOM     11  O   UNL A   1     -23.547   2.182  25.664  0.00  0.00    -0.303 OA
ENDBRANCH   4  11
ENDBRANCH   1   9
BRANCH   1  12
ATOM     12  C   UNL A   1     -25.688   1.614  26.461  0.00  0.00    +0.076 C 
ATOM     13  C   UNL A   1     -26.250   2.920  26.395  0.00  0.00    +0.055 C 
ATOM     14  C   UNL A   1     -27.438   3.091  25.645  0.00  0.00    +0.102 C 
ATOM     15  N   UNL A   1     -28.075   2.089  25.003  0.00  0.00    -0.212 NA
ATOM     16  C   UNL A   1     -27.543   0.849  25.079  0.00  0.00    +0.234 C 
ATOM     17  C   UNL A   1     -26.354   0.576  25.777  0.00  0.00    +0.240 C 
ATOM     18  F   UNL A   1     -25.860  -0.681  25.795  0.00  0.00    -0.227 F 
BRANCH  13  19
ATOM     19  C   UNL A   1     -25.642   4.093  27.123  0.00  0.00    +0.263 C 
ATOM     20  N   UNL A   1     -25.614   5.252  26.449  0.00  0.00    -0.200 NA
ATOM     21  C   UNL A   1     -25.026   6.479  26.963  0.00  0.00    +0.139 C 
ATOM     22  O   UNL A   1     -25.143   3.966  28.243  0.00  0.00    -0.269 OA
ENDBRANCH  13  19
BRANCH  16  23
ATOM     23  O   UNL A   1     -28.193  -0.208  24.477  0.00  0.00    -0.459 OA
BRANCH  23  24
ATOM     24  C   UNL A   1     -29.460   0.005  23.866  0.00  0.00    +0.242 C 
BRANCH  24  25
ATOM     25  C   UNL A   1     -30.065  -1.377  23.573  0.00  0.00    +0.229 C 
ATOM     26  O   UNL A   1     -30.729  -1.878  24.721  0.00  0.00    -0.216 OA
ENDBRANCH  24  25
ENDBRANCH  23  24
ENDBRANCH  16  23
ENDBRANCH   1  12
BRANCH   1  27
ATOM     27  C   UNL A   1     -25.497   1.174  28.898  0.00  0.00    +0.081 C 
ATOM     28  C   UNL A   1     -26.499   2.143  29.549  0.00  0.00    +0.022 C 
BRANCH  27  30
ATOM     29  C   UNL A   1     -27.000  -0.751  28.703  0.00  0.00    +0.303 C 
ATOM     30  N   UNL A   1     -25.767  -0.231  29.270  0.00  0.00    -0.270 N 
ATOM     31  O   UNL A   1     -28.020  -0.516  29.188  0.00  0.00    -0.265 OA
BRANCH  30  32
ATOM     32  C   UNL A   1     -24.855  -1.012  30.143  0.00  0.00    +0.114 C 
BRANCH  32  33
ATOM     33  C   UNL A   1     -24.973  -2.505  29.788  0.00  0.00    -0.003 C 
ATOM     34  C   UNL A   1     -23.906  -3.173  29.146  0.00  0.00    -0.003 C 
ATOM     35  C   UNL A   1     -23.989  -4.549  28.853  0.00  0.00    -0.000 C 
ATOM     36  C   UNL A   1     -25.137  -5.280  29.205  0.00  0.00    -0.000 C 
ATOM     37  C   UNL A   1     -26.232  -4.611  29.784  0.00  0.00    -0.000 C 
ATOM     38  C   UNL A   1     -26.155  -3.232  30.065  0.00  0.00    -0.003 C 
ENDBRANCH  32  33
BRANCH  32  39
ATOM     39  C   UNL A   1     -25.387  -0.679  31.571  0.00  0.00    +0.095 C 
ATOM     40  C   UNL A   1     -25.189   0.773  32.028  0.00  0.00    +0.021 C 
ATOM     41  C   UNL A   1     -25.336   0.684  33.544  0.00  0.00    +0.020 C 
ATOM     42  C   UNL A   1     -24.829  -0.715  33.905  0.00  0.00    +0.089 C 
ATOM     43  N   UNL A   1     -24.758  -1.481  32.646  0.00  0.00    -0.217 NA
ENDBRANCH  32  39
ENDBRANCH  30  32
ENDBRANCH  27  30
ENDBRANCH   1  27
TORSDOF 12
