REMARK  Name = outputs/IAG933/test6/raw/output_3819_IAG933_linker_design_.xyz
REMARK  10 active torsions:
REMARK  status: ('A' for Active; 'I' for Inactive)
REMARK    1  A    between atoms: C_1  and  C_2
REMARK    2  A    between atoms: C_1  and  C_8
REMARK    3  A    between atoms: C_1  and  C_39
REMARK    4  A    between atoms: C_13  and  N_41
REMARK    5  A    between atoms: C_14  and  C_15
REMARK    6  A    between atoms: C_21  and  O_22
REMARK    7  A    between atoms: O_22  and  C_23
REMARK    8  A    between atoms: C_23  and  C_24
REMARK    9  A    between atoms: C_33  and  C_39
REMARK   10  A    between atoms: C_35  and  N_41
REMARK                            x       y       z     vdW  Elec       q    Type
REMARK                         _______ _______ _______ _____ _____    ______ ____
ROOT
ATOM      1  C   UNL A   1     -20.721   1.236  27.738  0.00  0.00    +0.146 C 
ATOM      2  C   UNL A   1     -22.775   1.711  26.439  0.00  0.00    +0.239 C 
ATOM      3  O   UNL A   1     -23.066   1.507  28.565  0.00  0.00    -0.334 OA
ATOM      4 CL   UNL A   1     -23.244   1.234  24.875  0.00  0.00    -0.078 Cl
ATOM      5  C   UNL A   1     -22.691   0.306  28.471  0.00  0.00    +0.168 C 
ATOM      6  O   UNL A   1     -21.331   1.375  26.479  0.00  0.00    -0.337 OA
ATOM      7  C   UNL A   1     -23.608   1.117  27.515  0.00  0.00    +0.222 C 
ATOM      8  C   UNL A   1     -21.008   0.054  28.396  0.00  0.00    +0.066 C 
ENDROOT
BRANCH   7  12
ATOM      9  O   UNL A   1     -26.647  -0.851  28.004  0.00  0.00    -0.249 OA
ATOM     10  C   UNL A   1     -26.348   0.241  28.398  0.00  0.00    +0.345 C 
ATOM     11  N   UNL A   1     -26.945   0.924  29.310  0.00  0.00    -0.069 NA
ATOM     12  N   UNL A   1     -25.053   0.946  27.590  0.00  0.00    -0.232 N 
BRANCH  12  13
ATOM     13  C   UNL A   1     -25.688   1.614  26.461  0.00  0.00    +0.149 C 
ATOM     14  C   UNL A   1     -26.250   2.920  26.395  0.00  0.00    +0.073 C 
ATOM     15  C   UNL A   1     -27.438   3.091  25.645  0.00  0.00    +0.104 C 
ATOM     16  N   UNL A   1     -28.075   2.089  25.003  0.00  0.00    -0.212 NA
ATOM     17  C   UNL A   1     -27.543   0.849  25.079  0.00  0.00    +0.236 C 
ATOM     18  C   UNL A   1     -26.354   0.576  25.777  0.00  0.00    +0.258 C 
ATOM     19  F   UNL A   1     -25.860  -0.681  25.795  0.00  0.00    -0.225 F 
BRANCH  14  20
ATOM     20  C   UNL A   1     -25.642   4.093  27.123  0.00  0.00    +0.264 C 
ATOM     21  N   UNL A   1     -25.614   5.252  26.449  0.00  0.00    -0.200 NA
ATOM     22  C   UNL A   1     -25.026   6.479  26.963  0.00  0.00    +0.139 C 
ATOM     23  O   UNL A   1     -25.143   3.966  28.243  0.00  0.00    -0.269 OA
ENDBRANCH  14  20
BRANCH  17  24
ATOM     24  O   UNL A   1     -28.193  -0.208  24.477  0.00  0.00    -0.459 OA
BRANCH  24  25
ATOM     25  C   UNL A   1     -29.460   0.005  23.866  0.00  0.00    +0.242 C 
BRANCH  25  26
ATOM     26  C   UNL A   1     -30.065  -1.377  23.573  0.00  0.00    +0.229 C 
ATOM     27  O   UNL A   1     -30.729  -1.878  24.721  0.00  0.00    -0.216 OA
ENDBRANCH  25  26
ENDBRANCH  24  25
ENDBRANCH  17  24
ENDBRANCH  12  13
ENDBRANCH   7  12
BRANCH   5  29
ATOM     28  O   UNL A   1     -22.365   0.050  30.527  0.00  0.00    -0.220 OA
ATOM     29  C   UNL A   1     -23.505  -0.207  29.709  0.00  0.00    +0.186 C 
BRANCH  29  30
ATOM     30  C   UNL A   1     -24.855  -1.012  30.143  0.00  0.00    +0.071 C 
BRANCH  30  31
ATOM     31  C   UNL A   1     -24.973  -2.505  29.788  0.00  0.00    -0.019 C 
ATOM     32  C   UNL A   1     -23.906  -3.173  29.146  0.00  0.00    -0.004 C 
ATOM     33  C   UNL A   1     -23.989  -4.549  28.853  0.00  0.00    -0.000 C 
ATOM     34  C   UNL A   1     -25.137  -5.280  29.205  0.00  0.00    -0.000 C 
ATOM     35  C   UNL A   1     -26.232  -4.611  29.784  0.00  0.00    -0.000 C 
ATOM     36  C   UNL A   1     -26.155  -3.232  30.065  0.00  0.00    -0.004 C 
ENDBRANCH  30  31
BRANCH  30  37
ATOM     37  C   UNL A   1     -25.387  -0.679  31.571  0.00  0.00    +0.079 C 
ATOM     38  C   UNL A   1     -25.189   0.773  32.028  0.00  0.00    +0.019 C 
ATOM     39  C   UNL A   1     -25.336   0.684  33.544  0.00  0.00    +0.020 C 
ATOM     40  C   UNL A   1     -24.829  -0.715  33.905  0.00  0.00    +0.089 C 
ATOM     41  N   UNL A   1     -24.758  -1.481  32.646  0.00  0.00    -0.219 NA
ENDBRANCH  30  37
ENDBRANCH  29  30
ENDBRANCH   5  29
TORSDOF 10
