MODEL 3819
MODEL 1
REMARK VINA RESULT:    -6.541      0.000      0.000
REMARK INTER + INTRA:         -12.268
REMARK INTER:                  -9.218
REMARK INTRA:                  -3.050
REMARK UNBOUND:                -3.050
REMARK  Name = No_3819-gen_results/8p0m/2024-11-27-11-27-31/
REMARK  7 active torsions:
REMARK  status: ('A' for Active; 'I' for Inactive)
REMARK    1  A    between atoms: C_2  and  C_23
REMARK    2  A    between atoms: C_4  and  C_5
REMARK    3  A    between atoms: C_8  and  C_10
REMARK    4  A    between atoms: C_14  and  C_17
REMARK    5  A    between atoms: C_18  and  C_28
REMARK    6  A    between atoms: C_23  and  C_24
REMARK    7  A    between atoms: C_24  and  C_25
REMARK                            x       y       z     vdW  Elec       q    Type
REMARK                         _______ _______ _______ _____ _____    ______ ____
ROOT
ATOM      1  C   UNL A   1     -26.331   2.029  26.067  0.00  0.00    -0.021 C 
ATOM      2  C   UNL A   1     -25.322   1.313  25.927  0.00  0.00    -0.004 C 
ATOM      3  C   UNL A   1     -27.178   2.354  24.921  0.00  0.00    +0.031 C 
ENDROOT
BRANCH   1   7
ATOM      4  C   UNL A   1     -27.571   3.401  29.691  0.00  0.00    -0.004 A 
ATOM      5  C   UNL A   1     -27.890   2.284  29.355  0.00  0.00    -0.022 A 
ATOM      6  C   UNL A   1     -27.518   1.711  28.155  0.00  0.00    -0.004 A 
ATOM      7  C   UNL A   1     -26.682   2.467  27.286  0.00  0.00    +0.002 A 
ATOM      8  C   UNL A   1     -26.481   4.054  29.020  0.00  0.00    +0.006 A 
ATOM      9  C   UNL A   1     -26.190   3.637  27.752  0.00  0.00    +0.034 A 
ATOM     10 BR   UNL A   1     -24.889   4.577  26.828  0.00  0.00    -0.049 Br
BRANCH   5  11
ATOM     11  C   UNL A   1     -28.986   1.508  30.192  0.00  0.00    +0.028 C 
BRANCH  11  12
ATOM     12  C   UNL A   1     -29.212   1.846  31.484  0.00  0.00    +0.021 C 
BRANCH  12  13
ATOM     13  C   UNL A   1     -28.942   1.309  32.474  0.00  0.00    +0.080 C 
ATOM     14 CL   UNL A   1     -28.183   1.630  33.464  0.00  0.00    -0.115 Cl
ATOM     15  C   UNL A   1     -29.646  -0.073  32.728  0.00  0.00    +0.018 C 
ENDBRANCH  12  13
ENDBRANCH  11  12
ENDBRANCH   5  11
ENDBRANCH   1   7
BRANCH   2  16
ATOM     16  C   UNL A   1     -24.559   0.692  26.976  0.00  0.00    -0.000 A 
ATOM     17  C   UNL A   1     -23.281   1.157  27.413  0.00  0.00    -0.000 A 
ATOM     18  C   UNL A   1     -22.505   0.471  28.328  0.00  0.00    -0.000 A 
ATOM     19  C   UNL A   1     -23.041  -0.704  28.864  0.00  0.00    -0.000 A 
ATOM     20  C   UNL A   1     -24.239  -1.193  28.448  0.00  0.00    -0.000 A 
ATOM     21  C   UNL A   1     -24.911  -0.561  27.482  0.00  0.00    -0.000 A 
BRANCH  20  22
ATOM     22  C   UNL A   1     -24.663  -2.511  28.969  0.00  0.00    -0.000 A 
ATOM     23  C   UNL A   1     -25.821  -2.553  29.612  0.00  0.00    -0.000 A 
ATOM     24  C   UNL A   1     -23.878  -3.674  28.681  0.00  0.00    -0.000 A 
ATOM     25  C   UNL A   1     -24.505  -4.926  28.634  0.00  0.00    -0.000 A 
ATOM     26  C   UNL A   1     -26.378  -3.924  29.840  0.00  0.00    -0.000 A 
ATOM     27  C   UNL A   1     -25.691  -5.076  29.457  0.00  0.00    -0.000 A 
BRANCH  23  28
ATOM     28  C   UNL A   1     -26.581  -1.459  30.018  0.00  0.00    -0.005 C 
ATOM     29  C   UNL A   1     -26.323  -0.810  31.191  0.00  0.00    -0.026 C 
ATOM     30  C   UNL A   1     -25.379  -1.045  31.837  0.00  0.00    +0.031 C 
ENDBRANCH  23  28
ENDBRANCH  20  22
ENDBRANCH   2  16
TORSDOF 7
ENDMDL
ENDMDL
