MODEL 381
MODEL 1
REMARK VINA RESULT:    -4.964      0.000      0.000
REMARK INTER + INTRA:          -5.290
REMARK INTER:                  -5.254
REMARK INTRA:                  -0.036
REMARK UNBOUND:                -0.036
REMARK  Name = No_381-gen_results/8p0m/2024-11-27-11-27-31/
REMARK  1 active torsions:
REMARK  status: ('A' for Active; 'I' for Inactive)
REMARK    1  A    between atoms: C_2  and  C_7
REMARK                            x       y       z     vdW  Elec       q    Type
REMARK                         _______ _______ _______ _____ _____    ______ ____
ROOT
ATOM      1  C   UNL A   1     -28.887 -10.452  32.811  0.00  0.00    +0.007 A 
ATOM      2  C   UNL A   1     -28.153 -11.181  32.609  0.00  0.00    +0.080 A 
ATOM      3  C   UNL A   1     -29.763 -10.071  31.639  0.00  0.00    +0.000 A 
ATOM      4  C   UNL A   1     -29.650 -10.787  30.429  0.00  0.00    +0.000 A 
ATOM      5  C   UNL A   1     -27.852 -12.086  31.476  0.00  0.00    +0.007 A 
ATOM      6  C   UNL A   1     -28.643 -11.769  30.381  0.00  0.00    +0.000 A 
ENDROOT
BRANCH   2   7
ATOM      7  C   UNL A   1     -27.216 -11.616  33.839  0.00  0.00    +0.388 C 
ATOM      8  O   UNL A   1     -27.023 -10.763  34.778  0.00  0.00    -0.241 OA
ATOM      9  O   UNL A   1     -26.828 -12.778  33.855  0.00  0.00    -0.241 OA
ENDBRANCH   2   7
TORSDOF 1
ENDMDL
ENDMDL
