REMARK  Name = outputs/IAG933/test6/raw/output_3820_IAG933_linker_design_.xyz
REMARK  11 active torsions:
REMARK  status: ('A' for Active; 'I' for Inactive)
REMARK    1  A    between atoms: C_1  and  C_2
REMARK    2  A    between atoms: C_1  and  C_8
REMARK    3  A    between atoms: C_9  and  N_36
REMARK    4  A    between atoms: C_14  and  C_15
REMARK    5  A    between atoms: C_15  and  O_18
REMARK    6  A    between atoms: O_18  and  C_32
REMARK    7  A    between atoms: C_21  and  O_22
REMARK    8  A    between atoms: O_22  and  C_23
REMARK    9  A    between atoms: C_23  and  C_24
REMARK   10  A    between atoms: C_34  and  N_39
REMARK   11  A    between atoms: N_39  and  C_42
REMARK                            x       y       z     vdW  Elec       q    Type
REMARK                         _______ _______ _______ _____ _____    ______ ____
ROOT
ATOM      1  C   UNL A   1     -23.107   2.215  27.748  0.00  0.00    +0.034 C 
ATOM      2  C   UNL A   1     -21.933   1.506  27.676  0.00  0.00    +0.136 C 
ATOM      3  F   UNL A   1     -21.068   1.639  26.613  0.00  0.00    -0.204 F 
ATOM      4  C   UNL A   1     -24.777   3.066  29.218  0.00  0.00    +0.180 A 
ATOM      5  C   UNL A   1     -23.596   1.418  29.985  0.00  0.00    +0.064 A 
ATOM      6  N   UNL A   1     -24.541   1.799  31.106  0.00  0.00    -0.313 N 
ATOM      7  C   UNL A   1     -20.425  -0.134  28.603  0.00  0.00    +0.033 C 
ATOM      8  C   UNL A   1     -21.710   0.658  28.768  0.00  0.00    +0.007 C 
ATOM      9  C   UNL A   1     -22.479   0.545  29.909  0.00  0.00    +0.015 C 
ATOM     10  C   UNL A   1     -23.872   2.210  28.945  0.00  0.00    +0.055 A 
ATOM     11  C   UNL A   1     -25.440   2.952  30.529  0.00  0.00    +0.166 A 
ENDROOT
BRANCH   6  13
ATOM     12  C   UNL A   1     -25.387  -0.679  31.571  0.00  0.00    +0.098 C 
ATOM     13  C   UNL A   1     -25.189   0.773  32.028  0.00  0.00    +0.104 C 
ATOM     14  C   UNL A   1     -25.336   0.684  33.544  0.00  0.00    +0.043 C 
ATOM     15  C   UNL A   1     -24.829  -0.715  33.905  0.00  0.00    +0.091 C 
ATOM     16  N   UNL A   1     -24.758  -1.481  32.646  0.00  0.00    -0.217 NA
BRANCH  12  17
ATOM     17  C   UNL A   1     -24.855  -1.012  30.143  0.00  0.00    +0.046 C 
BRANCH  17  18
ATOM     18  C   UNL A   1     -24.973  -2.505  29.788  0.00  0.00    -0.021 C 
ATOM     19  C   UNL A   1     -23.906  -3.173  29.146  0.00  0.00    -0.004 C 
ATOM     20  C   UNL A   1     -23.989  -4.549  28.853  0.00  0.00    -0.000 C 
ATOM     21  C   UNL A   1     -25.137  -5.280  29.205  0.00  0.00    -0.000 C 
ATOM     22  C   UNL A   1     -26.232  -4.611  29.784  0.00  0.00    -0.000 C 
ATOM     23  C   UNL A   1     -26.155  -3.232  30.065  0.00  0.00    -0.004 C 
ENDBRANCH  17  18
ENDBRANCH  12  17
ENDBRANCH   6  13
BRANCH   4  24
ATOM     24  O   UNL A   1     -25.143   3.966  28.243  0.00  0.00    -0.433 OA
BRANCH  24  25
ATOM     25  C   UNL A   1     -25.642   4.093  27.123  0.00  0.00    +0.227 C 
ATOM     26  N   UNL A   1     -25.614   5.252  26.449  0.00  0.00    -0.235 NA
ATOM     27  C   UNL A   1     -25.026   6.479  26.963  0.00  0.00    +0.155 C 
BRANCH  25  29
ATOM     28  C   UNL A   1     -25.688   1.614  26.461  0.00  0.00    +0.041 C 
ATOM     29  C   UNL A   1     -26.250   2.920  26.395  0.00  0.00    +0.075 C 
ATOM     30  C   UNL A   1     -27.438   3.091  25.645  0.00  0.00    +0.107 C 
ATOM     31  N   UNL A   1     -28.075   2.089  25.003  0.00  0.00    -0.208 NA
ATOM     32  C   UNL A   1     -27.543   0.849  25.079  0.00  0.00    +0.253 C 
ATOM     33  C   UNL A   1     -26.354   0.576  25.777  0.00  0.00    +0.193 C 
ATOM     34  F   UNL A   1     -25.860  -0.681  25.795  0.00  0.00    -0.199 F 
BRANCH  32  35
ATOM     35  O   UNL A   1     -28.193  -0.208  24.477  0.00  0.00    -0.456 OA
BRANCH  35  36
ATOM     36  C   UNL A   1     -29.460   0.005  23.866  0.00  0.00    +0.243 C 
BRANCH  36  37
ATOM     37  C   UNL A   1     -30.065  -1.377  23.573  0.00  0.00    +0.229 C 
ATOM     38  O   UNL A   1     -30.729  -1.878  24.721  0.00  0.00    -0.216 OA
ENDBRANCH  36  37
ENDBRANCH  35  36
ENDBRANCH  32  35
ENDBRANCH  25  29
ENDBRANCH  24  25
ENDBRANCH   4  24
BRANCH  11  39
ATOM     39  N   UNL A   1     -26.566   3.865  30.837  0.00  0.00    -0.189 NA
BRANCH  39  41
ATOM     40  O   UNL A   1     -26.307   5.708  32.273  0.00  0.00    -0.199 OA
ATOM     41  C   UNL A   1     -26.605   5.347  30.906  0.00  0.00    +0.245 C 
ATOM     42  C   UNL A   1     -28.114   5.732  30.706  0.00  0.00    +0.060 C 
ENDBRANCH  39  41
ENDBRANCH  11  39
TORSDOF 11
