MODEL 3820
MODEL 1
REMARK VINA RESULT:    -4.920      0.000      0.000
REMARK INTER + INTRA:          -5.322
REMARK INTER:                  -5.207
REMARK INTRA:                  -0.115
REMARK UNBOUND:                -0.115
REMARK  Name = No_3820-gen_results/8p0m/2024-11-27-11-27-31/
REMARK  1 active torsions:
REMARK  status: ('A' for Active; 'I' for Inactive)
REMARK    1  A    between atoms: C_2  and  C_3
REMARK                            x       y       z     vdW  Elec       q    Type
REMARK                         _______ _______ _______ _____ _____    ______ ____
ROOT
ATOM      1  C   UNL A   1     -24.378  -2.582  29.037  0.00  0.00    +0.025 A 
ATOM      2  C   UNL A   1     -24.014  -4.010  28.748  0.00  0.00    -0.000 A 
ATOM      3  C   UNL A   1     -24.868  -5.150  29.012  0.00  0.00    -0.000 A 
ATOM      4  C   UNL A   1     -26.175  -4.863  29.617  0.00  0.00    -0.000 A 
ATOM      5  C   UNL A   1     -26.475  -3.533  29.935  0.00  0.00    -0.000 A 
ATOM      6  C   UNL A   1     -25.650  -2.506  29.705  0.00  0.00    -0.000 A 
ENDROOT
BRANCH   1   8
ATOM      7 CL   UNL A   1     -24.087  -0.577  28.164  0.00  0.00    -0.072 Cl
ATOM      8  C   UNL A   1     -23.571  -1.528  28.732  0.00  0.00    +0.262 C 
ATOM      9  F   UNL A   1     -22.330  -1.584  29.105  0.00  0.00    -0.214 F 
ENDBRANCH   1   8
TORSDOF 1
ENDMDL
ENDMDL
