MODEL 3821
MODEL 1
REMARK VINA RESULT:    -5.451      0.000      0.000
REMARK INTER + INTRA:          -5.819
REMARK INTER:                  -5.769
REMARK INTRA:                  -0.050
REMARK UNBOUND:                -0.050
REMARK  Name = No_3821-gen_results/8p0m/2024-11-27-11-27-31/
REMARK  1 active torsions:
REMARK  status: ('A' for Active; 'I' for Inactive)
REMARK    1  A    between atoms: C_3  and  C_7
REMARK                            x       y       z     vdW  Elec       q    Type
REMARK                         _______ _______ _______ _____ _____    ______ ____
ROOT
ATOM      1  C   UNL A   1     -10.357  -9.287  19.338  0.00  0.00    +0.007 A 
ATOM      2  C   UNL A   1      -9.862  -9.025  20.231  0.00  0.00    +0.000 A 
ATOM      3  C   UNL A   1      -9.654 -10.076  18.402  0.00  0.00    +0.080 A 
ATOM      4  C   UNL A   1      -8.355 -10.490  18.624  0.00  0.00    +0.007 A 
ATOM      5  C   UNL A   1      -7.782 -10.108  19.826  0.00  0.00    +0.000 A 
ATOM      6  C   UNL A   1      -8.520  -9.368  20.726  0.00  0.00    +0.000 A 
ENDROOT
BRANCH   3   7
ATOM      7  C   UNL A   1     -10.245 -10.538  17.104  0.00  0.00    +0.388 C 
ATOM      8  O   UNL A   1      -9.472 -10.910  16.242  0.00  0.00    -0.241 OA
ATOM      9  O   UNL A   1     -11.497 -10.516  16.931  0.00  0.00    -0.241 OA
ENDBRANCH   3   7
TORSDOF 1
ENDMDL
ENDMDL
