MODEL 3822
MODEL 1
REMARK VINA RESULT:    -4.457      0.000      0.000
REMARK INTER + INTRA:          -4.457
REMARK INTER:                  -4.457
REMARK INTRA:                   0.000
REMARK UNBOUND:                 0.000
REMARK  Name = No_3822-gen_results/8p0m/2024-11-27-11-27-31/
REMARK  0 active torsions:
REMARK  status: ('A' for Active; 'I' for Inactive)
REMARK                            x       y       z     vdW  Elec       q    Type
REMARK                         _______ _______ _______ _____ _____    ______ ____
ROOT
ATOM      1  C   UNL A   1      -9.215  -9.151  19.969  0.00  0.00    +0.011 A 
ATOM      2  C   UNL A   1      -8.223  -9.833  19.852  0.00  0.00    +0.058 A 
ATOM      3  C   UNL A   1      -8.061 -10.684  18.765  0.00  0.00    +0.011 A 
ATOM      4  C   UNL A   1      -9.090 -10.815  17.766  0.00  0.00    +0.001 A 
ATOM      5  C   UNL A   1     -10.213 -10.008  17.991  0.00  0.00    +0.000 A 
ATOM      6  C   UNL A   1     -10.325  -9.232  19.045  0.00  0.00    +0.001 A 
ATOM      7 CL   UNL A   1      -6.924  -9.841  20.968  0.00  0.00    -0.082 Cl
ENDROOT
TORSDOF 0
ENDMDL
ENDMDL
