MODEL 3823
MODEL 1
REMARK VINA RESULT:    -5.275      0.000      0.000
REMARK INTER + INTRA:          -6.083
REMARK INTER:                  -5.892
REMARK INTRA:                  -0.191
REMARK UNBOUND:                -0.191
REMARK  Name = No_3823-gen_results/8p0m/2024-11-27-11-27-31/
REMARK  2 active torsions:
REMARK  status: ('A' for Active; 'I' for Inactive)
REMARK    1  A    between atoms: C_1  and  C_2
REMARK    2  A    between atoms: C_5  and  C_9
REMARK                            x       y       z     vdW  Elec       q    Type
REMARK                         _______ _______ _______ _____ _____    ______ ____
ROOT
ATOM      1  C   UNL A   1     -23.946  -1.835  28.912  0.00  0.00    -0.003 A 
ATOM      2  C   UNL A   1     -22.741  -1.154  29.077  0.00  0.00    -0.003 A 
ATOM      3  C   UNL A   1     -22.387   0.176  28.544  0.00  0.00    +0.004 A 
ATOM      4  C   UNL A   1     -23.303   0.729  27.597  0.00  0.00    +0.071 A 
ATOM      5  C   UNL A   1     -24.507   0.055  27.367  0.00  0.00    +0.004 A 
ATOM      6  C   UNL A   1     -24.817  -1.126  27.947  0.00  0.00    -0.003 A 
ENDROOT
BRANCH   4   7
ATOM      7  C   UNL A   1     -22.925   1.992  27.021  0.00  0.00    +0.419 C 
ATOM      8  F   UNL A   1     -23.507   2.982  27.415  0.00  0.00    -0.166 F 
ATOM      9  F   UNL A   1     -21.537   2.206  27.408  0.00  0.00    -0.166 F 
ATOM     10  F   UNL A   1     -22.912   1.937  25.680  0.00  0.00    -0.166 F 
ENDBRANCH   4   7
BRANCH   1  11
ATOM     11  C   UNL A   1     -24.170  -2.924  29.388  0.00  0.00    +0.136 C 
ATOM     12  N   UNL A   1     -23.790  -4.066  28.653  0.00  0.00    -0.126 NA
ENDBRANCH   1  11
TORSDOF 2
ENDMDL
ENDMDL
