REMARK  Name = outputs/IAG933/test6/raw/output_3824_IAG933_linker_design_.xyz
REMARK  15 active torsions:
REMARK  status: ('A' for Active; 'I' for Inactive)
REMARK    1  A    between atoms: C_1  and  C_2
REMARK    2  A    between atoms: C_1  and  C_8
REMARK    3  A    between atoms: C_1  and  C_41
REMARK    4  A    between atoms: C_13  and  C_42
REMARK    5  A    between atoms: C_14  and  C_15
REMARK    6  A    between atoms: C_21  and  O_22
REMARK    7  A    between atoms: O_22  and  C_23
REMARK    8  A    between atoms: C_23  and  C_24
REMARK    9  A    between atoms: C_31  and  C_36
REMARK   10  A    between atoms: C_31  and  C_49
REMARK   11  A    between atoms: C_33  and  S_48
REMARK   12  A    between atoms: C_36  and  C_37
REMARK   13  A    between atoms: C_37  and  S_48
REMARK   14  A    between atoms: C_41  and  C_43
REMARK   15  A    between atoms: C_41  and  C_49
REMARK                            x       y       z     vdW  Elec       q    Type
REMARK                         _______ _______ _______ _____ _____    ______ ____
ROOT
ATOM      1  C   UNL A   1     -25.209   0.139  29.114  0.00  0.00    +0.030 C 
ENDROOT
BRANCH   1   5
ATOM      2  C   UNL A   1     -21.725   1.209  27.965  0.00  0.00    -0.000 C 
ATOM      3  C   UNL A   1     -23.275   1.948  26.297  0.00  0.00    -0.000 C 
ATOM      4  C   UNL A   1     -24.325   1.407  27.026  0.00  0.00    -0.001 C 
ATOM      5  C   UNL A   1     -24.118   0.725  28.244  0.00  0.00    -0.022 C 
ATOM      6  C   UNL A   1     -22.773   0.642  28.697  0.00  0.00    -0.004 C 
ATOM      7  C   UNL A   1     -21.973   1.834  26.749  0.00  0.00    -0.000 C 
BRANCH   4   8
ATOM      8  C   UNL A   1     -25.688   1.614  26.461  0.00  0.00    +0.038 C 
ATOM      9  C   UNL A   1     -26.250   2.920  26.395  0.00  0.00    +0.076 C 
ATOM     10  C   UNL A   1     -27.438   3.091  25.645  0.00  0.00    +0.107 C 
ATOM     11  N   UNL A   1     -28.075   2.089  25.003  0.00  0.00    -0.208 NA
ATOM     12  C   UNL A   1     -27.543   0.849  25.079  0.00  0.00    +0.253 C 
ATOM     13  C   UNL A   1     -26.354   0.576  25.777  0.00  0.00    +0.193 C 
ATOM     14  F   UNL A   1     -25.860  -0.681  25.795  0.00  0.00    -0.199 F 
BRANCH   9  15
ATOM     15  C   UNL A   1     -25.642   4.093  27.123  0.00  0.00    +0.266 C 
ATOM     16  N   UNL A   1     -25.614   5.252  26.449  0.00  0.00    -0.200 NA
ATOM     17  C   UNL A   1     -25.026   6.479  26.963  0.00  0.00    +0.139 C 
ATOM     18  O   UNL A   1     -25.143   3.966  28.243  0.00  0.00    -0.268 OA
ENDBRANCH   9  15
BRANCH  12  19
ATOM     19  O   UNL A   1     -28.193  -0.208  24.477  0.00  0.00    -0.456 OA
BRANCH  19  20
ATOM     20  C   UNL A   1     -29.460   0.005  23.866  0.00  0.00    +0.243 C 
BRANCH  20  21
ATOM     21  C   UNL A   1     -30.065  -1.377  23.573  0.00  0.00    +0.229 C 
ATOM     22  O   UNL A   1     -30.729  -1.878  24.721  0.00  0.00    -0.216 OA
ENDBRANCH  20  21
ENDBRANCH  19  20
ENDBRANCH  12  19
ENDBRANCH   4   8
ENDBRANCH   1   5
BRANCH   1  23
ATOM     23  C   UNL A   1     -24.855  -1.012  30.143  0.00  0.00    +0.042 C 
BRANCH  23  24
ATOM     24  C   UNL A   1     -24.973  -2.505  29.788  0.00  0.00    -0.021 C 
ATOM     25  C   UNL A   1     -23.906  -3.173  29.146  0.00  0.00    -0.004 C 
ATOM     26  C   UNL A   1     -23.989  -4.549  28.853  0.00  0.00    -0.000 C 
ATOM     27  C   UNL A   1     -25.137  -5.280  29.205  0.00  0.00    -0.000 C 
ATOM     28  C   UNL A   1     -26.232  -4.611  29.784  0.00  0.00    -0.000 C 
ATOM     29  C   UNL A   1     -26.155  -3.232  30.065  0.00  0.00    -0.004 C 
ENDBRANCH  23  24
BRANCH  23  30
ATOM     30  C   UNL A   1     -25.387  -0.679  31.571  0.00  0.00    +0.077 C 
ATOM     31  C   UNL A   1     -25.189   0.773  32.028  0.00  0.00    +0.019 C 
ATOM     32  C   UNL A   1     -25.336   0.684  33.544  0.00  0.00    +0.020 C 
ATOM     33  C   UNL A   1     -24.829  -0.715  33.905  0.00  0.00    +0.089 C 
ATOM     34  N   UNL A   1     -24.758  -1.481  32.646  0.00  0.00    -0.219 NA
ENDBRANCH  23  30
ENDBRANCH   1  23
BRANCH   1  35
ATOM     35  C   UNL A   1     -26.587  -0.044  28.614  0.00  0.00    +0.038 C 
BRANCH  35  36
ATOM     36  C   UNL A   1     -28.011   0.208  29.095  0.00  0.00    +0.154 C 
ATOM     37  O   UNL A   1     -28.605  -1.085  29.068  0.00  0.00    -0.223 OA
BRANCH  36  38
ATOM     38  C   UNL A   1     -28.942   1.019  28.162  0.00  0.00    +0.059 C 
BRANCH  38  39
ATOM     39  C   UNL A   1     -28.900   2.409  28.420  0.00  0.00    +0.159 C 
BRANCH  39  42
ATOM     40  O   UNL A   1     -28.810   2.999  30.792  0.00  0.00    -0.169 OA
ATOM     41  O   UNL A   1     -30.389   1.317  30.168  0.00  0.00    -0.169 OA
ATOM     42  S   UNL A   1     -29.810   2.469  29.780  0.00  0.00    +0.009 S 
BRANCH  42  45
ATOM     43  N   UNL A   1     -33.127   7.122  28.255  0.00  0.00    -0.128 NA
ATOM     44  C   UNL A   1     -32.150   5.546  29.647  0.00  0.00    +0.019 C 
ATOM     45  C   UNL A   1     -30.445   3.949  29.023  0.00  0.00    +0.106 C 
ATOM     46  C   UNL A   1     -32.025   6.193  28.481  0.00  0.00    +0.089 C 
ATOM     47  C   UNL A   1     -31.413   4.452  29.915  0.00  0.00    +0.020 C 
ATOM     48  C   UNL A   1     -30.982   5.894  27.543  0.00  0.00    +0.019 C 
ATOM     49  C   UNL A   1     -30.121   4.812  27.786  0.00  0.00    +0.020 C 
ENDBRANCH  42  45
ENDBRANCH  39  42
ENDBRANCH  38  39
ENDBRANCH  36  38
ENDBRANCH  35  36
ENDBRANCH   1  35
TORSDOF 15
