MODEL 3824
MODEL 1
REMARK VINA RESULT:    -6.127      0.000      0.000
REMARK INTER + INTRA:          -7.221
REMARK INTER:                  -6.844
REMARK INTRA:                  -0.377
REMARK UNBOUND:                -0.377
REMARK  Name = No_3824-gen_results/8p0m/2024-11-27-11-27-31/
REMARK  2 active torsions:
REMARK  status: ('A' for Active; 'I' for Inactive)
REMARK    1  A    between atoms: C_1  and  N_8
REMARK    2  A    between atoms: C_5  and  C_9
REMARK                            x       y       z     vdW  Elec       q    Type
REMARK                         _______ _______ _______ _____ _____    ______ ____
ROOT
ATOM      1  C   UNL A   1     -24.264  -2.333  29.890  0.00  0.00    +0.091 C 
ATOM      2  C   UNL A   1     -23.936  -1.430  29.156  0.00  0.00    -0.025 C 
ATOM      3  C   UNL A   1     -22.712  -0.784  29.185  0.00  0.00    +0.024 C 
ATOM      4  C   UNL A   1     -22.323   0.347  28.378  0.00  0.00    +0.013 C 
ATOM      5  C   UNL A   1     -23.257   0.869  27.451  0.00  0.00    +0.096 C 
ATOM      6  C   UNL A   1     -24.531   0.249  27.368  0.00  0.00    +0.013 C 
ATOM      7  C   UNL A   1     -24.813  -0.795  28.193  0.00  0.00    +0.024 C 
ENDROOT
BRANCH   5   8
ATOM      8  C   UNL A   1     -22.935   1.977  26.580  0.00  0.00    +0.398 C 
ATOM      9  F   UNL A   1     -23.332   2.977  26.824  0.00  0.00    -0.170 F 
ATOM     10  F   UNL A   1     -23.429   1.662  25.250  0.00  0.00    -0.170 F 
ATOM     11  F   UNL A   1     -21.574   1.988  26.371  0.00  0.00    -0.170 F 
ENDBRANCH   5   8
BRANCH   1  12
ATOM     12  N   UNL A   1     -25.579  -2.876  29.804  0.00  0.00    -0.236 NA
ATOM     13  C   UNL A   1     -25.874  -4.135  29.581  0.00  0.00    +0.139 C 
ATOM     14 BR   UNL A   1     -24.744  -5.285  28.970  0.00  0.00    -0.026 Br
ENDBRANCH   1  12
TORSDOF 2
ENDMDL
ENDMDL
