MODEL 3825
MODEL 1
REMARK VINA RESULT:    -6.075      0.000      0.000
REMARK INTER + INTRA:          -6.963
REMARK INTER:                  -6.785
REMARK INTRA:                  -0.178
REMARK UNBOUND:                -0.178
REMARK  Name = No_3825-gen_results/8p0m/2024-11-27-11-27-31/
REMARK  2 active torsions:
REMARK  status: ('A' for Active; 'I' for Inactive)
REMARK    1  A    between atoms: C_2  and  O_7
REMARK    2  A    between atoms: O_7  and  C_8
REMARK                            x       y       z     vdW  Elec       q    Type
REMARK                         _______ _______ _______ _____ _____    ______ ____
ROOT
ATOM      1  O   UNL A   1     -24.468  -1.240  29.592  0.00  0.00    -0.454 OA
ENDROOT
BRANCH   1   3
ATOM      2  C   UNL A   1     -23.827  -3.136  28.810  0.00  0.00    +0.037 A 
ATOM      3  C   UNL A   1     -24.605  -2.685  29.361  0.00  0.00    +0.145 A 
ATOM      4  C   UNL A   1     -23.973  -4.623  28.577  0.00  0.00    +0.003 A 
ATOM      5  C   UNL A   1     -25.165  -5.270  28.966  0.00  0.00    +0.000 A 
ATOM      6  C   UNL A   1     -25.939  -3.112  29.841  0.00  0.00    +0.037 A 
ATOM      7  C   UNL A   1     -26.112  -4.474  29.637  0.00  0.00    +0.003 A 
ENDBRANCH   1   3
BRANCH   1   8
ATOM      8  C   UNL A   1     -24.173  -0.518  28.571  0.00  0.00    +0.145 A 
ATOM      9  C   UNL A   1     -23.116   0.247  28.453  0.00  0.00    +0.037 A 
ATOM     10  C   UNL A   1     -22.818   1.145  27.405  0.00  0.00    +0.003 A 
ATOM     11  C   UNL A   1     -23.767   1.162  26.357  0.00  0.00    +0.000 A 
ATOM     12  C   UNL A   1     -24.909   0.409  26.429  0.00  0.00    +0.003 A 
ATOM     13  C   UNL A   1     -25.167  -0.405  27.530  0.00  0.00    +0.037 A 
ENDBRANCH   1   8
TORSDOF 2
ENDMDL
ENDMDL
