MODEL 3827
MODEL 1
REMARK VINA RESULT:    -5.855      0.000      0.000
REMARK INTER + INTRA:          -7.016
REMARK INTER:                  -6.539
REMARK INTRA:                  -0.477
REMARK UNBOUND:                -0.477
REMARK  Name = No_3827-gen_results/8p0m/2024-11-27-11-27-31/
REMARK  2 active torsions:
REMARK  status: ('A' for Active; 'I' for Inactive)
REMARK    1  A    between atoms: C_1  and  C_2
REMARK    2  A    between atoms: C_2  and  C_7
REMARK                            x       y       z     vdW  Elec       q    Type
REMARK                         _______ _______ _______ _____ _____    ______ ____
ROOT
ATOM      1  C   UNL A   1     -23.795  -1.067  28.970  0.00  0.00    +0.368 C 
ATOM      2  F   UNL A   1     -23.827  -0.636  27.813  0.00  0.00    -0.190 F 
ATOM      3  F   UNL A   1     -25.003  -0.589  29.598  0.00  0.00    -0.190 F 
ENDROOT
BRANCH   1   4
ATOM      4  C   UNL A   1     -24.220  -2.596  28.988  0.00  0.00    +0.046 A 
ATOM      5  C   UNL A   1     -23.843  -3.593  28.756  0.00  0.00    +0.001 A 
ATOM      6  C   UNL A   1     -24.486  -4.887  28.887  0.00  0.00    -0.000 A 
ATOM      7  C   UNL A   1     -25.687  -4.893  29.439  0.00  0.00    -0.000 A 
ATOM      8  C   UNL A   1     -26.251  -3.673  29.784  0.00  0.00    -0.000 A 
ATOM      9  C   UNL A   1     -25.623  -2.522  29.576  0.00  0.00    +0.001 A 
ENDBRANCH   1   4
BRANCH   1  10
ATOM     10  C   UNL A   1     -22.766  -0.808  29.549  0.00  0.00    +0.459 C 
ATOM     11  F   UNL A   1     -21.774  -1.147  28.923  0.00  0.00    -0.165 F 
ATOM     12  F   UNL A   1     -22.646   0.473  30.004  0.00  0.00    -0.165 F 
ATOM     13  F   UNL A   1     -22.795  -1.221  30.726  0.00  0.00    -0.165 F 
ENDBRANCH   1  10
TORSDOF 2
ENDMDL
ENDMDL
