MODEL 3828
MODEL 1
REMARK VINA RESULT:    -5.423      0.000      0.000
REMARK INTER + INTRA:          -6.290
REMARK INTER:                  -6.057
REMARK INTRA:                  -0.233
REMARK UNBOUND:                -0.233
REMARK  Name = No_3828-gen_results/8p0m/2024-11-27-11-27-31/
REMARK  2 active torsions:
REMARK  status: ('A' for Active; 'I' for Inactive)
REMARK    1  A    between atoms: C_2  and  C_8
REMARK    2  A    between atoms: C_8  and  N_9
REMARK                            x       y       z     vdW  Elec       q    Type
REMARK                         _______ _______ _______ _____ _____    ______ ____
ROOT
ATOM      1  C   UNL A   1     -23.982  -3.002  28.984  0.00  0.00    +0.007 A 
ATOM      2  C   UNL A   1     -24.861  -2.618  29.721  0.00  0.00    +0.056 A 
ATOM      3  C   UNL A   1     -25.958  -3.383  30.066  0.00  0.00    +0.007 A 
ATOM      4  C   UNL A   1     -26.033  -4.710  29.556  0.00  0.00    +0.030 A 
ATOM      5  C   UNL A   1     -24.946  -5.150  28.879  0.00  0.00    +0.140 A 
ATOM      6  C   UNL A   1     -23.921  -4.358  28.629  0.00  0.00    +0.030 A 
ATOM      7  F   UNL A   1     -24.976  -6.400  28.436  0.00  0.00    -0.204 F 
ENDROOT
BRANCH   2   8
ATOM      8  C   UNL A   1     -24.938  -1.145  30.226  0.00  0.00    +0.269 C 
ATOM      9  O   UNL A   1     -25.016  -0.206  29.385  0.00  0.00    -0.268 OA
BRANCH   8  10
ATOM     10  N   UNL A   1     -25.307  -0.948  31.497  0.00  0.00    -0.179 NA
ATOM     11  C   UNL A   1     -24.412  -0.866  32.469  0.00  0.00    +0.063 C 
ATOM     12  C   UNL A   1     -23.036  -1.030  32.167  0.00  0.00    +0.050 C 
ENDBRANCH   8  10
ENDBRANCH   2   8
TORSDOF 2
ENDMDL
ENDMDL
