MODEL 382
MODEL 1
REMARK VINA RESULT:    -5.507      0.000      0.000
REMARK INTER + INTRA:          -6.395
REMARK INTER:                  -6.151
REMARK INTRA:                  -0.244
REMARK UNBOUND:                -0.244
REMARK  Name = No_382-gen_results/8p0m/2024-11-27-11-27-31/
REMARK  2 active torsions:
REMARK  status: ('A' for Active; 'I' for Inactive)
REMARK    1  A    between atoms: C_3  and  C_4
REMARK    2  A    between atoms: C_4  and  C_8
REMARK                            x       y       z     vdW  Elec       q    Type
REMARK                         _______ _______ _______ _____ _____    ______ ____
ROOT
ATOM      1  C   UNL A   1     -26.401  -3.478  29.949  0.00  0.00    -0.000 A 
ATOM      2  C   UNL A   1     -25.535  -2.641  29.839  0.00  0.00    -0.004 A 
ATOM      3  C   UNL A   1     -24.326  -2.936  29.219  0.00  0.00    -0.018 A 
ATOM      4  C   UNL A   1     -26.108  -4.881  29.647  0.00  0.00    -0.000 A 
ATOM      5  C   UNL A   1     -24.985  -5.248  28.948  0.00  0.00    -0.000 A 
ATOM      6  C   UNL A   1     -24.025  -4.259  28.721  0.00  0.00    -0.004 A 
ENDROOT
BRANCH   3   7
ATOM      7  C   UNL A   1     -23.308  -1.972  29.000  0.00  0.00    +0.052 C 
BRANCH   7   8
ATOM      8  C   UNL A   1     -23.546  -0.692  28.627  0.00  0.00    -0.026 C 
ATOM      9  C   UNL A   1     -22.494   0.252  28.505  0.00  0.00    -0.030 C 
ATOM     10  C   UNL A   1     -21.166  -0.074  28.702  0.00  0.00    +0.030 C 
ENDBRANCH   7   8
ENDBRANCH   3   7
TORSDOF 2
ENDMDL
ENDMDL
