REMARK  Name = No_383-gen_results/8p0m/2024-11-27-11-27-31/
REMARK  6 active torsions:
REMARK  status: ('A' for Active; 'I' for Inactive)
REMARK    1  A    between atoms: C_3  and  C_7
REMARK    2  A    between atoms: C_6  and  O_13
REMARK    3  A    between atoms: O_13  and  C_14
REMARK    4  A    between atoms: C_14  and  C_15
REMARK    5  A    between atoms: C_14  and  C_19
REMARK    6  A    between atoms: C_19  and  C_20
REMARK                            x       y       z     vdW  Elec       q    Type
REMARK                         _______ _______ _______ _____ _____    ______ ____
ROOT
ATOM      1  C   UNL A   1     -28.016  -0.814  28.878  0.00  0.00    +0.037 A 
ATOM      2  C   UNL A   1     -27.064  -0.119  28.608  0.00  0.00    +0.003 A 
ATOM      3  C   UNL A   1     -25.765  -0.390  29.036  0.00  0.00    +0.000 A 
ATOM      4  C   UNL A   1     -25.530  -1.530  29.901  0.00  0.00    +0.003 A 
ATOM      5  C   UNL A   1     -26.689  -2.289  30.181  0.00  0.00    +0.037 A 
ATOM      6  C   UNL A   1     -27.873  -1.951  29.737  0.00  0.00    +0.139 A 
ENDROOT
BRANCH   3   7
ATOM      7  C   UNL A   1     -24.549   0.410  28.734  0.00  0.00    +0.001 A 
ATOM      8  C   UNL A   1     -24.479   1.187  27.684  0.00  0.00    +0.011 A 
ATOM      9  C   UNL A   1     -23.283   1.836  27.352  0.00  0.00    +0.058 A 
ATOM     10  C   UNL A   1     -22.103   1.662  28.035  0.00  0.00    +0.011 A 
ATOM     11  C   UNL A   1     -23.324   0.153  29.473  0.00  0.00    +0.000 A 
ATOM     12  C   UNL A   1     -22.117   0.813  29.107  0.00  0.00    +0.001 A 
ATOM     13 CL   UNL A   1     -23.320   2.945  25.986  0.00  0.00    -0.082 Cl
ENDBRANCH   3   7
BRANCH   6  14
ATOM     14  O   UNL A   1     -28.956  -2.710  30.097  0.00  0.00    -0.467 OA
BRANCH  14  15
ATOM     15  C   UNL A   1     -30.067  -2.139  30.596  0.00  0.00    +0.272 C 
BRANCH  15  16
ATOM     16  C   UNL A   1     -31.166  -2.693  30.142  0.00  0.00    +0.404 C 
ATOM     17  O   UNL A   1     -32.053  -2.120  29.658  0.00  0.00    -0.242 OA
ATOM     18  O   UNL A   1     -31.349  -4.034  30.218  0.00  0.00    -0.242 OA
ENDBRANCH  15  16
BRANCH  15  19
ATOM     19  C   UNL A   1     -29.954  -2.186  32.164  0.00  0.00    +0.082 C 
BRANCH  19  20
ATOM     20  C   UNL A   1     -29.975  -3.076  32.851  0.00  0.00    -0.022 C 
ATOM     21  C   UNL A   1     -30.149  -4.192  32.584  0.00  0.00    -0.005 C 
ENDBRANCH  19  20
ENDBRANCH  15  19
ENDBRANCH  14  15
ENDBRANCH   6  14
TORSDOF 6
