REMARK  Name = outputs/IAG933/test6/raw/output_3831_IAG933_linker_design_.xyz
REMARK  14 active torsions:
REMARK  status: ('A' for Active; 'I' for Inactive)
REMARK    1  A    between atoms: C_1  and  C_2
REMARK    2  A    between atoms: C_1  and  C_8
REMARK    3  A    between atoms: C_1  and  C_32
REMARK    4  A    between atoms: C_13  and  C_28
REMARK    5  A    between atoms: C_14  and  C_15
REMARK    6  A    between atoms: C_21  and  O_22
REMARK    7  A    between atoms: O_22  and  C_23
REMARK    8  A    between atoms: C_23  and  C_24
REMARK    9  A    between atoms: C_28  and  C_42
REMARK   10  A    between atoms: C_29  and  O_30
REMARK   11  A    between atoms: O_30  and  C_42
REMARK   12  A    between atoms: C_32  and  C_37
REMARK   13  A    between atoms: C_32  and  C_42
REMARK   14  A    between atoms: C_35  and  C_40
REMARK                            x       y       z     vdW  Elec       q    Type
REMARK                         _______ _______ _______ _____ _____    ______ ____
ROOT
ATOM      1  C   UNL A   1     -25.724  -0.183  29.220  0.00  0.00    +0.056 C 
ENDROOT
BRANCH   1   7
ATOM      2  N   UNL A   1     -29.443  -0.036  28.835  0.00  0.00    -0.181 N 
ATOM      3  N   UNL A   1     -30.851   0.546  26.992  0.00  0.00    +0.188 NA
ATOM      4  C   UNL A   1     -29.252   1.141  29.443  0.00  0.00    +0.247 C 
ATOM      5  C   UNL A   1     -30.547  -0.197  28.038  0.00  0.00    +0.353 C 
ATOM      6  N   UNL A   1     -27.205   2.430  29.482  0.00  0.00    -0.129 NA
ATOM      7  C   UNL A   1     -27.223  -0.003  29.276  0.00  0.00    +0.021 C 
ATOM      8  C   UNL A   1     -28.339  -0.831  28.982  0.00  0.00    +0.227 C 
ATOM      9  C   UNL A   1     -27.811   1.217  29.498  0.00  0.00    +0.110 C 
BRANCH   5  11
ATOM     10  C   UNL A   1     -32.716  -1.314  27.429  0.00  0.00    +0.013 C 
ATOM     11  C   UNL A   1     -31.519  -1.284  28.386  0.00  0.00    +0.122 C 
ENDBRANCH   5  11
ENDBRANCH   1   7
BRANCH   1  12
ATOM     12  C   UNL A   1     -24.855  -1.012  30.143  0.00  0.00    +0.045 C 
BRANCH  12  13
ATOM     13  C   UNL A   1     -24.973  -2.505  29.788  0.00  0.00    -0.021 C 
ATOM     14  C   UNL A   1     -23.906  -3.173  29.146  0.00  0.00    -0.004 C 
ATOM     15  C   UNL A   1     -23.989  -4.549  28.853  0.00  0.00    -0.000 C 
ATOM     16  C   UNL A   1     -25.137  -5.280  29.205  0.00  0.00    -0.000 C 
ATOM     17  C   UNL A   1     -26.232  -4.611  29.784  0.00  0.00    -0.000 C 
ATOM     18  C   UNL A   1     -26.155  -3.232  30.065  0.00  0.00    -0.004 C 
ENDBRANCH  12  13
BRANCH  12  19
ATOM     19  C   UNL A   1     -25.387  -0.679  31.571  0.00  0.00    +0.077 C 
ATOM     20  C   UNL A   1     -25.189   0.773  32.028  0.00  0.00    +0.019 C 
ATOM     21  C   UNL A   1     -25.336   0.684  33.544  0.00  0.00    +0.020 C 
ATOM     22  C   UNL A   1     -24.829  -0.715  33.905  0.00  0.00    +0.089 C 
ATOM     23  N   UNL A   1     -24.758  -1.481  32.646  0.00  0.00    -0.219 NA
ENDBRANCH  12  19
ENDBRANCH   1  12
BRANCH   1  24
ATOM     24  C   UNL A   1     -24.822   0.760  28.466  0.00  0.00    +0.124 C 
BRANCH  24  25
ATOM     25  C   UNL A   1     -24.635   1.310  27.230  0.00  0.00    +0.059 C 
BRANCH  25  26
ATOM     26  C   UNL A   1     -25.688   1.614  26.461  0.00  0.00    +0.018 C 
ATOM     27  C   UNL A   1     -26.250   2.920  26.395  0.00  0.00    +0.073 C 
ATOM     28  C   UNL A   1     -27.438   3.091  25.645  0.00  0.00    +0.106 C 
ATOM     29  N   UNL A   1     -28.075   2.089  25.003  0.00  0.00    -0.208 NA
ATOM     30  C   UNL A   1     -27.543   0.849  25.079  0.00  0.00    +0.253 C 
ATOM     31  C   UNL A   1     -26.354   0.576  25.777  0.00  0.00    +0.189 C 
ATOM     32  F   UNL A   1     -25.860  -0.681  25.795  0.00  0.00    -0.200 F 
BRANCH  27  33
ATOM     33  C   UNL A   1     -25.642   4.093  27.123  0.00  0.00    +0.266 C 
ATOM     34  N   UNL A   1     -25.614   5.252  26.449  0.00  0.00    -0.200 NA
ATOM     35  C   UNL A   1     -25.026   6.479  26.963  0.00  0.00    +0.139 C 
ATOM     36  O   UNL A   1     -25.143   3.966  28.243  0.00  0.00    -0.268 OA
ENDBRANCH  27  33
BRANCH  30  37
ATOM     37  O   UNL A   1     -28.193  -0.208  24.477  0.00  0.00    -0.456 OA
BRANCH  37  38
ATOM     38  C   UNL A   1     -29.460   0.005  23.866  0.00  0.00    +0.243 C 
BRANCH  38  39
ATOM     39  C   UNL A   1     -30.065  -1.377  23.573  0.00  0.00    +0.229 C 
ATOM     40  O   UNL A   1     -30.729  -1.878  24.721  0.00  0.00    -0.216 OA
ENDBRANCH  38  39
ENDBRANCH  37  38
ENDBRANCH  30  37
ENDBRANCH  25  26
ENDBRANCH  24  25
BRANCH  24  41
ATOM     41  O   UNL A   1     -23.533   0.645  29.096  0.00  0.00    -0.356 OA
BRANCH  41  42
ATOM     42  C   UNL A   1     -22.288   1.125  28.579  0.00  0.00    +0.142 C 
ATOM     43  C   UNL A   1     -21.221   1.482  27.884  0.00  0.00    +0.035 C 
ENDBRANCH  41  42
ENDBRANCH  24  41
ENDBRANCH   1  24
TORSDOF 14
