MODEL 3831
MODEL 1
REMARK VINA RESULT:    -6.074      0.000      0.000
REMARK INTER + INTRA:          -7.291
REMARK INTER:                  -6.785
REMARK INTRA:                  -0.507
REMARK UNBOUND:                -0.507
REMARK  Name = No_3831-gen_results/8p0m/2024-11-27-11-27-31/
REMARK  2 active torsions:
REMARK  status: ('A' for Active; 'I' for Inactive)
REMARK    1  A    between atoms: C_4  and  C_12
REMARK    2  A    between atoms: C_12  and  C_13
REMARK                            x       y       z     vdW  Elec       q    Type
REMARK                         _______ _______ _______ _____ _____    ______ ____
ROOT
ATOM      1  C   UNL A   1     -22.581   1.896  27.809  0.00  0.00    +0.000 C 
ATOM      2  C   UNL A   1     -21.677   1.489  27.453  0.00  0.00    +0.000 C 
ATOM      3  C   UNL A   1     -23.564   0.887  28.202  0.00  0.00    +0.000 C 
ATOM      4  C   UNL A   1     -23.378   0.177  29.190  0.00  0.00    +0.004 C 
ATOM      5  C   UNL A   1     -22.060  -0.655  29.072  0.00  0.00    +0.000 C 
ATOM      6  C   UNL A   1     -20.790   0.439  28.210  0.00  0.00    +0.000 C 
ATOM      7  C   UNL A   1     -25.055   1.507  28.420  0.00  0.00    +0.000 C 
ATOM      8  C   UNL A   1     -25.752   1.966  27.607  0.00  0.00    +0.000 C 
ATOM      9  C   UNL A   1     -25.346   1.944  26.229  0.00  0.00    +0.000 C 
ATOM     10  C   UNL A   1     -24.535   1.161  25.783  0.00  0.00    +0.000 C 
ATOM     11  C   UNL A   1     -24.073   0.152  26.907  0.00  0.00    +0.000 C 
ENDROOT
BRANCH   4  12
ATOM     12  C   UNL A   1     -24.256  -0.898  29.697  0.00  0.00    +0.026 C 
BRANCH  12  13
ATOM     13  C   UNL A   1     -23.820  -2.280  29.664  0.00  0.00    -0.031 C 
ATOM     14  C   UNL A   1     -24.521  -3.161  28.777  0.00  0.00    -0.030 C 
ATOM     15  C   UNL A   1     -24.106  -4.508  28.572  0.00  0.00    +0.030 C 
ENDBRANCH  12  13
ENDBRANCH   4  12
TORSDOF 2
ENDMDL
ENDMDL
