REMARK  Name = outputs/IAG933/test6/raw/output_3832_IAG933_linker_design_.xyz
REMARK  11 active torsions:
REMARK  status: ('A' for Active; 'I' for Inactive)
REMARK    1  A    between atoms: C_1  and  C_2
REMARK    2  A    between atoms: C_1  and  C_8
REMARK    3  A    between atoms: C_1  and  N_33
REMARK    4  A    between atoms: C_13  and  C_39
REMARK    5  A    between atoms: C_14  and  C_15
REMARK    6  A    between atoms: C_21  and  O_22
REMARK    7  A    between atoms: O_22  and  C_23
REMARK    8  A    between atoms: C_23  and  C_24
REMARK    9  A    between atoms: C_38  and  N_40
REMARK   10  A    between atoms: C_38  and  C_42
REMARK   11  A    between atoms: C_42  and  C_43
REMARK                            x       y       z     vdW  Elec       q    Type
REMARK                         _______ _______ _______ _____ _____    ______ ____
ROOT
ATOM      1  C   UNL A   1     -22.279   0.867  28.222  0.00  0.00    +0.102 C 
ATOM      2  N   UNL A   1     -21.068   1.241  27.814  0.00  0.00    -0.080 NA
ATOM      3  O   UNL A   1     -23.079   2.346  25.048  0.00  0.00    -0.247 OA
ATOM      4  N   UNL A   1     -24.186   0.234  29.648  0.00  0.00    -0.266 NA
ATOM      5  O   UNL A   1     -21.197   1.893  26.556  0.00  0.00    -0.316 OA
ATOM      6  C   UNL A   1     -23.229   1.278  27.226  0.00  0.00    +0.144 C 
ATOM      7  C   UNL A   1     -22.527   1.914  26.191  0.00  0.00    +0.349 C 
ATOM      8  C   UNL A   1     -22.725   0.170  29.521  0.00  0.00    +0.118 C 
ATOM      9  C   UNL A   1     -24.633   1.433  27.600  0.00  0.00    +0.038 C 
ATOM     10  C   UNL A   1     -24.726   1.324  29.024  0.00  0.00    +0.061 C 
ENDROOT
BRANCH   9  11
ATOM     11  C   UNL A   1     -25.688   1.614  26.461  0.00  0.00    +0.072 C 
ATOM     12  C   UNL A   1     -26.250   2.920  26.395  0.00  0.00    +0.055 C 
ATOM     13  C   UNL A   1     -27.438   3.091  25.645  0.00  0.00    +0.102 C 
ATOM     14  N   UNL A   1     -28.075   2.089  25.003  0.00  0.00    -0.212 NA
ATOM     15  C   UNL A   1     -27.543   0.849  25.079  0.00  0.00    +0.234 C 
ATOM     16  C   UNL A   1     -26.354   0.576  25.777  0.00  0.00    +0.240 C 
ATOM     17  F   UNL A   1     -25.860  -0.681  25.795  0.00  0.00    -0.227 F 
BRANCH  12  18
ATOM     18  C   UNL A   1     -25.642   4.093  27.123  0.00  0.00    +0.262 C 
ATOM     19  N   UNL A   1     -25.614   5.252  26.449  0.00  0.00    -0.200 NA
ATOM     20  C   UNL A   1     -25.026   6.479  26.963  0.00  0.00    +0.139 C 
ATOM     21  O   UNL A   1     -25.143   3.966  28.243  0.00  0.00    -0.269 OA
ENDBRANCH  12  18
BRANCH  15  22
ATOM     22  O   UNL A   1     -28.193  -0.208  24.477  0.00  0.00    -0.459 OA
BRANCH  22  23
ATOM     23  C   UNL A   1     -29.460   0.005  23.866  0.00  0.00    +0.242 C 
BRANCH  23  24
ATOM     24  C   UNL A   1     -30.065  -1.377  23.573  0.00  0.00    +0.229 C 
ATOM     25  O   UNL A   1     -30.729  -1.878  24.721  0.00  0.00    -0.216 OA
ENDBRANCH  23  24
ENDBRANCH  22  23
ENDBRANCH  15  22
ENDBRANCH   9  11
BRANCH   4  26
ATOM     26  C   UNL A   1     -24.855  -1.012  30.143  0.00  0.00    +0.097 C 
BRANCH  26  27
ATOM     27  C   UNL A   1     -24.973  -2.505  29.788  0.00  0.00    -0.006 C 
ATOM     28  C   UNL A   1     -23.906  -3.173  29.146  0.00  0.00    -0.003 C 
ATOM     29  C   UNL A   1     -23.989  -4.549  28.853  0.00  0.00    -0.000 C 
ATOM     30  C   UNL A   1     -25.137  -5.280  29.205  0.00  0.00    -0.000 C 
ATOM     31  C   UNL A   1     -26.232  -4.611  29.784  0.00  0.00    -0.000 C 
ATOM     32  C   UNL A   1     -26.155  -3.232  30.065  0.00  0.00    -0.003 C 
ENDBRANCH  26  27
BRANCH  26  33
ATOM     33  C   UNL A   1     -25.387  -0.679  31.571  0.00  0.00    +0.092 C 
ATOM     34  C   UNL A   1     -25.189   0.773  32.028  0.00  0.00    +0.021 C 
ATOM     35  C   UNL A   1     -25.336   0.684  33.544  0.00  0.00    +0.020 C 
ATOM     36  C   UNL A   1     -24.829  -0.715  33.905  0.00  0.00    +0.089 C 
ATOM     37  N   UNL A   1     -24.758  -1.481  32.646  0.00  0.00    -0.218 NA
ENDBRANCH  26  33
ENDBRANCH   4  26
BRANCH  10  38
ATOM     38  C   UNL A   1     -24.983   2.700  30.164  0.00  0.00    +0.040 C 
BRANCH  38  39
ATOM     39  C   UNL A   1     -25.097   4.226  30.842  0.00  0.00    +0.118 C 
BRANCH  39  42
ATOM     40  N   UNL A   1     -28.082   5.787  29.757  0.00  0.00    -0.068 NA
ATOM     41  C   UNL A   1     -27.012   5.728  30.605  0.00  0.00    +0.359 C 
ATOM     42  N   UNL A   1     -26.507   4.545  30.793  0.00  0.00    -0.186 NA
ATOM     43  O   UNL A   1     -26.572   6.695  31.234  0.00  0.00    -0.247 OA
ENDBRANCH  39  42
ENDBRANCH  38  39
ENDBRANCH  10  38
TORSDOF 11
