REMARK  Name = outputs/IAG933/test6/raw/output_3833_IAG933_linker_design_.xyz
REMARK  14 active torsions:
REMARK  status: ('A' for Active; 'I' for Inactive)
REMARK    1  A    between atoms: C_1  and  C_2
REMARK    2  A    between atoms: C_1  and  C_8
REMARK    3  A    between atoms: C_1  and  C_38
REMARK    4  A    between atoms: C_13  and  C_40
REMARK    5  A    between atoms: C_14  and  C_15
REMARK    6  A    between atoms: C_21  and  O_22
REMARK    7  A    between atoms: O_22  and  C_23
REMARK    8  A    between atoms: C_23  and  C_24
REMARK    9  A    between atoms: C_29  and  C_39
REMARK   10  A    between atoms: C_32  and  C_36
REMARK   11  A    between atoms: C_32  and  C_41
REMARK   12  A    between atoms: C_37  and  C_41
REMARK   13  A    between atoms: C_39  and  C_40
REMARK   14  A    between atoms: C_40  and  C_42
REMARK                            x       y       z     vdW  Elec       q    Type
REMARK                         _______ _______ _______ _____ _____    ______ ____
ROOT
ATOM      1  C   UNL A   1     -24.737   1.378  27.456  0.00  0.00    +0.032 C 
ENDROOT
BRANCH   1   2
ATOM      2  C   UNL A   1     -25.688   1.614  26.461  0.00  0.00    +0.072 C 
ATOM      3  C   UNL A   1     -26.250   2.920  26.395  0.00  0.00    +0.055 C 
ATOM      4  C   UNL A   1     -27.438   3.091  25.645  0.00  0.00    +0.102 C 
ATOM      5  N   UNL A   1     -28.075   2.089  25.003  0.00  0.00    -0.212 NA
ATOM      6  C   UNL A   1     -27.543   0.849  25.079  0.00  0.00    +0.234 C 
ATOM      7  C   UNL A   1     -26.354   0.576  25.777  0.00  0.00    +0.240 C 
ATOM      8  F   UNL A   1     -25.860  -0.681  25.795  0.00  0.00    -0.227 F 
BRANCH   3   9
ATOM      9  C   UNL A   1     -25.642   4.093  27.123  0.00  0.00    +0.262 C 
ATOM     10  N   UNL A   1     -25.614   5.252  26.449  0.00  0.00    -0.200 NA
ATOM     11  C   UNL A   1     -25.026   6.479  26.963  0.00  0.00    +0.139 C 
ATOM     12  O   UNL A   1     -25.143   3.966  28.243  0.00  0.00    -0.269 OA
ENDBRANCH   3   9
BRANCH   6  13
ATOM     13  O   UNL A   1     -28.193  -0.208  24.477  0.00  0.00    -0.459 OA
BRANCH  13  14
ATOM     14  C   UNL A   1     -29.460   0.005  23.866  0.00  0.00    +0.242 C 
BRANCH  14  15
ATOM     15  C   UNL A   1     -30.065  -1.377  23.573  0.00  0.00    +0.229 C 
ATOM     16  O   UNL A   1     -30.729  -1.878  24.721  0.00  0.00    -0.216 OA
ENDBRANCH  14  15
ENDBRANCH  13  14
ENDBRANCH   6  13
ENDBRANCH   1   2
BRANCH   1  19
ATOM     17  C   UNL A   1     -26.800   0.953  29.331  0.00  0.00    +0.058 C 
ATOM     18  C   UNL A   1     -25.793  -0.307  29.120  0.00  0.00    +0.013 C 
ATOM     19  C   UNL A   1     -25.356   0.813  28.629  0.00  0.00    +0.010 C 
BRANCH  17  21
ATOM     20  O   UNL A   1     -28.533   0.005  28.019  0.00  0.00    -0.296 OA
ATOM     21  C   UNL A   1     -28.143   0.943  28.669  0.00  0.00    +0.150 C 
BRANCH  21  22
ATOM     22  C   UNL A   1     -29.028   2.125  28.891  0.00  0.00    +0.058 C 
ATOM     23  C   UNL A   1     -29.822   2.756  27.726  0.00  0.00    +0.008 C 
BRANCH  22  25
ATOM     24  C   UNL A   1     -28.236   2.323  31.144  0.00  0.00    +0.000 C 
ATOM     25  C   UNL A   1     -28.357   3.062  29.832  0.00  0.00    +0.007 C 
ENDBRANCH  22  25
ENDBRANCH  21  22
ENDBRANCH  17  21
BRANCH  18  26
ATOM     26  C   UNL A   1     -24.855  -1.012  30.143  0.00  0.00    +0.039 C 
BRANCH  26  27
ATOM     27  C   UNL A   1     -24.973  -2.505  29.788  0.00  0.00    -0.021 C 
ATOM     28  C   UNL A   1     -23.906  -3.173  29.146  0.00  0.00    -0.004 C 
ATOM     29  C   UNL A   1     -23.989  -4.549  28.853  0.00  0.00    -0.000 C 
ATOM     30  C   UNL A   1     -25.137  -5.280  29.205  0.00  0.00    -0.000 C 
ATOM     31  C   UNL A   1     -26.232  -4.611  29.784  0.00  0.00    -0.000 C 
ATOM     32  C   UNL A   1     -26.155  -3.232  30.065  0.00  0.00    -0.004 C 
ENDBRANCH  26  27
BRANCH  26  33
ATOM     33  C   UNL A   1     -25.387  -0.679  31.571  0.00  0.00    +0.077 C 
ATOM     34  C   UNL A   1     -25.189   0.773  32.028  0.00  0.00    +0.019 C 
ATOM     35  C   UNL A   1     -25.336   0.684  33.544  0.00  0.00    +0.020 C 
ATOM     36  C   UNL A   1     -24.829  -0.715  33.905  0.00  0.00    +0.089 C 
ATOM     37  N   UNL A   1     -24.758  -1.481  32.646  0.00  0.00    -0.219 NA
ENDBRANCH  26  33
ENDBRANCH  18  26
ENDBRANCH   1  19
BRANCH   1  39
ATOM     38 CL   UNL A   1     -22.702   2.441  25.887  0.00  0.00    -0.105 Cl
ATOM     39  C   UNL A   1     -23.429   1.480  27.244  0.00  0.00    +0.160 C 
BRANCH  39  41
ATOM     40  O   UNL A   1     -22.853  -0.161  28.777  0.00  0.00    -0.270 OA
ATOM     41  C   UNL A   1     -22.507   0.844  28.102  0.00  0.00    +0.276 C 
ATOM     42  N   UNL A   1     -21.277   1.255  28.117  0.00  0.00    -0.087 NA
ENDBRANCH  39  41
ENDBRANCH   1  39
TORSDOF 14
