MODEL 3835
MODEL 1
REMARK VINA RESULT:    -5.703      0.000      0.000
REMARK INTER + INTRA:          -6.088
REMARK INTER:                  -6.036
REMARK INTRA:                  -0.052
REMARK UNBOUND:                -0.052
REMARK  Name = No_3835-gen_results/8p0m/2024-11-27-11-27-31/
REMARK  1 active torsions:
REMARK  status: ('A' for Active; 'I' for Inactive)
REMARK    1  A    between atoms: C_8  and  C_9
REMARK                            x       y       z     vdW  Elec       q    Type
REMARK                         _______ _______ _______ _____ _____    ______ ____
ROOT
ATOM      1  C   UNL A   1     -24.278  -2.745  28.889  0.00  0.00    -0.026 A 
ATOM      2  C   UNL A   1     -23.448  -2.105  28.994  0.00  0.00    -0.001 A 
ATOM      3  C   UNL A   1     -24.004  -4.153  28.950  0.00  0.00    +0.026 C 
ATOM      4  C   UNL A   1     -25.102  -5.138  29.024  0.00  0.00    +0.005 C 
ATOM      5  C   UNL A   1     -26.314  -4.767  29.635  0.00  0.00    +0.005 C 
ATOM      6  C   UNL A   1     -26.515  -3.416  29.988  0.00  0.00    +0.026 C 
ATOM      7  C   UNL A   1     -25.558  -2.497  29.766  0.00  0.00    -0.026 A 
ATOM      8  C   UNL A   1     -23.641  -0.574  28.824  0.00  0.00    +0.042 A 
ATOM      9  C   UNL A   1     -24.402  -0.084  29.994  0.00  0.00    +0.003 A 
ATOM     10  C   UNL A   1     -25.688  -1.059  30.211  0.00  0.00    -0.004 A 
ENDROOT
BRANCH   8  11
ATOM     11  C   UNL A   1     -22.733   0.275  28.361  0.00  0.00    +0.234 C 
ATOM     12  O   UNL A   1     -21.651   0.055  28.629  0.00  0.00    -0.283 OA
ENDBRANCH   8  11
TORSDOF 1
ENDMDL
ENDMDL
