REMARK  Name = No_3836-gen_results/8p0m/2024-11-27-11-27-31/
REMARK  2 active torsions:
REMARK  status: ('A' for Active; 'I' for Inactive)
REMARK    1  A    between atoms: C_5  and  C_18
REMARK    2  A    between atoms: C_19  and  C_20
REMARK                            x       y       z     vdW  Elec       q    Type
REMARK                         _______ _______ _______ _____ _____    ______ ____
ROOT
ATOM      1  O   UNL A   1     -28.123  -1.335  28.487  0.00  0.00    -0.270 OA
ATOM      2  C   UNL A   1     -27.481  -0.404  28.709  0.00  0.00    +0.253 C 
ATOM      3  C   UNL A   1     -26.380  -0.087  27.939  0.00  0.00    +0.050 A 
ATOM      4  N   UNL A   1     -27.666   0.447  29.899  0.00  0.00    -0.254 N 
ATOM      5  C   UNL A   1     -26.409   0.857  26.880  0.00  0.00    +0.004 A 
ATOM      6  C   UNL A   1     -25.247   1.120  26.110  0.00  0.00    +0.000 A 
ATOM      7  C   UNL A   1     -23.999   0.750  26.596  0.00  0.00    -0.000 A 
ATOM      8  C   UNL A   1     -23.941   0.039  27.787  0.00  0.00    -0.004 A 
ATOM      9  C   UNL A   1     -25.042  -0.384  28.468  0.00  0.00    -0.013 A 
ATOM     10  C   UNL A   1     -28.762   0.114  30.768  0.00  0.00    +0.120 C 
ATOM     11  C   UNL A   1     -26.851   1.521  30.210  0.00  0.00    +0.051 A 
ATOM     12  C   UNL A   1     -27.013   2.398  30.707  0.00  0.00    +0.015 A 
ATOM     13  C   UNL A   1     -26.028   3.493  30.953  0.00  0.00    +0.001 A 
ATOM     14  C   UNL A   1     -24.805   3.297  30.240  0.00  0.00    -0.000 A 
ATOM     15  C   UNL A   1     -24.616   2.236  29.461  0.00  0.00    -0.003 A 
ATOM     16  C   UNL A   1     -25.544   1.369  29.450  0.00  0.00    -0.004 A 
ATOM     17  C   UNL A   1     -24.926   0.225  29.456  0.00  0.00    +0.054 C 
ENDROOT
BRANCH   5  18
ATOM     18  C   UNL A   1     -27.696   1.194  26.231  0.00  0.00    +0.000 C 
ATOM     19  C   UNL A   1     -27.812   1.902  25.194  0.00  0.00    +0.000 C 
BRANCH  19  20
ATOM     20  C   UNL A   1     -29.081   2.220  24.744  0.00  0.00    +0.000 A 
ATOM     21  C   UNL A   1     -29.268   3.354  23.875  0.00  0.00    +0.000 A 
ATOM     22  C   UNL A   1     -30.217   1.467  25.006  0.00  0.00    +0.000 A 
ATOM     23  C   UNL A   1     -30.563   3.648  23.481  0.00  0.00    +0.000 A 
ATOM     24  C   UNL A   1     -31.459   1.733  24.537  0.00  0.00    +0.000 A 
ATOM     25  C   UNL A   1     -31.657   2.906  23.747  0.00  0.00    +0.000 A 
ENDBRANCH  19  20
ENDBRANCH   5  18
TORSDOF 2
