MODEL 3837
MODEL 1
REMARK VINA RESULT:    -6.753      0.000      0.000
REMARK INTER + INTRA:         -10.832
REMARK INTER:                  -8.727
REMARK INTRA:                  -2.104
REMARK UNBOUND:                -2.104
REMARK  Name = No_3837-gen_results/8p0m/2024-11-27-11-27-31/
REMARK  5 active torsions:
REMARK  status: ('A' for Active; 'I' for Inactive)
REMARK    1  A    between atoms: C_2  and  C_5
REMARK    2  A    between atoms: C_3  and  C_17
REMARK    3  A    between atoms: N_9  and  C_11
REMARK    4  A    between atoms: C_15  and  C_24
REMARK    5  A    between atoms: C_17  and  C_18
REMARK                            x       y       z     vdW  Elec       q    Type
REMARK                         _______ _______ _______ _____ _____    ______ ____
ROOT
ATOM      1  C   UNL A   1     -25.970   1.848  26.890  0.00  0.00    +0.001 A 
ATOM      2  C   UNL A   1     -26.822   1.308  26.586  0.00  0.00    +0.054 A 
ATOM      3  C   UNL A   1     -24.711   1.543  26.191  0.00  0.00    -0.018 A 
ATOM      4  C   UNL A   1     -24.700   0.662  25.070  0.00  0.00    -0.004 A 
ATOM      5  C   UNL A   1     -25.928   0.110  24.767  0.00  0.00    -0.000 A 
ATOM      6  C   UNL A   1     -27.050   0.412  25.458  0.00  0.00    +0.004 A 
ENDROOT
BRANCH   2   7
ATOM      7  C   UNL A   1     -28.161   1.619  27.276  0.00  0.00    +0.253 C 
ATOM      8  O   UNL A   1     -29.037   2.044  26.656  0.00  0.00    -0.270 OA
ATOM      9  N   UNL A   1     -28.345   1.083  28.510  0.00  0.00    -0.253 N 
ATOM     10  C   UNL A   1     -29.531   1.392  29.238  0.00  0.00    +0.120 C 
BRANCH   9  11
ATOM     11  C   UNL A   1     -27.254   0.537  29.225  0.00  0.00    +0.054 A 
ATOM     12  C   UNL A   1     -26.791   1.467  30.192  0.00  0.00    +0.015 A 
ATOM     13  C   UNL A   1     -26.058   0.939  31.153  0.00  0.00    +0.001 A 
ATOM     14  C   UNL A   1     -25.578  -0.426  31.181  0.00  0.00    +0.000 A 
ATOM     15  C   UNL A   1     -26.084  -1.237  30.168  0.00  0.00    +0.001 A 
ATOM     16  C   UNL A   1     -26.993  -0.755  29.250  0.00  0.00    +0.015 A 
BRANCH  15  17
ATOM     17  C   UNL A   1     -25.590  -2.665  30.218  0.00  0.00    -0.004 C 
ATOM     18  C   UNL A   1     -25.318  -3.263  28.985  0.00  0.00    -0.026 C 
ATOM     19  C   UNL A   1     -24.136  -3.783  28.764  0.00  0.00    +0.031 C 
ENDBRANCH  15  17
ENDBRANCH   9  11
ENDBRANCH   2   7
BRANCH   3  20
ATOM     20  C   UNL A   1     -23.376   2.104  26.579  0.00  0.00    +0.053 C 
BRANCH  20  21
ATOM     21  C   UNL A   1     -22.580   1.261  27.513  0.00  0.00    -0.018 A 
ATOM     22  C   UNL A   1     -21.260   1.323  27.474  0.00  0.00    -0.004 A 
ATOM     23  C   UNL A   1     -20.520   0.428  28.314  0.00  0.00    -0.000 A 
ATOM     24  C   UNL A   1     -21.201  -0.548  29.136  0.00  0.00    -0.000 A 
ATOM     25  C   UNL A   1     -23.197   0.264  28.334  0.00  0.00    -0.004 A 
ATOM     26  C   UNL A   1     -22.504  -0.580  29.132  0.00  0.00    -0.000 A 
ENDBRANCH  20  21
ENDBRANCH   3  20
TORSDOF 5
ENDMDL
ENDMDL
