REMARK  Name = outputs/IAG933/test6/raw/output_3837_IAG933_linker_design_.xyz
REMARK  13 active torsions:
REMARK  status: ('A' for Active; 'I' for Inactive)
REMARK    1  A    between atoms: C_1  and  C_2
REMARK    2  A    between atoms: C_1  and  C_8
REMARK    3  A    between atoms: C_1  and  N_35
REMARK    4  A    between atoms: C_13  and  C_34
REMARK    5  A    between atoms: C_14  and  C_15
REMARK    6  A    between atoms: C_21  and  O_22
REMARK    7  A    between atoms: O_22  and  C_23
REMARK    8  A    between atoms: C_23  and  C_24
REMARK    9  A    between atoms: C_28  and  C_29
REMARK   10  A    between atoms: C_28  and  C_36
REMARK   11  A    between atoms: C_31  and  N_35
REMARK   12  A    between atoms: C_31  and  C_41
REMARK   13  A    between atoms: C_33  and  N_35
REMARK                            x       y       z     vdW  Elec       q    Type
REMARK                         _______ _______ _______ _____ _____    ______ ____
ROOT
ATOM      1  C   UNL A   1     -23.050   1.803  26.576  0.00  0.00    +0.059 C 
ATOM      2  C   UNL A   1     -21.852   1.644  27.279  0.00  0.00    +0.011 C 
ATOM      3  C   UNL A   1     -24.287   0.696  28.384  0.00  0.00    +0.049 C 
ATOM      4  C   UNL A   1     -24.339   1.360  27.129  0.00  0.00    +0.026 C 
ATOM      5 CL   UNL A   1     -22.951   2.502  25.065  0.00  0.00    -0.082 Cl
ATOM      6  C   UNL A   1     -21.867   1.279  28.602  0.00  0.00    +0.002 C 
ATOM      7  C   UNL A   1     -23.108   0.873  29.190  0.00  0.00    +0.015 C 
ENDROOT
BRANCH   4   8
ATOM      8  C   UNL A   1     -25.688   1.614  26.461  0.00  0.00    +0.040 C 
ATOM      9  C   UNL A   1     -26.250   2.920  26.395  0.00  0.00    +0.077 C 
ATOM     10  C   UNL A   1     -27.438   3.091  25.645  0.00  0.00    +0.107 C 
ATOM     11  N   UNL A   1     -28.075   2.089  25.003  0.00  0.00    -0.208 NA
ATOM     12  C   UNL A   1     -27.543   0.849  25.079  0.00  0.00    +0.253 C 
ATOM     13  C   UNL A   1     -26.354   0.576  25.777  0.00  0.00    +0.193 C 
ATOM     14  F   UNL A   1     -25.860  -0.681  25.795  0.00  0.00    -0.199 F 
BRANCH   9  15
ATOM     15  C   UNL A   1     -25.642   4.093  27.123  0.00  0.00    +0.266 C 
ATOM     16  N   UNL A   1     -25.614   5.252  26.449  0.00  0.00    -0.200 NA
ATOM     17  C   UNL A   1     -25.026   6.479  26.963  0.00  0.00    +0.139 C 
ATOM     18  O   UNL A   1     -25.143   3.966  28.243  0.00  0.00    -0.268 OA
ENDBRANCH   9  15
BRANCH  12  19
ATOM     19  O   UNL A   1     -28.193  -0.208  24.477  0.00  0.00    -0.456 OA
BRANCH  19  20
ATOM     20  C   UNL A   1     -29.460   0.005  23.866  0.00  0.00    +0.243 C 
BRANCH  20  21
ATOM     21  C   UNL A   1     -30.065  -1.377  23.573  0.00  0.00    +0.229 C 
ATOM     22  O   UNL A   1     -30.729  -1.878  24.721  0.00  0.00    -0.216 OA
ENDBRANCH  20  21
ENDBRANCH  19  20
ENDBRANCH  12  19
ENDBRANCH   4   8
BRANCH   3  23
ATOM     23  N   UNL A   1     -25.269  -0.119  29.080  0.00  0.00    -0.300 N 
BRANCH  23  24
ATOM     24  C   UNL A   1     -24.855  -1.012  30.143  0.00  0.00    +0.112 C 
BRANCH  24  25
ATOM     25  C   UNL A   1     -24.973  -2.505  29.788  0.00  0.00    -0.003 C 
ATOM     26  C   UNL A   1     -23.906  -3.173  29.146  0.00  0.00    -0.003 C 
ATOM     27  C   UNL A   1     -23.989  -4.549  28.853  0.00  0.00    -0.000 C 
ATOM     28  C   UNL A   1     -25.137  -5.280  29.205  0.00  0.00    -0.000 C 
ATOM     29  C   UNL A   1     -26.232  -4.611  29.784  0.00  0.00    -0.000 C 
ATOM     30  C   UNL A   1     -26.155  -3.232  30.065  0.00  0.00    -0.003 C 
ENDBRANCH  24  25
BRANCH  24  31
ATOM     31  C   UNL A   1     -25.387  -0.679  31.571  0.00  0.00    +0.095 C 
ATOM     32  C   UNL A   1     -25.189   0.773  32.028  0.00  0.00    +0.021 C 
ATOM     33  C   UNL A   1     -25.336   0.684  33.544  0.00  0.00    +0.020 C 
ATOM     34  C   UNL A   1     -24.829  -0.715  33.905  0.00  0.00    +0.089 C 
ATOM     35  N   UNL A   1     -24.758  -1.481  32.646  0.00  0.00    -0.217 NA
ENDBRANCH  24  31
ENDBRANCH  23  24
BRANCH  23  36
ATOM     36  C   UNL A   1     -26.667   0.332  29.246  0.00  0.00    +0.117 C 
BRANCH  36  38
ATOM     37  C   UNL A   1     -27.597   2.257  30.706  0.00  0.00    -0.017 C 
ATOM     38  C   UNL A   1     -26.752   1.848  29.529  0.00  0.00    -0.009 C 
BRANCH  37  39
ATOM     39  C   UNL A   1     -27.540   3.749  31.084  0.00  0.00    +0.140 C 
BRANCH  39  40
ATOM     40  C   UNL A   1     -26.407   4.130  31.975  0.00  0.00    +0.369 C 
ATOM     41  O   UNL A   1     -25.421   4.623  31.453  0.00  0.00    -0.245 OA
ATOM     42  O   UNL A   1     -26.442   3.932  33.255  0.00  0.00    -0.245 OA
ENDBRANCH  39  40
ENDBRANCH  37  39
ENDBRANCH  36  38
ENDBRANCH  23  36
ENDBRANCH   3  23
TORSDOF 13
