REMARK  Name = No_3839-gen_results/8p0m/2024-11-27-11-27-31/
REMARK  3 active torsions:
REMARK  status: ('A' for Active; 'I' for Inactive)
REMARK    1  A    between atoms: C_11  and  C_12
REMARK    2  A    between atoms: N_14  and  C_15
REMARK    3  A    between atoms: C_15  and  C_16
REMARK                            x       y       z     vdW  Elec       q    Type
REMARK                         _______ _______ _______ _____ _____    ______ ____
ROOT
ATOM      1  C   UNL A   1     -28.016  -0.814  28.878  0.00  0.00    +0.011 A 
ATOM      2  C   UNL A   1     -27.064  -0.119  28.608  0.00  0.00    +0.058 A 
ATOM      3  C   UNL A   1     -26.876   1.133  28.913  0.00  0.00    +0.011 A 
ATOM      4  C   UNL A   1     -27.901   1.807  29.644  0.00  0.00    +0.005 A 
ATOM      5  C   UNL A   1     -29.046  -0.232  29.718  0.00  0.00    +0.001 A 
ATOM      6  C   UNL A   1     -28.940   1.052  30.060  0.00  0.00    +0.000 A 
ATOM      7 CL   UNL A   1     -25.677  -0.684  27.617  0.00  0.00    -0.082 Cl
ATOM      8  C   UNL A   1     -30.052   1.474  30.970  0.00  0.00    +0.000 A 
ATOM      9  C   UNL A   1     -29.797   2.616  31.682  0.00  0.00    +0.000 A 
ATOM     10  C   UNL A   1     -28.682   3.457  31.190  0.00  0.00    +0.004 A 
ATOM     11  C   UNL A   1     -27.673   3.061  30.372  0.00  0.00    +0.055 A 
ATOM     12  C   UNL A   1     -30.791   3.255  32.538  0.00  0.00    +0.000 A 
ATOM     13  C   UNL A   1     -30.822   4.324  32.827  0.00  0.00    +0.000 A 
ATOM     14  C   UNL A   1     -31.691   4.939  33.872  0.00  0.00    +0.000 A 
ATOM     15  C   UNL A   1     -31.665   6.293  34.286  0.00  0.00    +0.000 A 
ATOM     16  C   UNL A   1     -30.748   7.159  33.612  0.00  0.00    +0.000 A 
ATOM     17  C   UNL A   1     -29.881   6.679  32.617  0.00  0.00    +0.000 A 
ATOM     18  C   UNL A   1     -29.903   5.386  32.308  0.00  0.00    +0.000 A 
ATOM     19  C   UNL A   1     -28.830   4.790  31.423  0.00  0.00    +0.000 A 
ENDROOT
BRANCH  11  20
ATOM     20  C   UNL A   1     -26.526   3.893  30.033  0.00  0.00    +0.265 C 
ATOM     21  O   UNL A   1     -25.842   3.774  29.143  0.00  0.00    -0.268 OA
ATOM     22  N   UNL A   1     -26.044   4.721  31.113  0.00  0.00    -0.197 NA
BRANCH  22  23
ATOM     23  C   UNL A   1     -24.944   5.630  30.905  0.00  0.00    +0.144 C 
BRANCH  23  24
ATOM     24  C   UNL A   1     -25.351   6.977  31.400  0.00  0.00    +0.027 A 
ATOM     25  C   UNL A   1     -24.627   7.382  32.436  0.00  0.00    -0.000 A 
ATOM     26  C   UNL A   1     -24.872   8.707  33.052  0.00  0.00    -0.000 A 
ATOM     27  C   UNL A   1     -25.853   9.480  32.417  0.00  0.00    +0.002 A 
ATOM     28  C   UNL A   1     -26.268   7.783  30.789  0.00  0.00    +0.138 A 
ATOM     29  C   UNL A   1     -26.513   9.033  31.298  0.00  0.00    +0.029 A 
ATOM     30  F   UNL A   1     -26.870   7.345  29.771  0.00  0.00    -0.204 F 
ENDBRANCH  23  24
ENDBRANCH  22  23
ENDBRANCH  11  20
TORSDOF 3
