MODEL 3839
MODEL 1
REMARK VINA RESULT:    -7.849      0.000      0.000
REMARK INTER + INTRA:         -10.065
REMARK INTER:                  -9.225
REMARK INTRA:                  -0.840
REMARK UNBOUND:                -0.840
REMARK  Name = No_3839-gen_results/8p0m/2024-11-27-11-27-31/
REMARK  3 active torsions:
REMARK  status: ('A' for Active; 'I' for Inactive)
REMARK    1  A    between atoms: C_11  and  C_12
REMARK    2  A    between atoms: N_14  and  C_15
REMARK    3  A    between atoms: C_15  and  C_16
REMARK                            x       y       z     vdW  Elec       q    Type
REMARK                         _______ _______ _______ _____ _____    ______ ____
ROOT
ATOM      1  C   UNL A   1     -16.876   4.349  36.882  0.00  0.00    +0.011 A 
ATOM      2  C   UNL A   1     -16.612   4.245  38.058  0.00  0.00    +0.058 A 
ATOM      3  C   UNL A   1     -15.593   3.640  38.598  0.00  0.00    +0.011 A 
ATOM      4  C   UNL A   1     -14.657   2.997  37.732  0.00  0.00    +0.005 A 
ATOM      5  C   UNL A   1     -15.911   3.821  35.936  0.00  0.00    +0.001 A 
ATOM      6  C   UNL A   1     -14.847   3.169  36.406  0.00  0.00    +0.000 A 
ATOM      7 CL   UNL A   1     -17.667   4.876  39.367  0.00  0.00    -0.082 Cl
ATOM      8  C   UNL A   1     -13.930   2.742  35.303  0.00  0.00    +0.000 A 
ATOM      9  C   UNL A   1     -12.655   2.451  35.709  0.00  0.00    +0.000 A 
ATOM     10  C   UNL A   1     -12.467   2.223  37.160  0.00  0.00    +0.004 A 
ATOM     11  C   UNL A   1     -13.302   2.623  38.153  0.00  0.00    +0.055 A 
ATOM     12  C   UNL A   1     -11.640   1.911  34.810  0.00  0.00    +0.000 A 
ATOM     13  C   UNL A   1     -10.758   1.307  35.099  0.00  0.00    +0.000 A 
ATOM     14  C   UNL A   1      -9.602   0.944  34.227  0.00  0.00    +0.000 A 
ATOM     15  C   UNL A   1      -8.444   0.238  34.631  0.00  0.00    +0.000 A 
ATOM     16  C   UNL A   1      -8.395  -0.203  35.991  0.00  0.00    +0.000 A 
ATOM     17  C   UNL A   1      -9.428   0.090  36.896  0.00  0.00    +0.000 A 
ATOM     18  C   UNL A   1     -10.466   0.810  36.481  0.00  0.00    +0.000 A 
ATOM     19  C   UNL A   1     -11.473   1.348  37.474  0.00  0.00    +0.000 A 
ENDROOT
BRANCH  11  20
ATOM     20  C   UNL A   1     -12.998   2.495  39.573  0.00  0.00    +0.265 C 
ATOM     21  O   UNL A   1     -12.372   3.196  40.198  0.00  0.00    -0.268 OA
ATOM     22  N   UNL A   1     -13.249   1.184  40.125  0.00  0.00    -0.197 NA
BRANCH  22  23
ATOM     23  C   UNL A   1     -13.037   0.928  41.528  0.00  0.00    +0.144 C 
BRANCH  23  24
ATOM     24  C   UNL A   1     -12.221  -0.314  41.658  0.00  0.00    +0.027 A 
ATOM     25  C   UNL A   1     -12.065  -0.948  40.502  0.00  0.00    -0.000 A 
ATOM     26  C   UNL A   1     -11.264  -2.192  40.429  0.00  0.00    -0.000 A 
ATOM     27  C   UNL A   1     -10.661  -2.577  41.634  0.00  0.00    +0.002 A 
ATOM     28  C   UNL A   1     -11.579  -0.704  42.798  0.00  0.00    +0.138 A 
ATOM     29  C   UNL A   1     -10.799  -1.832  42.781  0.00  0.00    +0.029 A 
ATOM     30  F   UNL A   1     -11.731  -0.011  43.841  0.00  0.00    -0.204 F 
ENDBRANCH  23  24
ENDBRANCH  22  23
ENDBRANCH  11  20
TORSDOF 3
ENDMDL
ENDMDL
