MODEL 383
MODEL 1
REMARK VINA RESULT:    -5.991      0.000      0.000
REMARK INTER + INTRA:          -9.052
REMARK INTER:                  -8.093
REMARK INTRA:                  -0.959
REMARK UNBOUND:                -0.959
REMARK  Name = No_383-gen_results/8p0m/2024-11-27-11-27-31/
REMARK  6 active torsions:
REMARK  status: ('A' for Active; 'I' for Inactive)
REMARK    1  A    between atoms: C_3  and  C_7
REMARK    2  A    between atoms: C_6  and  O_13
REMARK    3  A    between atoms: O_13  and  C_14
REMARK    4  A    between atoms: C_14  and  C_15
REMARK    5  A    between atoms: C_14  and  C_19
REMARK    6  A    between atoms: C_19  and  C_20
REMARK                            x       y       z     vdW  Elec       q    Type
REMARK                         _______ _______ _______ _____ _____    ______ ____
ROOT
ATOM      1  C   UNL A   1     -31.318 -10.802  10.888  0.00  0.00    +0.037 A 
ATOM      2  C   UNL A   1     -30.924  -9.730  10.491  0.00  0.00    +0.003 A 
ATOM      3  C   UNL A   1     -29.704  -9.549   9.840  0.00  0.00    +0.000 A 
ATOM      4  C   UNL A   1     -28.819 -10.685   9.670  0.00  0.00    +0.003 A 
ATOM      5  C   UNL A   1     -29.341 -11.901  10.166  0.00  0.00    +0.037 A 
ATOM      6  C   UNL A   1     -30.500 -11.972  10.771  0.00  0.00    +0.139 A 
ENDROOT
BRANCH   3   7
ATOM      7  C   UNL A   1     -29.163  -8.267   9.316  0.00  0.00    +0.001 A 
ATOM      8  C   UNL A   1     -29.895  -7.185   9.252  0.00  0.00    +0.011 A 
ATOM      9  C   UNL A   1     -29.403  -6.023   8.644  0.00  0.00    +0.058 A 
ATOM     10  C   UNL A   1     -28.181  -5.945   8.019  0.00  0.00    +0.011 A 
ATOM     11  C   UNL A   1     -27.877  -8.260   8.637  0.00  0.00    +0.000 A 
ATOM     12  C   UNL A   1     -27.406  -7.071   8.012  0.00  0.00    +0.001 A 
ATOM     13 CL   UNL A   1     -30.421  -4.589   8.706  0.00  0.00    -0.082 Cl
ENDBRANCH   3   7
BRANCH   6  14
ATOM     14  O   UNL A   1     -30.912 -13.180  11.271  0.00  0.00    -0.467 OA
BRANCH  14  15
ATOM     15  C   UNL A   1     -30.043 -14.192  11.442  0.00  0.00    +0.272 C 
BRANCH  15  16
ATOM     16  C   UNL A   1     -29.831 -14.467  12.707  0.00  0.00    +0.404 C 
ATOM     17  O   UNL A   1     -30.260 -13.865  13.603  0.00  0.00    -0.242 OA
ATOM     18  O   UNL A   1     -29.055 -15.518  13.068  0.00  0.00    -0.242 OA
ENDBRANCH  15  16
BRANCH  15  19
ATOM     19  C   UNL A   1     -30.589 -15.421  10.626  0.00  0.00    +0.082 C 
BRANCH  19  20
ATOM     20  C   UNL A   1     -30.229 -15.838   9.645  0.00  0.00    -0.022 C 
ATOM     21  C   UNL A   1     -29.154 -15.835   9.208  0.00  0.00    -0.005 C 
ENDBRANCH  19  20
ENDBRANCH  15  19
ENDBRANCH  14  15
ENDBRANCH   6  14
TORSDOF 6
ENDMDL
ENDMDL
