REMARK  Name = outputs/IAG933/test6/raw/output_384_IAG933_linker_design_.xyz
REMARK  9 active torsions:
REMARK  status: ('A' for Active; 'I' for Inactive)
REMARK    1  A    between atoms: C_1  and  C_2
REMARK    2  A    between atoms: C_1  and  C_8
REMARK    3  A    between atoms: C_1  and  C_37
REMARK    4  A    between atoms: C_13  and  C_28
REMARK    5  A    between atoms: C_14  and  C_15
REMARK    6  A    between atoms: C_21  and  O_22
REMARK    7  A    between atoms: O_22  and  C_23
REMARK    8  A    between atoms: C_23  and  C_24
REMARK    9  A    between atoms: C_32  and  C_37
REMARK                            x       y       z     vdW  Elec       q    Type
REMARK                         _______ _______ _______ _____ _____    ______ ____
ROOT
ATOM      1  C   UNL A   1     -24.233   1.530  26.587  0.00  0.00    +0.018 C 
ATOM      2  C   UNL A   1     -20.081   1.358  28.601  0.00  0.00    +0.035 C 
ATOM      3  O   UNL A   1     -21.533  -0.521  28.872  0.00  0.00    -0.326 OA
ATOM      4  F   UNL A   1     -22.605   1.040  30.499  0.00  0.00    -0.203 F 
ATOM      5  C   UNL A   1     -23.900   0.461  28.859  0.00  0.00    +0.140 C 
ATOM      6  C   UNL A   1     -23.297   2.254  25.759  0.00  0.00    +0.298 C 
ATOM      7  O   UNL A   1     -21.950   1.908  26.082  0.00  0.00    -0.322 OA
ATOM      8  C   UNL A   1     -22.190   1.291  27.251  0.00  0.00    +0.137 C 
ATOM      9  C   UNL A   1     -22.649  -0.032  29.635  0.00  0.00    +0.289 C 
ATOM     10  F   UNL A   1     -23.575   3.033  25.072  0.00  0.00    -0.199 F 
ATOM     11  C   UNL A   1     -21.537   1.655  28.367  0.00  0.00    +0.036 C 
ATOM     12  C   UNL A   1     -20.334   0.040  28.530  0.00  0.00    +0.145 C 
ATOM     13  C   UNL A   1     -23.545   1.004  27.594  0.00  0.00    -0.008 C 
ENDROOT
BRANCH   1  14
ATOM     14  C   UNL A   1     -25.688   1.614  26.461  0.00  0.00    +0.093 C 
ATOM     15  C   UNL A   1     -26.250   2.920  26.395  0.00  0.00    +0.059 C 
ATOM     16  C   UNL A   1     -27.438   3.091  25.645  0.00  0.00    +0.102 C 
ATOM     17  N   UNL A   1     -28.075   2.089  25.003  0.00  0.00    -0.212 NA
ATOM     18  C   UNL A   1     -27.543   0.849  25.079  0.00  0.00    +0.234 C 
ATOM     19  C   UNL A   1     -26.354   0.576  25.777  0.00  0.00    +0.244 C 
ATOM     20  F   UNL A   1     -25.860  -0.681  25.795  0.00  0.00    -0.227 F 
BRANCH  15  21
ATOM     21  C   UNL A   1     -25.642   4.093  27.123  0.00  0.00    +0.263 C 
ATOM     22  N   UNL A   1     -25.614   5.252  26.449  0.00  0.00    -0.200 NA
ATOM     23  C   UNL A   1     -25.026   6.479  26.963  0.00  0.00    +0.139 C 
ATOM     24  O   UNL A   1     -25.143   3.966  28.243  0.00  0.00    -0.269 OA
ENDBRANCH  15  21
BRANCH  18  25
ATOM     25  O   UNL A   1     -28.193  -0.208  24.477  0.00  0.00    -0.459 OA
BRANCH  25  26
ATOM     26  C   UNL A   1     -29.460   0.005  23.866  0.00  0.00    +0.242 C 
BRANCH  26  27
ATOM     27  C   UNL A   1     -30.065  -1.377  23.573  0.00  0.00    +0.229 C 
ATOM     28  O   UNL A   1     -30.729  -1.878  24.721  0.00  0.00    -0.216 OA
ENDBRANCH  26  27
ENDBRANCH  25  26
ENDBRANCH  18  25
ENDBRANCH   1  14
BRANCH   5  29
ATOM     29  C   UNL A   1     -25.018  -0.138  28.920  0.00  0.00    +0.164 C 
ATOM     30  O   UNL A   1     -26.138  -0.189  28.357  0.00  0.00    -0.295 OA
BRANCH  29  31
ATOM     31  C   UNL A   1     -24.855  -1.012  30.143  0.00  0.00    +0.096 C 
BRANCH  31  32
ATOM     32  C   UNL A   1     -24.973  -2.505  29.788  0.00  0.00    -0.014 C 
ATOM     33  C   UNL A   1     -23.906  -3.173  29.146  0.00  0.00    -0.004 C 
ATOM     34  C   UNL A   1     -23.989  -4.549  28.853  0.00  0.00    -0.000 C 
ATOM     35  C   UNL A   1     -25.137  -5.280  29.205  0.00  0.00    -0.000 C 
ATOM     36  C   UNL A   1     -26.232  -4.611  29.784  0.00  0.00    -0.000 C 
ATOM     37  C   UNL A   1     -26.155  -3.232  30.065  0.00  0.00    -0.004 C 
ENDBRANCH  31  32
BRANCH  31  38
ATOM     38  C   UNL A   1     -25.387  -0.679  31.571  0.00  0.00    +0.084 C 
ATOM     39  C   UNL A   1     -25.189   0.773  32.028  0.00  0.00    +0.020 C 
ATOM     40  C   UNL A   1     -25.336   0.684  33.544  0.00  0.00    +0.020 C 
ATOM     41  C   UNL A   1     -24.829  -0.715  33.905  0.00  0.00    +0.089 C 
ATOM     42  N   UNL A   1     -24.758  -1.481  32.646  0.00  0.00    -0.219 NA
ENDBRANCH  31  38
ENDBRANCH  29  31
ENDBRANCH   5  29
TORSDOF 9
