MODEL 3840
MODEL 1
REMARK VINA RESULT:    -4.354      0.000      0.000
REMARK INTER + INTRA:          -4.354
REMARK INTER:                  -4.354
REMARK INTRA:                   0.000
REMARK UNBOUND:                 0.000
REMARK  Name = No_3840-gen_results/8p0m/2024-11-27-11-27-31/
REMARK  0 active torsions:
REMARK  status: ('A' for Active; 'I' for Inactive)
REMARK                            x       y       z     vdW  Elec       q    Type
REMARK                         _______ _______ _______ _____ _____    ______ ____
ROOT
ATOM      1  C   UNL A   1     -24.935  -5.377  29.004  0.00  0.00    +0.000 A 
ATOM      2  C   UNL A   1     -24.180  -4.736  28.645  0.00  0.00    +0.000 A 
ATOM      3  C   UNL A   1     -26.081  -4.665  29.583  0.00  0.00    +0.000 A 
ATOM      4  C   UNL A   1     -26.072  -3.348  29.796  0.00  0.00    +0.000 A 
ATOM      5  C   UNL A   1     -23.943  -3.319  28.775  0.00  0.00    +0.000 A 
ATOM      6  C   UNL A   1     -25.008  -2.678  29.337  0.00  0.00    +0.000 A 
ENDROOT
TORSDOF 0
ENDMDL
ENDMDL
