MODEL 3841
MODEL 1
REMARK VINA RESULT:    -5.887      0.000      0.000
REMARK INTER + INTRA:          -7.311
REMARK INTER:                  -6.919
REMARK INTRA:                  -0.392
REMARK UNBOUND:                -0.392
REMARK  Name = No_3841-gen_results/8p0m/2024-11-27-11-27-31/
REMARK  3 active torsions:
REMARK  status: ('A' for Active; 'I' for Inactive)
REMARK    1  A    between atoms: C_3  and  C_7
REMARK    2  A    between atoms: C_7  and  C_8
REMARK    3  A    between atoms: C_9  and  C_10
REMARK                            x       y       z     vdW  Elec       q    Type
REMARK                         _______ _______ _______ _____ _____    ______ ____
ROOT
ATOM      1  C   UNL A   1     -23.858  -3.460  28.816  0.00  0.00    -0.004 A 
ATOM      2  C   UNL A   1     -24.189  -4.433  28.579  0.00  0.00    -0.000 A 
ATOM      3  C   UNL A   1     -24.947  -2.546  29.184  0.00  0.00    -0.018 A 
ATOM      4  C   UNL A   1     -25.855  -3.037  29.830  0.00  0.00    -0.004 A 
ATOM      5  C   UNL A   1     -25.174  -5.274  29.306  0.00  0.00    -0.000 A 
ATOM      6  C   UNL A   1     -26.333  -4.390  29.637  0.00  0.00    -0.000 A 
ENDROOT
BRANCH   3   7
ATOM      7  C   UNL A   1     -24.610  -1.083  29.282  0.00  0.00    +0.052 C 
BRANCH   7   8
ATOM      8  C   UNL A   1     -23.451  -0.589  28.543  0.00  0.00    -0.021 C 
ATOM      9  C   UNL A   1     -23.119   0.726  28.694  0.00  0.00    -0.005 C 
BRANCH   9  10
ATOM     10  C   UNL A   1     -22.177   1.288  27.763  0.00  0.00    -0.005 C 
ATOM     11  C   UNL A   1     -22.621   2.031  26.592  0.00  0.00    -0.026 C 
ATOM     12  C   UNL A   1     -23.915   2.598  26.692  0.00  0.00    +0.031 C 
ENDBRANCH   9  10
ENDBRANCH   7   8
ENDBRANCH   3   7
TORSDOF 3
ENDMDL
ENDMDL
