MODEL 3842
MODEL 1
REMARK VINA RESULT:    -7.128      0.000      0.000
REMARK INTER + INTRA:          -8.390
REMARK INTER:                  -7.962
REMARK INTRA:                  -0.429
REMARK UNBOUND:                -0.429
REMARK  Name = No_3842-gen_results/8p0m/2024-11-27-11-27-31/
REMARK  2 active torsions:
REMARK  status: ('A' for Active; 'I' for Inactive)
REMARK    1  A    between atoms: C_3  and  C_10
REMARK    2  A    between atoms: C_5  and  C_7
REMARK                            x       y       z     vdW  Elec       q    Type
REMARK                         _______ _______ _______ _____ _____    ______ ____
ROOT
ATOM      1  C   UNL A   1     -29.756  -9.540  32.269  0.00  0.00    +0.000 A 
ATOM      2  C   UNL A   1     -30.016  -9.855  31.130  0.00  0.00    +0.000 A 
ATOM      3  C   UNL A   1     -29.428 -10.899  30.438  0.00  0.00    +0.000 A 
ATOM      4  C   UNL A   1     -28.462 -11.680  31.138  0.00  0.00    +0.007 A 
ATOM      5  C   UNL A   1     -28.308 -11.411  32.445  0.00  0.00    +0.080 A 
ATOM      6  C   UNL A   1     -28.940 -10.432  33.027  0.00  0.00    +0.007 A 
ENDROOT
BRANCH   3   7
ATOM      7  C   UNL A   1     -29.661 -11.109  28.945  0.00  0.00    +0.000 A 
ATOM      8  C   UNL A   1     -30.519 -10.312  28.302  0.00  0.00    +0.000 A 
ATOM      9  C   UNL A   1     -30.797 -10.615  26.878  0.00  0.00    +0.000 A 
ATOM     10  C   UNL A   1     -29.916 -11.507  26.240  0.00  0.00    +0.000 A 
ATOM     11  C   UNL A   1     -28.951 -12.022  28.162  0.00  0.00    +0.000 A 
ATOM     12  C   UNL A   1     -29.102 -12.306  26.889  0.00  0.00    +0.000 A 
ENDBRANCH   3   7
BRANCH   5  13
ATOM     13  C   UNL A   1     -27.318 -12.267  33.145  0.00  0.00    +0.388 C 
ATOM     14  O   UNL A   1     -26.446 -12.885  32.588  0.00  0.00    -0.241 OA
ATOM     15  O   UNL A   1     -27.246 -12.186  34.463  0.00  0.00    -0.241 OA
ENDBRANCH   5  13
TORSDOF 2
ENDMDL
ENDMDL
