REMARK  Name = No_3843-gen_results/8p0m/2024-11-27-11-27-31/
REMARK  7 active torsions:
REMARK  status: ('A' for Active; 'I' for Inactive)
REMARK    1  A    between atoms: C_2  and  C_10
REMARK    2  A    between atoms: C_5  and  C_7
REMARK    3  A    between atoms: N_9  and  C_17
REMARK    4  A    between atoms: N_11  and  C_12
REMARK    5  A    between atoms: C_12  and  C_14
REMARK    6  A    between atoms: C_17  and  C_18
REMARK    7  A    between atoms: C_19  and  C_24
REMARK                            x       y       z     vdW  Elec       q    Type
REMARK                         _______ _______ _______ _____ _____    ______ ____
ROOT
ATOM      1  C   UNL A   1     -28.016  -0.814  28.878  0.00  0.00    +0.005 A 
ATOM      2  C   UNL A   1     -27.064  -0.119  28.608  0.00  0.00    +0.055 A 
ATOM      3  C   UNL A   1     -27.001   0.691  27.491  0.00  0.00    +0.005 A 
ATOM      4  C   UNL A   1     -28.137   0.736  26.635  0.00  0.00    +0.005 A 
ATOM      5  C   UNL A   1     -29.236   0.076  27.069  0.00  0.00    +0.055 A 
ATOM      6  C   UNL A   1     -29.218  -0.643  28.175  0.00  0.00    +0.005 A 
ENDROOT
BRANCH   5   7
ATOM      7  C   UNL A   1     -30.523   0.081  26.370  0.00  0.00    +0.265 C 
ATOM      8  O   UNL A   1     -31.455  -0.496  26.703  0.00  0.00    -0.268 OA
ATOM      9  N   UNL A   1     -30.615   1.034  25.308  0.00  0.00    -0.197 NA
BRANCH   9  10
ATOM     10  C   UNL A   1     -31.840   1.172  24.496  0.00  0.00    +0.142 C 
BRANCH  10  11
ATOM     11  C   UNL A   1     -31.861   2.306  23.741  0.00  0.00    -0.001 A 
ATOM     12  C   UNL A   1     -32.017   3.365  24.050  0.00  0.00    -0.003 A 
ATOM     13  C   UNL A   1     -32.269   4.539  23.141  0.00  0.00    -0.000 A 
ATOM     14  C   UNL A   1     -32.727   4.117  21.868  0.00  0.00    -0.000 A 
ATOM     15  C   UNL A   1     -32.593   2.780  21.415  0.00  0.00    -0.000 A 
ATOM     16  C   UNL A   1     -32.185   1.868  22.299  0.00  0.00    -0.003 A 
BRANCH  12  17
ATOM     17  C   UNL A   1     -31.660   3.889  25.446  0.00  0.00    -0.005 C 
ATOM     18  C   UNL A   1     -32.602   3.617  26.473  0.00  0.00    -0.026 C 
ATOM     19  C   UNL A   1     -32.651   4.128  27.396  0.00  0.00    +0.031 C 
ENDBRANCH  12  17
ENDBRANCH  10  11
ENDBRANCH   9  10
ENDBRANCH   5   7
BRANCH   2  20
ATOM     20  C   UNL A   1     -25.853  -0.303  29.569  0.00  0.00    +0.265 C 
ATOM     21  N   UNL A   1     -25.455  -1.275  30.121  0.00  0.00    -0.192 NA
ATOM     22  O   UNL A   1     -25.135   0.841  29.806  0.00  0.00    -0.268 OA
BRANCH  21  23
ATOM     23  C   UNL A   1     -24.331  -1.370  30.809  0.00  0.00    +0.203 C 
BRANCH  23  24
ATOM     24  C   UNL A   1     -23.232  -1.195  30.342  0.00  0.00    +0.283 C 
ATOM     25  N   UNL A   1     -22.354  -0.132  30.732  0.00  0.00    -0.086 NA
ATOM     26  O   UNL A   1     -22.804  -1.641  29.162  0.00  0.00    -0.270 OA
ENDBRANCH  23  24
ENDBRANCH  21  23
ENDBRANCH   2  20
TORSDOF 7
