MODEL 3843
MODEL 1
REMARK VINA RESULT:    -6.956      0.000      0.000
REMARK INTER + INTRA:         -11.011
REMARK INTER:                  -9.802
REMARK INTRA:                  -1.209
REMARK UNBOUND:                -1.209
REMARK  Name = No_3843-gen_results/8p0m/2024-11-27-11-27-31/
REMARK  7 active torsions:
REMARK  status: ('A' for Active; 'I' for Inactive)
REMARK    1  A    between atoms: C_2  and  C_10
REMARK    2  A    between atoms: C_5  and  C_7
REMARK    3  A    between atoms: N_9  and  C_17
REMARK    4  A    between atoms: N_11  and  C_12
REMARK    5  A    between atoms: C_12  and  C_14
REMARK    6  A    between atoms: C_17  and  C_18
REMARK    7  A    between atoms: C_19  and  C_24
REMARK                            x       y       z     vdW  Elec       q    Type
REMARK                         _______ _______ _______ _____ _____    ______ ____
ROOT
ATOM      1  C   UNL A   1     -29.828 -13.506  28.876  0.00  0.00    +0.005 A 
ATOM      2  C   UNL A   1     -29.464 -12.352  28.885  0.00  0.00    +0.055 A 
ATOM      3  C   UNL A   1     -29.215 -11.621  27.740  0.00  0.00    +0.005 A 
ATOM      4  C   UNL A   1     -29.438 -12.252  26.484  0.00  0.00    +0.005 A 
ATOM      5  C   UNL A   1     -30.006 -13.479  26.527  0.00  0.00    +0.055 A 
ATOM      6  C   UNL A   1     -30.248 -14.089  27.671  0.00  0.00    +0.005 A 
ENDROOT
BRANCH   5   7
ATOM      7  C   UNL A   1     -30.391 -14.245  25.339  0.00  0.00    +0.265 C 
ATOM      8  O   UNL A   1     -30.478 -15.386  25.292  0.00  0.00    -0.268 OA
ATOM      9  N   UNL A   1     -30.854 -13.448  24.246  0.00  0.00    -0.197 NA
BRANCH   9  10
ATOM     10  C   UNL A   1     -31.280 -14.056  22.970  0.00  0.00    +0.142 C 
BRANCH  10  11
ATOM     11  C   UNL A   1     -30.454 -13.756  21.929  0.00  0.00    -0.001 A 
ATOM     12  C   UNL A   1     -29.454 -14.173  21.669  0.00  0.00    -0.003 A 
ATOM     13  C   UNL A   1     -28.491 -13.630  20.647  0.00  0.00    -0.000 A 
ATOM     14  C   UNL A   1     -28.775 -12.276  20.339  0.00  0.00    -0.000 A 
ATOM     15  C   UNL A   1     -30.012 -11.664  20.665  0.00  0.00    -0.000 A 
ATOM     16  C   UNL A   1     -30.851 -12.347  21.445  0.00  0.00    -0.003 A 
BRANCH  12  17
ATOM     17  C   UNL A   1     -29.012 -15.588  22.061  0.00  0.00    -0.005 C 
ATOM     18  C   UNL A   1     -27.822 -15.678  22.830  0.00  0.00    -0.026 C 
ATOM     19  C   UNL A   1     -27.242 -16.554  22.942  0.00  0.00    +0.031 C 
ENDBRANCH  12  17
ENDBRANCH  10  11
ENDBRANCH   9  10
ENDBRANCH   5   7
BRANCH   2  20
ATOM     20  C   UNL A   1     -29.181 -11.788  30.308  0.00  0.00    +0.265 C 
ATOM     21  N   UNL A   1     -28.685 -12.308  31.252  0.00  0.00    -0.192 NA
ATOM     22  O   UNL A   1     -29.562 -10.484  30.490  0.00  0.00    -0.268 OA
BRANCH  21  23
ATOM     23  C   UNL A   1     -28.353 -11.708  32.382  0.00  0.00    +0.203 C 
BRANCH  23  24
ATOM     24  C   UNL A   1     -27.482 -12.092  33.124  0.00  0.00    +0.283 C 
ATOM     25  N   UNL A   1     -27.192 -11.498  34.395  0.00  0.00    -0.086 NA
ATOM     26  O   UNL A   1     -26.411 -12.801  32.771  0.00  0.00    -0.270 OA
ENDBRANCH  23  24
ENDBRANCH  21  23
ENDBRANCH   2  20
TORSDOF 7
ENDMDL
ENDMDL
