REMARK  Name = outputs/IAG933/test6/raw/output_3844_IAG933_linker_design_.xyz
REMARK  13 active torsions:
REMARK  status: ('A' for Active; 'I' for Inactive)
REMARK    1  A    between atoms: C_1  and  C_2
REMARK    2  A    between atoms: C_1  and  C_8
REMARK    3  A    between atoms: C_1  and  N_38
REMARK    4  A    between atoms: C_13  and  N_36
REMARK    5  A    between atoms: C_14  and  C_15
REMARK    6  A    between atoms: C_21  and  O_22
REMARK    7  A    between atoms: O_22  and  C_23
REMARK    8  A    between atoms: C_23  and  C_24
REMARK    9  A    between atoms: C_32  and  N_36
REMARK   10  A    between atoms: N_36  and  C_41
REMARK   11  A    between atoms: N_38  and  C_41
REMARK   12  A    between atoms: C_39  and  N_40
REMARK   13  A    between atoms: N_40  and  C_41
REMARK                            x       y       z     vdW  Elec       q    Type
REMARK                         _______ _______ _______ _____ _____    ______ ____
ROOT
ATOM      1  N   UNL A   1     -25.163   1.245  27.747  0.00  0.00    -0.276 N 
ENDROOT
BRANCH   1   2
ATOM      2  C   UNL A   1     -25.688   1.614  26.461  0.00  0.00    +0.145 C 
ATOM      3  C   UNL A   1     -26.250   2.920  26.395  0.00  0.00    +0.073 C 
ATOM      4  C   UNL A   1     -27.438   3.091  25.645  0.00  0.00    +0.104 C 
ATOM      5  N   UNL A   1     -28.075   2.089  25.003  0.00  0.00    -0.212 NA
ATOM      6  C   UNL A   1     -27.543   0.849  25.079  0.00  0.00    +0.236 C 
ATOM      7  C   UNL A   1     -26.354   0.576  25.777  0.00  0.00    +0.258 C 
ATOM      8  F   UNL A   1     -25.860  -0.681  25.795  0.00  0.00    -0.225 F 
BRANCH   3   9
ATOM      9  C   UNL A   1     -25.642   4.093  27.123  0.00  0.00    +0.264 C 
ATOM     10  N   UNL A   1     -25.614   5.252  26.449  0.00  0.00    -0.200 NA
ATOM     11  C   UNL A   1     -25.026   6.479  26.963  0.00  0.00    +0.139 C 
ATOM     12  O   UNL A   1     -25.143   3.966  28.243  0.00  0.00    -0.269 OA
ENDBRANCH   3   9
BRANCH   6  13
ATOM     13  O   UNL A   1     -28.193  -0.208  24.477  0.00  0.00    -0.459 OA
BRANCH  13  14
ATOM     14  C   UNL A   1     -29.460   0.005  23.866  0.00  0.00    +0.242 C 
BRANCH  14  15
ATOM     15  C   UNL A   1     -30.065  -1.377  23.573  0.00  0.00    +0.229 C 
ATOM     16  O   UNL A   1     -30.729  -1.878  24.721  0.00  0.00    -0.216 OA
ENDBRANCH  14  15
ENDBRANCH  13  14
ENDBRANCH   6  13
ENDBRANCH   1   2
BRANCH   1  19
ATOM     17  C   UNL A   1     -22.984   0.646  28.626  0.00  0.00    +0.015 C 
ATOM     18  C   UNL A   1     -20.965   1.531  27.605  0.00  0.00    +0.000 C 
ATOM     19  C   UNL A   1     -23.762   1.317  27.648  0.00  0.00    +0.050 C 
ATOM     20  C   UNL A   1     -21.583   0.768  28.627  0.00  0.00    +0.001 C 
ATOM     21  C   UNL A   1     -21.712   2.127  26.578  0.00  0.00    +0.001 C 
ATOM     22  C   UNL A   1     -23.104   1.971  26.571  0.00  0.00    +0.015 C 
ENDBRANCH   1  19
BRANCH   1  23
ATOM     23  C   UNL A   1     -26.149   0.766  28.846  0.00  0.00    +0.228 C 
BRANCH  23  24
ATOM     24  N   UNL A   1     -25.920  -0.451  29.299  0.00  0.00    -0.180 NA
BRANCH  24  25
ATOM     25  C   UNL A   1     -24.855  -1.012  30.143  0.00  0.00    +0.114 C 
BRANCH  25  26
ATOM     26  C   UNL A   1     -24.973  -2.505  29.788  0.00  0.00    -0.005 C 
ATOM     27  C   UNL A   1     -23.906  -3.173  29.146  0.00  0.00    -0.003 C 
ATOM     28  C   UNL A   1     -23.989  -4.549  28.853  0.00  0.00    -0.000 C 
ATOM     29  C   UNL A   1     -25.137  -5.280  29.205  0.00  0.00    -0.000 C 
ATOM     30  C   UNL A   1     -26.232  -4.611  29.784  0.00  0.00    -0.000 C 
ATOM     31  C   UNL A   1     -26.155  -3.232  30.065  0.00  0.00    -0.003 C 
ENDBRANCH  25  26
BRANCH  25  32
ATOM     32  C   UNL A   1     -25.387  -0.679  31.571  0.00  0.00    +0.093 C 
ATOM     33  C   UNL A   1     -25.189   0.773  32.028  0.00  0.00    +0.021 C 
ATOM     34  C   UNL A   1     -25.336   0.684  33.544  0.00  0.00    +0.020 C 
ATOM     35  C   UNL A   1     -24.829  -0.715  33.905  0.00  0.00    +0.089 C 
ATOM     36  N   UNL A   1     -24.758  -1.481  32.646  0.00  0.00    -0.218 NA
ENDBRANCH  25  32
ENDBRANCH  24  25
ENDBRANCH  23  24
BRANCH  23  37
ATOM     37  N   UNL A   1     -27.151   1.805  29.648  0.00  0.00    -0.183 NA
BRANCH  37  42
ATOM     38  C   UNL A   1     -26.994   5.017  30.462  0.00  0.00    +0.144 C 
ATOM     39  C   UNL A   1     -27.813   3.967  29.692  0.00  0.00    +0.052 C 
ATOM     40  C   UNL A   1     -27.659   3.396  32.094  0.00  0.00    +0.160 C 
ATOM     41  O   UNL A   1     -26.518   4.330  31.682  0.00  0.00    -0.352 OA
ATOM     42  C   UNL A   1     -27.901   2.768  30.637  0.00  0.00    +0.108 C 
ENDBRANCH  37  42
ENDBRANCH  23  37
ENDBRANCH   1  23
TORSDOF 13
