REMARK  Name = outputs/IAG933/test6/raw/output_3845_IAG933_linker_design_.xyz
REMARK  14 active torsions:
REMARK  status: ('A' for Active; 'I' for Inactive)
REMARK    1  A    between atoms: C_1  and  C_2
REMARK    2  A    between atoms: C_1  and  C_8
REMARK    3  A    between atoms: C_1  and  O_43
REMARK    4  A    between atoms: C_13  and  C_34
REMARK    5  A    between atoms: C_14  and  C_15
REMARK    6  A    between atoms: C_21  and  O_22
REMARK    7  A    between atoms: O_22  and  C_23
REMARK    8  A    between atoms: C_23  and  C_24
REMARK    9  A    between atoms: O_30  and  C_37
REMARK   10  A    between atoms: C_32  and  C_33
REMARK   11  A    between atoms: C_33  and  C_41
REMARK   12  A    between atoms: C_33  and  O_43
REMARK   13  A    between atoms: C_38  and  C_41
REMARK   14  A    between atoms: C_42  and  C_45
REMARK                            x       y       z     vdW  Elec       q    Type
REMARK                         _______ _______ _______ _____ _____    ______ ____
ROOT
ATOM      1  C   UNL A   1     -22.544   1.848  23.905  0.00  0.00    +0.030 C 
ATOM      2  C   UNL A   1     -24.555   1.288  28.381  0.00  0.00    +0.037 C 
ATOM      3  C   UNL A   1     -24.624   1.478  27.029  0.00  0.00    -0.003 C 
ATOM      4  C   UNL A   1     -23.687   1.898  24.706  0.00  0.00    -0.030 C 
ATOM      5  C   UNL A   1     -23.195   1.149  28.997  0.00  0.00    +0.259 C 
ATOM      6  C   UNL A   1     -23.550   1.704  26.158  0.00  0.00    -0.026 C 
ATOM      7  O   UNL A   1     -23.155   2.112  30.033  0.00  0.00    -0.189 OA
ATOM      8  C   UNL A   1     -22.205   1.625  26.748  0.00  0.00    +0.033 C 
ATOM      9  C   UNL A   1     -22.002   1.121  28.055  0.00  0.00    +0.083 C 
ENDROOT
BRANCH   3  10
ATOM     10  C   UNL A   1     -25.688   1.614  26.461  0.00  0.00    +0.037 C 
ATOM     11  C   UNL A   1     -26.250   2.920  26.395  0.00  0.00    +0.076 C 
ATOM     12  C   UNL A   1     -27.438   3.091  25.645  0.00  0.00    +0.107 C 
ATOM     13  N   UNL A   1     -28.075   2.089  25.003  0.00  0.00    -0.208 NA
ATOM     14  C   UNL A   1     -27.543   0.849  25.079  0.00  0.00    +0.253 C 
ATOM     15  C   UNL A   1     -26.354   0.576  25.777  0.00  0.00    +0.193 C 
ATOM     16  F   UNL A   1     -25.860  -0.681  25.795  0.00  0.00    -0.199 F 
BRANCH  11  17
ATOM     17  C   UNL A   1     -25.642   4.093  27.123  0.00  0.00    +0.266 C 
ATOM     18  N   UNL A   1     -25.614   5.252  26.449  0.00  0.00    -0.200 NA
ATOM     19  C   UNL A   1     -25.026   6.479  26.963  0.00  0.00    +0.139 C 
ATOM     20  O   UNL A   1     -25.143   3.966  28.243  0.00  0.00    -0.268 OA
ENDBRANCH  11  17
BRANCH  14  21
ATOM     21  O   UNL A   1     -28.193  -0.208  24.477  0.00  0.00    -0.456 OA
BRANCH  21  22
ATOM     22  C   UNL A   1     -29.460   0.005  23.866  0.00  0.00    +0.243 C 
BRANCH  22  23
ATOM     23  C   UNL A   1     -30.065  -1.377  23.573  0.00  0.00    +0.229 C 
ATOM     24  O   UNL A   1     -30.729  -1.878  24.721  0.00  0.00    -0.216 OA
ENDBRANCH  22  23
ENDBRANCH  21  22
ENDBRANCH  14  21
ENDBRANCH   3  10
BRANCH   5  26
ATOM     25  N   UNL A   1     -22.233  -0.973  30.239  0.00  0.00    +0.044 NA
ATOM     26  O   UNL A   1     -22.655  -0.018  29.811  0.00  0.00    -0.219 OA
ENDBRANCH   5  26
BRANCH   9  28
ATOM     27  N   UNL A   1     -19.479   1.172  28.143  0.00  0.00    -0.131 NA
ATOM     28  C   UNL A   1     -20.670   0.622  28.374  0.00  0.00    +0.115 C 
ENDBRANCH   9  28
BRANCH   2  29
ATOM     29  C   UNL A   1     -25.675   1.071  29.151  0.00  0.00    +0.150 C 
BRANCH  29  30
ATOM     30  C   UNL A   1     -27.056   1.591  29.129  0.00  0.00    +0.148 C 
BRANCH  30  32
ATOM     31  O   UNL A   1     -29.375   1.473  29.375  0.00  0.00    -0.245 OA
ATOM     32  C   UNL A   1     -28.201   0.889  29.925  0.00  0.00    +0.368 C 
ATOM     33  O   UNL A   1     -28.239  -0.543  30.379  0.00  0.00    -0.245 OA
ENDBRANCH  30  32
ENDBRANCH  29  30
BRANCH  29  34
ATOM     34  O   UNL A   1     -25.913  -0.459  29.191  0.00  0.00    -0.348 OA
BRANCH  34  35
ATOM     35  C   UNL A   1     -24.855  -1.012  30.143  0.00  0.00    +0.154 C 
BRANCH  35  36
ATOM     36  C   UNL A   1     -24.973  -2.505  29.788  0.00  0.00    +0.006 C 
ATOM     37  C   UNL A   1     -23.906  -3.173  29.146  0.00  0.00    -0.002 C 
ATOM     38  C   UNL A   1     -23.989  -4.549  28.853  0.00  0.00    -0.000 C 
ATOM     39  C   UNL A   1     -25.137  -5.280  29.205  0.00  0.00    -0.000 C 
ATOM     40  C   UNL A   1     -26.232  -4.611  29.784  0.00  0.00    -0.000 C 
ATOM     41  C   UNL A   1     -26.155  -3.232  30.065  0.00  0.00    -0.002 C 
ENDBRANCH  35  36
BRANCH  35  42
ATOM     42  C   UNL A   1     -25.387  -0.679  31.571  0.00  0.00    +0.104 C 
ATOM     43  C   UNL A   1     -25.189   0.773  32.028  0.00  0.00    +0.022 C 
ATOM     44  C   UNL A   1     -25.336   0.684  33.544  0.00  0.00    +0.020 C 
ATOM     45  C   UNL A   1     -24.829  -0.715  33.905  0.00  0.00    +0.089 C 
ATOM     46  N   UNL A   1     -24.758  -1.481  32.646  0.00  0.00    -0.217 NA
ENDBRANCH  35  42
ENDBRANCH  34  35
ENDBRANCH  29  34
ENDBRANCH   2  29
TORSDOF 14
