MODEL 3845
MODEL 1
REMARK VINA RESULT:    -4.579      0.000      0.000
REMARK INTER + INTRA:          -6.112
REMARK INTER:                  -5.917
REMARK INTRA:                  -0.195
REMARK UNBOUND:                -0.195
REMARK  Name = No_3845-gen_results/8p0m/2024-11-27-11-27-31/
REMARK  5 active torsions:
REMARK  status: ('A' for Active; 'I' for Inactive)
REMARK    1  A    between atoms: C_1  and  C_2
REMARK    2  A    between atoms: C_1  and  C_4
REMARK    3  A    between atoms: C_2  and  N_3
REMARK    4  A    between atoms: N_3  and  C_6
REMARK    5  A    between atoms: C_7  and  C_8
REMARK                            x       y       z     vdW  Elec       q    Type
REMARK                         _______ _______ _______ _____ _____    ______ ____
ROOT
ATOM      1  N   UNL A   1     -22.738  -1.232  29.435  0.00  0.00    -0.236 NA
ENDROOT
BRANCH   1   2
ATOM      2  C   UNL A   1     -22.091  -0.178  28.845  0.00  0.00    +0.080 C 
ATOM      3  C   UNL A   1     -22.824   0.748  28.174  0.00  0.00    +0.017 C 
BRANCH   3   4
ATOM      4  C   UNL A   1     -22.228   1.799  27.405  0.00  0.00    -0.003 C 
ATOM      5  C   UNL A   1     -22.727   2.102  26.126  0.00  0.00    -0.026 C 
ATOM      6  C   UNL A   1     -23.925   1.563  25.713  0.00  0.00    +0.031 C 
ENDBRANCH   3   4
ENDBRANCH   1   2
BRANCH   1   7
ATOM      7  C   UNL A   1     -23.791  -1.848  28.975  0.00  0.00    +0.112 C 
BRANCH   7   8
ATOM      8  C   UNL A   1     -24.261  -2.836  29.490  0.00  0.00    +0.023 C 
BRANCH   8   9
ATOM      9  C   UNL A   1     -24.185  -3.981  28.649  0.00  0.00    +0.002 C 
ATOM     10  C   UNL A   1     -24.741  -5.153  29.055  0.00  0.00    +0.000 C 
ENDBRANCH   8   9
ENDBRANCH   7   8
ENDBRANCH   1   7
TORSDOF 5
ENDMDL
ENDMDL
