MODEL 3846
MODEL 1
REMARK VINA RESULT:    -7.163      0.000      0.000
REMARK INTER + INTRA:          -9.311
REMARK INTER:                  -8.838
REMARK INTRA:                  -0.473
REMARK UNBOUND:                -0.473
REMARK  Name = No_3846-gen_results/8p0m/2024-11-27-11-27-31/
REMARK  4 active torsions:
REMARK  status: ('A' for Active; 'I' for Inactive)
REMARK    1  A    between atoms: C_1  and  C_6
REMARK    2  A    between atoms: C_5  and  C_10
REMARK    3  A    between atoms: N_8  and  C_13
REMARK    4  A    between atoms: C_13  and  C_14
REMARK                            x       y       z     vdW  Elec       q    Type
REMARK                         _______ _______ _______ _____ _____    ______ ____
ROOT
ATOM      1  C   UNL A   1     -23.313   0.813  29.623  0.00  0.00    +0.265 C 
ATOM      2  N   UNL A   1     -23.419  -0.404  30.084  0.00  0.00    -0.197 NA
ATOM      3  O   UNL A   1     -23.431   1.739  30.483  0.00  0.00    -0.268 OA
ENDROOT
BRANCH   1   4
ATOM      4  C   UNL A   1     -23.323   1.036  28.203  0.00  0.00    +0.055 A 
ATOM      5  C   UNL A   1     -22.400   1.611  27.674  0.00  0.00    +0.005 A 
ATOM      6  C   UNL A   1     -22.328   1.935  26.330  0.00  0.00    +0.000 A 
ATOM      7  C   UNL A   1     -23.447   1.585  25.518  0.00  0.00    +0.007 A 
ATOM      8  C   UNL A   1     -24.517   1.082  26.166  0.00  0.00    +0.080 A 
ATOM      9  C   UNL A   1     -24.464   0.845  27.468  0.00  0.00    +0.011 A 
BRANCH   8  10
ATOM     10  C   UNL A   1     -25.690   0.764  25.327  0.00  0.00    +0.388 C 
ATOM     11  O   UNL A   1     -26.605   1.350  25.369  0.00  0.00    -0.241 OA
ATOM     12  O   UNL A   1     -25.674  -0.300  24.539  0.00  0.00    -0.241 OA
ENDBRANCH   8  10
ENDBRANCH   1   4
BRANCH   2  13
ATOM     13  C   UNL A   1     -23.288  -1.594  29.271  0.00  0.00    +0.142 C 
BRANCH  13  14
ATOM     14  C   UNL A   1     -24.157  -2.634  29.481  0.00  0.00    -0.001 A 
ATOM     15  C   UNL A   1     -25.402  -2.362  30.058  0.00  0.00    -0.003 A 
ATOM     16  C   UNL A   1     -26.380  -3.381  30.128  0.00  0.00    -0.000 A 
ATOM     17  C   UNL A   1     -26.204  -4.607  29.450  0.00  0.00    -0.000 A 
ATOM     18  C   UNL A   1     -24.938  -4.973  28.973  0.00  0.00    -0.000 A 
ATOM     19  C   UNL A   1     -23.905  -3.985  28.880  0.00  0.00    -0.003 A 
ENDBRANCH  13  14
ENDBRANCH   2  13
TORSDOF 4
ENDMDL
ENDMDL
