MODEL 3847
MODEL 1
REMARK VINA RESULT:    -5.964      0.000      0.000
REMARK INTER + INTRA:          -6.417
REMARK INTER:                  -6.313
REMARK INTRA:                  -0.104
REMARK UNBOUND:                -0.104
REMARK  Name = No_3847-gen_results/8p0m/2024-11-27-11-27-31/
REMARK  1 active torsions:
REMARK  status: ('A' for Active; 'I' for Inactive)
REMARK    1  A    between atoms: C_5  and  N_16
REMARK                            x       y       z     vdW  Elec       q    Type
REMARK                         _______ _______ _______ _____ _____    ______ ____
ROOT
ATOM      1  C   UNL A   1     -22.674  -0.197  30.723  0.00  0.00    +0.004 A 
ATOM      2  C   UNL A   1     -23.165   0.712  30.094  0.00  0.00    +0.035 A 
ATOM      3  C   UNL A   1     -24.402   1.279  30.347  0.00  0.00    -0.013 A 
ATOM      4  C   UNL A   1     -25.138   0.765  31.455  0.00  0.00    +0.011 A 
ATOM      5  C   UNL A   1     -24.505  -0.131  32.230  0.00  0.00    +0.048 A 
ATOM      6  C   UNL A   1     -23.317  -0.577  31.939  0.00  0.00    +0.015 A 
ATOM      7  C   UNL A   1     -25.029   2.315  29.449  0.00  0.00    +0.053 C 
ATOM      8  C   UNL A   1     -24.512   2.328  28.209  0.00  0.00    -0.015 A 
ATOM      9  C   UNL A   1     -24.966   3.354  27.251  0.00  0.00    -0.004 A 
ATOM     10  C   UNL A   1     -24.249   3.536  26.022  0.00  0.00    -0.000 A 
ATOM     11  C   UNL A   1     -23.275   2.673  25.636  0.00  0.00    +0.000 A 
ATOM     12  C   UNL A   1     -22.913   1.584  26.460  0.00  0.00    +0.003 A 
ATOM     13  C   UNL A   1     -23.480   1.470  27.721  0.00  0.00    +0.035 A 
ATOM     14  C   UNL A   1     -22.705   0.839  28.659  0.00  0.00    +0.195 C 
ATOM     15  O   UNL A   1     -21.676   0.142  28.324  0.00  0.00    -0.287 OA
ENDROOT
BRANCH   5  16
ATOM     16  N   UNL A   1     -25.126  -0.488  33.425  0.00  0.00    -0.304 N 
ATOM     17  C   UNL A   1     -26.253  -0.277  33.760  0.00  0.00    +0.112 C 
ATOM     18  C   UNL A   1     -24.274  -1.098  34.474  0.00  0.00    +0.112 C 
ENDBRANCH   5  16
TORSDOF 1
ENDMDL
ENDMDL
