MODEL 3848
MODEL 1
REMARK VINA RESULT:    -4.955      0.000      0.000
REMARK INTER + INTRA:          -5.800
REMARK INTER:                  -5.535
REMARK INTRA:                  -0.266
REMARK UNBOUND:                -0.266
REMARK  Name = No_3848-gen_results/8p0m/2024-11-27-11-27-31/
REMARK  2 active torsions:
REMARK  status: ('A' for Active; 'I' for Inactive)
REMARK    1  A    between atoms: C_4  and  C_5
REMARK    2  A    between atoms: C_5  and  C_8
REMARK                            x       y       z     vdW  Elec       q    Type
REMARK                         _______ _______ _______ _____ _____    ______ ____
ROOT
ATOM      1  C   UNL A   1     -25.299  -5.281  29.262  0.00  0.00    -0.000 A 
ATOM      2  C   UNL A   1     -24.288  -4.955  28.684  0.00  0.00    -0.000 A 
ATOM      3  C   UNL A   1     -23.916  -3.619  28.585  0.00  0.00    -0.004 A 
ATOM      4  C   UNL A   1     -24.513  -2.786  28.934  0.00  0.00    -0.018 A 
ATOM      5  C   UNL A   1     -26.216  -4.244  29.712  0.00  0.00    -0.000 A 
ATOM      6  C   UNL A   1     -25.776  -2.943  29.623  0.00  0.00    -0.004 A 
ENDROOT
BRANCH   4   7
ATOM      7  C   UNL A   1     -24.240  -1.289  28.863  0.00  0.00    +0.052 C 
BRANCH   7   8
ATOM      8  C   UNL A   1     -22.973  -0.922  29.327  0.00  0.00    -0.021 C 
ATOM      9  C   UNL A   1     -22.989  -0.712  30.802  0.00  0.00    -0.005 C 
ENDBRANCH   7   8
ENDBRANCH   4   7
TORSDOF 2
ENDMDL
ENDMDL
