REMARK  Name = No_3849-gen_results/8p0m/2024-11-27-11-27-31/
REMARK  10 active torsions:
REMARK  status: ('A' for Active; 'I' for Inactive)
REMARK    1  A    between atoms: C_3  and  C_8
REMARK    2  A    between atoms: C_6  and  O_7
REMARK    3  A    between atoms: O_7  and  C_14
REMARK    4  A    between atoms: C_14  and  C_15
REMARK    5  A    between atoms: C_14  and  C_29
REMARK    6  A    between atoms: C_15  and  C_16
REMARK    7  A    between atoms: C_16  and  C_18
REMARK    8  A    between atoms: C_18  and  C_19
REMARK    9  A    between atoms: N_30  and  C_31
REMARK   10  A    between atoms: C_33  and  C_34
REMARK                            x       y       z     vdW  Elec       q    Type
REMARK                         _______ _______ _______ _____ _____    ______ ____
ROOT
ATOM      1  C   UNL A   1     -29.353  -2.851  31.433  0.00  0.00    +0.273 C 
ENDROOT
BRANCH   1   2
ATOM      2  C   UNL A   1     -30.195  -1.619  31.892  0.00  0.00    +0.288 C 
ATOM      3  N   UNL A   1     -31.212  -1.723  32.548  0.00  0.00    -0.175 NA
ATOM      4  O   UNL A   1     -29.773  -0.450  31.558  0.00  0.00    -0.269 OA
BRANCH   3   5
ATOM      5  C   UNL A   1     -31.416  -1.204  33.758  0.00  0.00    +0.089 C 
ATOM      6  C   UNL A   1     -32.196  -1.439  34.555  0.00  0.00    +0.018 C 
BRANCH   6   7
ATOM      7  C   UNL A   1     -33.158  -2.383  34.380  0.00  0.00    +0.001 C 
ATOM      8  C   UNL A   1     -33.140  -3.045  33.084  0.00  0.00    +0.000 C 
ENDBRANCH   6   7
ENDBRANCH   3   5
ENDBRANCH   1   2
BRANCH   1   9
ATOM      9  C   UNL A   1     -29.768  -4.172  31.705  0.00  0.00    +0.201 C 
ATOM     10  O   UNL A   1     -29.184  -4.421  32.879  0.00  0.00    -0.219 OA
BRANCH   9  11
ATOM     11  C   UNL A   1     -29.835  -5.075  30.750  0.00  0.00    +0.042 C 
BRANCH  11  12
ATOM     12  C   UNL A   1     -31.134  -5.564  30.255  0.00  0.00    +0.031 C 
BRANCH  12  13
ATOM     13  C   UNL A   1     -31.723  -4.645  29.441  0.00  0.00    -0.003 A 
ATOM     14  C   UNL A   1     -31.977  -3.529  29.641  0.00  0.00    -0.001 A 
ATOM     15  C   UNL A   1     -32.563  -2.598  28.656  0.00  0.00    +0.017 A 
ATOM     16  C   UNL A   1     -32.655  -1.184  28.843  0.00  0.00    +0.002 A 
ATOM     17  C   UNL A   1     -32.795  -0.332  27.805  0.00  0.00    +0.000 A 
ATOM     18  C   UNL A   1     -32.054  -5.225  28.059  0.00  0.00    +0.095 A 
ATOM     19  N   UNL A   1     -32.564  -4.446  27.110  0.00  0.00    -0.244 NA
ATOM     20  C   UNL A   1     -32.718  -3.079  27.365  0.00  0.00    +0.081 A 
ATOM     21  C   UNL A   1     -33.062  -0.857  26.552  0.00  0.00    +0.002 A 
ATOM     22  C   UNL A   1     -32.961  -2.231  26.268  0.00  0.00    +0.019 A 
ENDBRANCH  12  13
ENDBRANCH  11  12
ENDBRANCH   9  11
ENDBRANCH   1   9
BRANCH   1  23
ATOM     23  O   UNL A   1     -29.000  -2.701  30.115  0.00  0.00    -0.467 OA
BRANCH  23  29
ATOM     24  C   UNL A   1     -28.016  -0.814  28.878  0.00  0.00    +0.037 A 
ATOM     25  C   UNL A   1     -27.064  -0.119  28.608  0.00  0.00    +0.003 A 
ATOM     26  C   UNL A   1     -25.792  -0.430  29.076  0.00  0.00    +0.000 A 
ATOM     27  C   UNL A   1     -25.576  -1.565  29.936  0.00  0.00    +0.003 A 
ATOM     28  C   UNL A   1     -26.735  -2.300  30.217  0.00  0.00    +0.037 A 
ATOM     29  C   UNL A   1     -27.918  -1.954  29.763  0.00  0.00    +0.139 A 
BRANCH  26  30
ATOM     30  C   UNL A   1     -24.529   0.349  28.800  0.00  0.00    +0.000 A 
ATOM     31  C   UNL A   1     -24.117   1.337  29.665  0.00  0.00    +0.000 A 
ATOM     32  C   UNL A   1     -23.404   2.142  29.487  0.00  0.00    +0.000 A 
ATOM     33  C   UNL A   1     -22.564   2.165  28.239  0.00  0.00    +0.000 A 
ATOM     34  C   UNL A   1     -22.941   1.232  27.275  0.00  0.00    +0.000 A 
ATOM     35  C   UNL A   1     -23.925   0.382  27.532  0.00  0.00    +0.000 A 
ENDBRANCH  26  30
ENDBRANCH  23  29
ENDBRANCH   1  23
TORSDOF 10
