MODEL 384
MODEL 1
REMARK VINA RESULT:    -5.290      0.000      0.000
REMARK INTER + INTRA:          -6.218
REMARK INTER:                  -5.908
REMARK INTRA:                  -0.310
REMARK UNBOUND:                -0.310
REMARK  Name = No_384-gen_results/8p0m/2024-11-27-11-27-31/
REMARK  2 active torsions:
REMARK  status: ('A' for Active; 'I' for Inactive)
REMARK    1  A    between atoms: C_2  and  C_4
REMARK    2  A    between atoms: C_4  and  C_6
REMARK                            x       y       z     vdW  Elec       q    Type
REMARK                         _______ _______ _______ _____ _____    ______ ____
ROOT
ATOM      1  C   UNL A   1     -24.636  -2.449  28.973  0.00  0.00    -0.014 A 
ATOM      2  C   UNL A   1     -25.903  -2.615  29.598  0.00  0.00    -0.004 A 
ATOM      3  C   UNL A   1     -26.427  -3.957  29.840  0.00  0.00    -0.000 A 
ATOM      4  C   UNL A   1     -25.655  -5.110  29.426  0.00  0.00    -0.000 A 
ATOM      5  C   UNL A   1     -24.397  -4.917  28.802  0.00  0.00    -0.000 A 
ATOM      6  C   UNL A   1     -23.937  -3.661  28.618  0.00  0.00    -0.004 A 
ENDROOT
BRANCH   1   7
ATOM      7  C   UNL A   1     -24.061  -1.257  28.668  0.00  0.00    +0.130 C 
BRANCH   7   9
ATOM      8  F   UNL A   1     -23.033  -1.241  30.592  0.00  0.00    -0.170 F 
ATOM      9  C   UNL A   1     -22.865  -0.904  29.510  0.00  0.00    +0.402 C 
ATOM     10  F   UNL A   1     -21.893  -1.269  29.019  0.00  0.00    -0.170 F 
ATOM     11  F   UNL A   1     -22.822   0.506  29.473  0.00  0.00    -0.170 F 
ENDBRANCH   7   9
ENDBRANCH   1   7
TORSDOF 2
ENDMDL
ENDMDL
