REMARK  Name = outputs/IAG933/test6/raw/output_385_IAG933_linker_design_.xyz
REMARK  11 active torsions:
REMARK  status: ('A' for Active; 'I' for Inactive)
REMARK    1  A    between atoms: C_1  and  C_2
REMARK    2  A    between atoms: C_1  and  C_8
REMARK    3  A    between atoms: C_1  and  N_28
REMARK    4  A    between atoms: C_13  and  C_41
REMARK    5  A    between atoms: C_14  and  C_15
REMARK    6  A    between atoms: C_21  and  O_22
REMARK    7  A    between atoms: O_22  and  C_23
REMARK    8  A    between atoms: C_23  and  C_24
REMARK    9  A    between atoms: N_28  and  C_38
REMARK   10  A    between atoms: N_28  and  C_46
REMARK   11  A    between atoms: C_34  and  C_38
REMARK                            x       y       z     vdW  Elec       q    Type
REMARK                         _______ _______ _______ _____ _____    ______ ____
ROOT
ATOM      1  F   UNL A   1     -22.670   1.732  29.843  0.00  0.00    -0.208 F 
ATOM      2  O   UNL A   1     -20.885   1.990  26.020  0.00  0.00    -0.220 OA
ATOM      3  C   UNL A   1     -21.026   1.848  27.530  0.00  0.00    +0.192 C 
ATOM      4  C   UNL A   1     -23.220   1.498  26.668  0.00  0.00    +0.046 C 
ATOM      5  F   UNL A   1     -19.380   0.915  28.694  0.00  0.00    -0.232 F 
ATOM      6  O   UNL A   1     -22.505  -0.440  29.324  0.00  0.00    -0.326 OA
ATOM      7  C   UNL A   1     -22.430   1.893  27.704  0.00  0.00    +0.094 C 
ATOM      8  O   UNL A   1     -22.087   2.561  25.203  0.00  0.00    -0.220 OA
ATOM      9  C   UNL A   1     -24.555   1.226  27.195  0.00  0.00    +0.047 C 
ATOM     10  C   UNL A   1     -23.063   1.417  25.211  0.00  0.00    +0.183 C 
ATOM     11  C   UNL A   1     -21.117  -0.451  29.142  0.00  0.00    +0.183 C 
ATOM     12  C   UNL A   1     -23.009   0.913  28.886  0.00  0.00    +0.243 C 
ATOM     13  C   UNL A   1     -20.644   0.561  28.265  0.00  0.00    +0.221 C 
ATOM     14  C   UNL A   1     -24.392   0.619  28.412  0.00  0.00    +0.119 C 
ENDROOT
BRANCH   9  15
ATOM     15  C   UNL A   1     -25.688   1.614  26.461  0.00  0.00    +0.017 C 
ATOM     16  C   UNL A   1     -26.250   2.920  26.395  0.00  0.00    +0.073 C 
ATOM     17  C   UNL A   1     -27.438   3.091  25.645  0.00  0.00    +0.106 C 
ATOM     18  N   UNL A   1     -28.075   2.089  25.003  0.00  0.00    -0.208 NA
ATOM     19  C   UNL A   1     -27.543   0.849  25.079  0.00  0.00    +0.253 C 
ATOM     20  C   UNL A   1     -26.354   0.576  25.777  0.00  0.00    +0.189 C 
ATOM     21  F   UNL A   1     -25.860  -0.681  25.795  0.00  0.00    -0.200 F 
BRANCH  16  22
ATOM     22  C   UNL A   1     -25.642   4.093  27.123  0.00  0.00    +0.266 C 
ATOM     23  N   UNL A   1     -25.614   5.252  26.449  0.00  0.00    -0.200 NA
ATOM     24  C   UNL A   1     -25.026   6.479  26.963  0.00  0.00    +0.139 C 
ATOM     25  O   UNL A   1     -25.143   3.966  28.243  0.00  0.00    -0.268 OA
ENDBRANCH  16  22
BRANCH  19  26
ATOM     26  O   UNL A   1     -28.193  -0.208  24.477  0.00  0.00    -0.456 OA
BRANCH  26  27
ATOM     27  C   UNL A   1     -29.460   0.005  23.866  0.00  0.00    +0.243 C 
BRANCH  27  28
ATOM     28  C   UNL A   1     -30.065  -1.377  23.573  0.00  0.00    +0.229 C 
ATOM     29  O   UNL A   1     -30.729  -1.878  24.721  0.00  0.00    -0.216 OA
ENDBRANCH  27  28
ENDBRANCH  26  27
ENDBRANCH  19  26
ENDBRANCH   9  15
BRANCH  14  30
ATOM     30  N   UNL A   1     -25.283  -0.053  29.204  0.00  0.00    -0.260 NA
BRANCH  30  31
ATOM     31  C   UNL A   1     -24.855  -1.012  30.143  0.00  0.00    +0.097 C 
BRANCH  31  32
ATOM     32  C   UNL A   1     -24.973  -2.505  29.788  0.00  0.00    -0.006 C 
ATOM     33  C   UNL A   1     -23.906  -3.173  29.146  0.00  0.00    -0.003 C 
ATOM     34  C   UNL A   1     -23.989  -4.549  28.853  0.00  0.00    -0.000 C 
ATOM     35  C   UNL A   1     -25.137  -5.280  29.205  0.00  0.00    -0.000 C 
ATOM     36  C   UNL A   1     -26.232  -4.611  29.784  0.00  0.00    -0.000 C 
ATOM     37  C   UNL A   1     -26.155  -3.232  30.065  0.00  0.00    -0.003 C 
ENDBRANCH  31  32
BRANCH  31  38
ATOM     38  C   UNL A   1     -25.387  -0.679  31.571  0.00  0.00    +0.092 C 
ATOM     39  C   UNL A   1     -25.189   0.773  32.028  0.00  0.00    +0.021 C 
ATOM     40  C   UNL A   1     -25.336   0.684  33.544  0.00  0.00    +0.020 C 
ATOM     41  C   UNL A   1     -24.829  -0.715  33.905  0.00  0.00    +0.089 C 
ATOM     42  N   UNL A   1     -24.758  -1.481  32.646  0.00  0.00    -0.218 NA
ENDBRANCH  31  38
ENDBRANCH  30  31
BRANCH  30  43
ATOM     43  C   UNL A   1     -26.713   0.499  29.088  0.00  0.00    +0.138 C 
BRANCH  43  45
ATOM     44  C   UNL A   1     -28.809  -0.961  29.596  0.00  0.00    +0.074 C 
ATOM     45  C   UNL A   1     -27.665  -0.576  28.742  0.00  0.00    +0.167 C 
ATOM     46  O   UNL A   1     -27.569  -1.123  27.688  0.00  0.00    -0.295 OA
ENDBRANCH  43  45
ENDBRANCH  30  43
ENDBRANCH  14  30
TORSDOF 11
