MODEL 3850
MODEL 1
REMARK VINA RESULT:    -7.248      0.000      0.000
REMARK INTER + INTRA:         -11.195
REMARK INTER:                 -10.214
REMARK INTRA:                  -0.981
REMARK UNBOUND:                -0.981
REMARK  Name = No_3850-gen_results/8p0m/2024-11-27-11-27-31/
REMARK  7 active torsions:
REMARK  status: ('A' for Active; 'I' for Inactive)
REMARK    1  A    between atoms: C_2  and  C_15
REMARK    2  A    between atoms: C_4  and  C_7
REMARK    3  A    between atoms: C_7  and  C_8
REMARK    4  A    between atoms: C_15  and  O_17
REMARK    5  A    between atoms: O_17  and  C_19
REMARK    6  A    between atoms: C_19  and  C_20
REMARK    7  A    between atoms: N_22  and  C_23
REMARK                            x       y       z     vdW  Elec       q    Type
REMARK                         _______ _______ _______ _____ _____    ______ ____
ROOT
ATOM      1  C   UNL A   1      -6.460   0.264  35.628  0.00  0.00    +0.036 A 
ATOM      2  C   UNL A   1      -7.131  -0.398  35.157  0.00  0.00    +0.078 A 
ATOM      3  C   UNL A   1      -5.046  -0.143  35.656  0.00  0.00    +0.143 A 
ATOM      4  C   UNL A   1      -4.611  -1.305  34.953  0.00  0.00    +0.066 A 
ATOM      5  C   UNL A   1      -5.594  -2.035  34.334  0.00  0.00    +0.006 A 
ATOM      6  C   UNL A   1      -6.881  -1.629  34.361  0.00  0.00    +0.007 A 
ATOM      7  F   UNL A   1      -4.081   0.549  36.260  0.00  0.00    -0.204 F 
ENDROOT
BRANCH   4   8
ATOM      8  C   UNL A   1      -3.229  -1.708  34.953  0.00  0.00    +0.198 C 
ATOM      9  O   UNL A   1      -2.804  -2.396  35.903  0.00  0.00    -0.286 OA
BRANCH   8  10
ATOM     10  C   UNL A   1      -2.446  -1.185  33.904  0.00  0.00    +0.039 A 
ATOM     11  C   UNL A   1      -2.281   0.060  33.546  0.00  0.00    +0.003 A 
ATOM     12  C   UNL A   1      -1.683  -2.189  33.076  0.00  0.00    +0.003 A 
ATOM     13  C   UNL A   1      -1.271  -1.936  31.783  0.00  0.00    +0.000 A 
ATOM     14  C   UNL A   1      -1.858   0.497  32.243  0.00  0.00    +0.000 A 
ATOM     15  C   UNL A   1      -1.244  -0.524  31.383  0.00  0.00    +0.000 A 
ENDBRANCH   8  10
ENDBRANCH   4   8
BRANCH   2  16
ATOM     16  C   UNL A   1      -8.683   0.005  35.122  0.00  0.00    +0.342 C 
ATOM     17  O   UNL A   1      -9.199  -0.120  36.092  0.00  0.00    -0.245 OA
BRANCH  16  18
ATOM     18  O   UNL A   1      -9.139   0.729  34.098  0.00  0.00    -0.435 OA
BRANCH  18  19
ATOM     19  C   UNL A   1      -9.862   1.632  34.153  0.00  0.00    +0.295 C 
BRANCH  19  20
ATOM     20  C   UNL A   1     -11.082   1.485  33.761  0.00  0.00    +0.292 C 
ATOM     21  O   UNL A   1     -11.403   1.113  32.636  0.00  0.00    -0.269 OA
ATOM     22  N   UNL A   1     -12.187   1.527  34.609  0.00  0.00    -0.144 NA
BRANCH  22  23
ATOM     23  C   UNL A   1     -13.027   2.111  34.612  0.00  0.00    +0.271 C 
ATOM     24  C   UNL A   1     -13.644   2.669  35.564  0.00  0.00    +0.322 C 
ATOM     25  F   UNL A   1     -13.665   2.462  33.424  0.00  0.00    -0.181 F 
ATOM     26  F   UNL A   1     -14.718   3.019  35.619  0.00  0.00    -0.168 F 
ATOM     27  F   UNL A   1     -12.935   3.836  36.013  0.00  0.00    -0.168 F 
ENDBRANCH  22  23
ENDBRANCH  19  20
ENDBRANCH  18  19
ENDBRANCH  16  18
ENDBRANCH   2  16
TORSDOF 7
ENDMDL
ENDMDL
