REMARK  Name = No_3851-gen_results/8p0m/2024-11-27-11-27-31/
REMARK  4 active torsions:
REMARK  status: ('A' for Active; 'I' for Inactive)
REMARK    1  A    between atoms: C_3  and  C_8
REMARK    2  A    between atoms: C_6  and  O_7
REMARK    3  A    between atoms: O_7  and  C_14
REMARK    4  A    between atoms: C_14  and  C_15
REMARK                            x       y       z     vdW  Elec       q    Type
REMARK                         _______ _______ _______ _____ _____    ______ ____
ROOT
ATOM      1  C   UNL A   1     -28.016  -0.814  28.878  0.00  0.00    +0.037 A 
ATOM      2  C   UNL A   1     -27.064  -0.119  28.608  0.00  0.00    +0.003 A 
ATOM      3  C   UNL A   1     -25.765  -0.390  29.036  0.00  0.00    +0.000 A 
ATOM      4  C   UNL A   1     -25.530  -1.530  29.901  0.00  0.00    +0.003 A 
ATOM      5  C   UNL A   1     -26.689  -2.289  30.181  0.00  0.00    +0.037 A 
ATOM      6  C   UNL A   1     -27.873  -1.951  29.737  0.00  0.00    +0.139 A 
ENDROOT
BRANCH   3   7
ATOM      7  C   UNL A   1     -24.528   0.400  28.726  0.00  0.00    +0.000 A 
ATOM      8  C   UNL A   1     -23.341   0.106  29.174  0.00  0.00    +0.000 A 
ATOM      9  C   UNL A   1     -22.227   0.920  28.869  0.00  0.00    +0.000 A 
ATOM     10  C   UNL A   1     -24.460   1.177  27.510  0.00  0.00    +0.000 A 
ATOM     11  C   UNL A   1     -23.456   2.013  27.133  0.00  0.00    +0.000 A 
ATOM     12  C   UNL A   1     -22.236   1.831  27.814  0.00  0.00    +0.000 A 
ENDBRANCH   3   7
BRANCH   6  13
ATOM     13  O   UNL A   1     -29.015  -2.574  30.098  0.00  0.00    -0.471 OA
BRANCH  13  14
ATOM     14  C   UNL A   1     -29.293  -2.817  31.444  0.00  0.00    +0.232 C 
BRANCH  14  15
ATOM     15  C   UNL A   1     -29.741  -4.152  31.657  0.00  0.00    +0.021 A 
ATOM     16  C   UNL A   1     -29.688  -5.044  30.713  0.00  0.00    -0.001 A 
ATOM     17  C   UNL A   1     -30.329  -6.359  30.849  0.00  0.00    -0.000 A 
ATOM     18  C   UNL A   1     -30.870  -6.683  32.128  0.00  0.00    -0.000 A 
ATOM     19  C   UNL A   1     -30.897  -5.773  33.152  0.00  0.00    -0.000 A 
ATOM     20  C   UNL A   1     -30.378  -4.480  32.956  0.00  0.00    -0.001 A 
ENDBRANCH  14  15
ENDBRANCH  13  14
ENDBRANCH   6  13
TORSDOF 4
