MODEL 3851
MODEL 1
REMARK VINA RESULT:    -6.874      0.000      0.000
REMARK INTER + INTRA:          -9.223
REMARK INTER:                  -8.482
REMARK INTRA:                  -0.741
REMARK UNBOUND:                -0.741
REMARK  Name = No_3851-gen_results/8p0m/2024-11-27-11-27-31/
REMARK  4 active torsions:
REMARK  status: ('A' for Active; 'I' for Inactive)
REMARK    1  A    between atoms: C_3  and  C_8
REMARK    2  A    between atoms: C_6  and  O_7
REMARK    3  A    between atoms: O_7  and  C_14
REMARK    4  A    between atoms: C_14  and  C_15
REMARK                            x       y       z     vdW  Elec       q    Type
REMARK                         _______ _______ _______ _____ _____    ______ ____
ROOT
ATOM      1  C   UNL A   1     -10.371   1.284  36.094  0.00  0.00    +0.037 A 
ATOM      2  C   UNL A   1     -11.377   1.708  36.614  0.00  0.00    +0.003 A 
ATOM      3  C   UNL A   1     -12.523   2.061  35.903  0.00  0.00    +0.000 A 
ATOM      4  C   UNL A   1     -12.510   1.978  34.455  0.00  0.00    +0.003 A 
ATOM      5  C   UNL A   1     -11.299   1.483  33.918  0.00  0.00    +0.037 A 
ATOM      6  C   UNL A   1     -10.270   1.182  34.669  0.00  0.00    +0.139 A 
ENDROOT
BRANCH   3   7
ATOM      7  C   UNL A   1     -13.817   2.567  36.468  0.00  0.00    +0.000 A 
ATOM      8  C   UNL A   1     -13.991   2.896  37.717  0.00  0.00    +0.000 A 
ATOM      9  C   UNL A   1     -15.251   3.330  38.185  0.00  0.00    +0.000 A 
ATOM     10  C   UNL A   1     -14.763   3.237  35.606  0.00  0.00    +0.000 A 
ATOM     11  C   UNL A   1     -16.008   3.667  35.941  0.00  0.00    +0.000 A 
ATOM     12  C   UNL A   1     -16.250   3.783  37.325  0.00  0.00    +0.000 A 
ENDBRANCH   3   7
BRANCH   6  13
ATOM     13  O   UNL A   1      -9.059   0.840  34.179  0.00  0.00    -0.471 OA
BRANCH  13  14
ATOM     14  C   UNL A   1      -7.900   1.101  34.911  0.00  0.00    +0.232 C 
BRANCH  14  15
ATOM     15  C   UNL A   1      -6.908   0.102  34.700  0.00  0.00    +0.021 A 
ATOM     16  C   UNL A   1      -7.228  -1.143  34.506  0.00  0.00    -0.001 A 
ATOM     17  C   UNL A   1      -6.221  -2.212  34.491  0.00  0.00    -0.000 A 
ATOM     18  C   UNL A   1      -4.853  -1.809  34.529  0.00  0.00    -0.000 A 
ATOM     19  C   UNL A   1      -4.491  -0.498  34.689  0.00  0.00    -0.000 A 
ATOM     20  C   UNL A   1      -5.481   0.494  34.816  0.00  0.00    -0.001 A 
ENDBRANCH  14  15
ENDBRANCH  13  14
ENDBRANCH   6  13
TORSDOF 4
ENDMDL
ENDMDL
