REMARK  Name = No_3852-gen_results/8p0m/2024-11-27-11-27-31/
REMARK  3 active torsions:
REMARK  status: ('A' for Active; 'I' for Inactive)
REMARK    1  A    between atoms: C_2  and  C_14
REMARK    2  A    between atoms: C_4  and  C_5
REMARK    3  A    between atoms: C_5  and  C_8
REMARK                            x       y       z     vdW  Elec       q    Type
REMARK                         _______ _______ _______ _____ _____    ______ ____
ROOT
ATOM      1  C   UNL A   1     -28.016  -0.814  28.878  0.00  0.00    +0.016 A 
ATOM      2  C   UNL A   1     -28.469  -0.785  29.829  0.00  0.00    +0.054 A 
ATOM      3  C   UNL A   1     -26.546  -0.876  28.850  0.00  0.00    +0.054 A 
ATOM      4  C   UNL A   1     -25.804  -1.032  30.057  0.00  0.00    -0.007 A 
ATOM      5  C   UNL A   1     -27.990  -1.005  31.209  0.00  0.00    +0.004 A 
ATOM      6  C   UNL A   1     -26.562  -1.137  31.260  0.00  0.00    -0.003 A 
ATOM      7 CL   UNL A   1     -25.582  -0.730  27.437  0.00  0.00    -0.083 Cl
ENDROOT
BRANCH   2   8
ATOM      8  C   UNL A   1     -30.075  -0.717  29.865  0.00  0.00    +0.249 C 
ATOM      9  O   UNL A   1     -30.785  -1.478  30.313  0.00  0.00    -0.270 OA
ATOM     10  N   UNL A   1     -30.524   0.399  29.231  0.00  0.00    -0.276 N 
ATOM     11  C   UNL A   1     -31.945   0.623  29.075  0.00  0.00    +0.094 C 
ATOM     12  C   UNL A   1     -32.287   1.577  28.547  0.00  0.00    +0.022 C 
ATOM     13  C   UNL A   1     -31.368   2.550  27.942  0.00  0.00    +0.004 C 
ATOM     14  C   UNL A   1     -29.989   2.335  28.035  0.00  0.00    +0.022 C 
ATOM     15  C   UNL A   1     -29.594   1.318  28.683  0.00  0.00    +0.094 C 
ENDBRANCH   2   8
BRANCH   4  16
ATOM     16  C   UNL A   1     -24.370  -1.100  30.072  0.00  0.00    +0.051 C 
BRANCH  16  17
ATOM     17  C   UNL A   1     -23.727   0.171  30.026  0.00  0.00    -0.014 C 
ATOM     18  C   UNL A   1     -24.050   1.254  30.557  0.00  0.00    +0.014 C 
ATOM     19  C   UNL A   1     -23.433   2.522  30.259  0.00  0.00    +0.093 C 
ATOM     20  N   UNL A   1     -22.586   2.374  29.235  0.00  0.00    -0.264 NA
ATOM     21  C   UNL A   1     -22.625   0.534  29.043  0.00  0.00    +0.148 C 
ENDBRANCH  16  17
ENDBRANCH   4  16
TORSDOF 3
