MODEL 3852
MODEL 1
REMARK VINA RESULT:    -6.775      0.000      0.000
REMARK INTER + INTRA:          -7.788
REMARK INTER:                  -7.963
REMARK INTRA:                   0.174
REMARK UNBOUND:                 0.174
REMARK  Name = No_3852-gen_results/8p0m/2024-11-27-11-27-31/
REMARK  3 active torsions:
REMARK  status: ('A' for Active; 'I' for Inactive)
REMARK    1  A    between atoms: C_2  and  C_14
REMARK    2  A    between atoms: C_4  and  C_5
REMARK    3  A    between atoms: C_5  and  C_8
REMARK                            x       y       z     vdW  Elec       q    Type
REMARK                         _______ _______ _______ _____ _____    ______ ____
ROOT
ATOM      1  C   UNL A   1     -25.826   1.833  26.311  0.00  0.00    +0.016 A 
ATOM      2  C   UNL A   1     -25.079   1.140  26.045  0.00  0.00    +0.054 A 
ATOM      3  C   UNL A   1     -27.016   1.884  25.447  0.00  0.00    +0.054 A 
ATOM      4  C   UNL A   1     -27.189   0.936  24.396  0.00  0.00    -0.007 A 
ATOM      5  C   UNL A   1     -25.008   0.010  25.096  0.00  0.00    +0.004 A 
ATOM      6  C   UNL A   1     -26.167  -0.047  24.252  0.00  0.00    -0.003 A 
ATOM      7 CL   UNL A   1     -28.263   3.058  25.558  0.00  0.00    -0.083 Cl
ENDROOT
BRANCH   2   8
ATOM      8  C   UNL A   1     -23.776   1.081  26.986  0.00  0.00    +0.249 C 
ATOM      9  O   UNL A   1     -22.888   1.785  26.975  0.00  0.00    -0.270 OA
ATOM     10  N   UNL A   1     -23.836   0.013  27.825  0.00  0.00    -0.276 N 
ATOM     11  C   UNL A   1     -22.729  -0.279  28.709  0.00  0.00    +0.094 C 
ATOM     12  C   UNL A   1     -22.818  -1.179  29.408  0.00  0.00    +0.022 C 
ATOM     13  C   UNL A   1     -23.956  -2.107  29.405  0.00  0.00    +0.004 C 
ATOM     14  C   UNL A   1     -25.020  -1.877  28.526  0.00  0.00    +0.022 C 
ATOM     15  C   UNL A   1     -24.968  -0.841  27.796  0.00  0.00    +0.094 C 
ENDBRANCH   2   8
BRANCH   4  16
ATOM     16  C   UNL A   1     -28.337   0.950  23.533  0.00  0.00    +0.051 C 
BRANCH  16  17
ATOM     17  C   UNL A   1     -29.340   0.001  23.886  0.00  0.00    -0.014 C 
ATOM     18  C   UNL A   1     -30.251   0.074  24.737  0.00  0.00    +0.014 C 
ATOM     19  C   UNL A   1     -31.070  -1.038  25.149  0.00  0.00    +0.093 C 
ATOM     20  N   UNL A   1     -30.603  -2.163  24.596  0.00  0.00    -0.264 NA
ATOM     21  C   UNL A   1     -29.316  -1.461  23.467  0.00  0.00    +0.148 C 
ENDBRANCH  16  17
ENDBRANCH   4  16
TORSDOF 3
ENDMDL
ENDMDL
