MODEL 3853
MODEL 1
REMARK VINA RESULT:    -6.466      0.000      0.000
REMARK INTER + INTRA:          -7.576
REMARK INTER:                  -7.222
REMARK INTRA:                  -0.355
REMARK UNBOUND:                -0.355
REMARK  Name = No_3853-gen_results/8p0m/2024-11-27-11-27-31/
REMARK  2 active torsions:
REMARK  status: ('A' for Active; 'I' for Inactive)
REMARK    1  A    between atoms: C_1  and  C_7
REMARK    2  A    between atoms: N_8  and  C_10
REMARK                            x       y       z     vdW  Elec       q    Type
REMARK                         _______ _______ _______ _____ _____    ______ ____
ROOT
ATOM      1  C   UNL A   1     -25.043  -1.043  29.853  0.00  0.00    +0.269 C 
ATOM      2  N   UNL A   1     -24.939  -0.115  29.277  0.00  0.00    -0.175 NA
ATOM      3  O   UNL A   1     -25.075  -0.897  31.202  0.00  0.00    -0.268 OA
ENDROOT
BRANCH   1   4
ATOM      4  C   UNL A   1     -25.085  -2.521  29.449  0.00  0.00    +0.055 A 
ATOM      5  C   UNL A   1     -25.967  -3.209  29.907  0.00  0.00    +0.005 A 
ATOM      6  C   UNL A   1     -26.128  -4.547  29.605  0.00  0.00    +0.000 A 
ATOM      7  C   UNL A   1     -25.130  -5.118  28.914  0.00  0.00    +0.000 A 
ATOM      8  C   UNL A   1     -23.897  -3.123  28.981  0.00  0.00    +0.005 A 
ATOM      9  C   UNL A   1     -24.008  -4.407  28.636  0.00  0.00    +0.000 A 
ENDBRANCH   1   4
BRANCH   2  10
ATOM     10  C   UNL A   1     -24.784  -0.069  27.792  0.00  0.00    +0.074 A 
ATOM     11  C   UNL A   1     -23.796   0.679  27.411  0.00  0.00    +0.017 A 
ATOM     12  C   UNL A   1     -23.789   1.109  26.068  0.00  0.00    +0.001 A 
ATOM     13  C   UNL A   1     -24.720   0.550  25.189  0.00  0.00    +0.000 A 
ATOM     14  C   UNL A   1     -25.849  -0.347  26.992  0.00  0.00    +0.017 A 
ATOM     15  C   UNL A   1     -25.766  -0.142  25.689  0.00  0.00    +0.001 A 
ENDBRANCH   2  10
TORSDOF 2
ENDMDL
ENDMDL
