MODEL 3854
MODEL 1
REMARK VINA RESULT:    -7.639      0.000      0.000
REMARK INTER + INTRA:         -13.846
REMARK INTER:                 -10.765
REMARK INTRA:                  -3.082
REMARK UNBOUND:                -3.082
REMARK  Name = No_3854-gen_results/8p0m/2024-11-27-11-27-31/
REMARK  7 active torsions:
REMARK  status: ('A' for Active; 'I' for Inactive)
REMARK    1  A    between atoms: C_4  and  C_12
REMARK    2  A    between atoms: C_10  and  C_18
REMARK    3  A    between atoms: C_13  and  O_26
REMARK    4  A    between atoms: C_18  and  C_19
REMARK    5  A    between atoms: O_26  and  C_27
REMARK    6  A    between atoms: C_28  and  O_33
REMARK    7  A    between atoms: O_33  and  C_34
REMARK                            x       y       z     vdW  Elec       q    Type
REMARK                         _______ _______ _______ _____ _____    ______ ____
ROOT
ATOM      1  C   UNL A   1     -11.659  -2.465  37.801  0.00  0.00    +0.140 A 
ATOM      2  C   UNL A   1     -10.928  -1.504  37.725  0.00  0.00    +0.030 A 
ATOM      3  C   UNL A   1     -10.973  -0.438  38.602  0.00  0.00    +0.002 A 
ATOM      4  C   UNL A   1     -10.174   0.769  38.509  0.00  0.00    +0.003 A 
ATOM      5  C   UNL A   1     -10.189   1.804  39.422  0.00  0.00    -0.000 A 
ATOM      6  C   UNL A   1     -12.250  -2.780  39.033  0.00  0.00    +0.030 A 
ATOM      7  C   UNL A   1     -12.275  -1.855  40.004  0.00  0.00    +0.002 A 
ATOM      8  C   UNL A   1     -11.567  -0.615  39.881  0.00  0.00    -0.004 A 
ATOM      9  C   UNL A   1     -10.858   1.564  40.656  0.00  0.00    -0.004 A 
ATOM     10  C   UNL A   1     -11.530   0.381  40.868  0.00  0.00    -0.018 A 
ATOM     11  F   UNL A   1     -11.654  -3.434  36.813  0.00  0.00    -0.204 F 
ENDROOT
BRANCH   4  12
ATOM     12  C   UNL A   1      -9.493   1.094  37.193  0.00  0.00    +0.035 A 
ATOM     13  C   UNL A   1     -10.348   1.723  36.214  0.00  0.00    +0.145 A 
ATOM     14  C   UNL A   1      -9.747   2.075  34.967  0.00  0.00    +0.037 A 
ATOM     15  C   UNL A   1      -8.324   1.950  34.822  0.00  0.00    +0.003 A 
ATOM     16  C   UNL A   1      -7.561   1.993  35.717  0.00  0.00    +0.000 A 
ATOM     17  C   UNL A   1      -8.106   1.386  37.051  0.00  0.00    +0.003 A 
BRANCH  13  18
ATOM     18  O   UNL A   1     -11.643   1.539  36.289  0.00  0.00    -0.450 OA
BRANCH  18  19
ATOM     19  C   UNL A   1     -12.653   2.162  36.344  0.00  0.00    +0.179 A 
ATOM     20  C   UNL A   1     -13.376   2.563  35.183  0.00  0.00    +0.180 A 
ATOM     21  C   UNL A   1     -14.457   3.330  35.330  0.00  0.00    +0.041 A 
ATOM     22  C   UNL A   1     -13.345   2.300  37.573  0.00  0.00    +0.041 A 
ATOM     23  C   UNL A   1     -14.538   3.008  37.711  0.00  0.00    +0.003 A 
ATOM     24  C   UNL A   1     -15.124   3.548  36.554  0.00  0.00    +0.003 A 
BRANCH  20  25
ATOM     25  O   UNL A   1     -13.111   2.369  33.965  0.00  0.00    -0.447 OA
BRANCH  25  26
ATOM     26  C   UNL A   1     -13.181   1.247  33.287  0.00  0.00    +0.180 C 
ATOM     27  C   UNL A   1     -12.227   0.937  32.541  0.00  0.00    +0.044 C 
ENDBRANCH  25  26
ENDBRANCH  20  25
ENDBRANCH  18  19
ENDBRANCH  13  18
ENDBRANCH   4  12
BRANCH  10  28
ATOM     28  C   UNL A   1     -12.277   0.221  42.119  0.00  0.00    +0.045 C 
ATOM     29  C   UNL A   1     -11.833  -0.271  43.224  0.00  0.00    +0.009 C 
BRANCH  28  30
ATOM     30  C   UNL A   1     -13.552   0.633  41.881  0.00  0.00    -0.018 A 
ATOM     31  C   UNL A   1     -14.636  -0.023  42.264  0.00  0.00    -0.004 A 
ATOM     32  C   UNL A   1     -15.976   0.437  41.950  0.00  0.00    -0.000 A 
ATOM     33  C   UNL A   1     -16.176   1.719  41.579  0.00  0.00    -0.000 A 
ATOM     34  C   UNL A   1     -15.075   2.544  41.241  0.00  0.00    -0.000 A 
ATOM     35  C   UNL A   1     -13.767   2.059  41.442  0.00  0.00    -0.004 A 
ENDBRANCH  28  30
ENDBRANCH  10  28
TORSDOF 7
ENDMDL
ENDMDL
