MODEL 3858
MODEL 1
REMARK VINA RESULT:    -6.592      0.000      0.000
REMARK INTER + INTRA:          -7.854
REMARK INTER:                  -7.363
REMARK INTRA:                  -0.491
REMARK UNBOUND:                -0.491
REMARK  Name = No_3858-gen_results/8p0m/2024-11-27-11-27-31/
REMARK  2 active torsions:
REMARK  status: ('A' for Active; 'I' for Inactive)
REMARK    1  A    between atoms: C_4  and  C_7
REMARK    2  A    between atoms: C_7  and  C_8
REMARK                            x       y       z     vdW  Elec       q    Type
REMARK                         _______ _______ _______ _____ _____    ______ ____
ROOT
ATOM      1  C   UNL A   1     -24.192  -1.469  29.940  0.00  0.00    +0.053 C 
ENDROOT
BRANCH   1   5
ATOM      2  C   UNL A   1     -21.687   0.778  28.176  0.00  0.00    -0.000 A 
ATOM      3  C   UNL A   1     -22.264   1.313  27.474  0.00  0.00    -0.000 A 
ATOM      4  C   UNL A   1     -22.138  -0.195  29.187  0.00  0.00    -0.004 A 
ATOM      5  C   UNL A   1     -23.583  -0.523  29.049  0.00  0.00    -0.018 A 
ATOM      6  C   UNL A   1     -24.304   0.106  28.005  0.00  0.00    -0.004 A 
ATOM      7  C   UNL A   1     -23.707   0.994  27.193  0.00  0.00    -0.000 A 
ENDBRANCH   1   5
BRANCH   1   8
ATOM      8  C   UNL A   1     -24.855  -2.617  29.401  0.00  0.00    -0.018 A 
ATOM      9  C   UNL A   1     -25.918  -3.109  29.917  0.00  0.00    -0.004 A 
ATOM     10  C   UNL A   1     -26.275  -4.494  29.689  0.00  0.00    -0.000 A 
ATOM     11  C   UNL A   1     -25.265  -5.286  29.058  0.00  0.00    -0.000 A 
ATOM     12  C   UNL A   1     -24.099  -4.800  28.583  0.00  0.00    -0.000 A 
ATOM     13  C   UNL A   1     -23.834  -3.444  28.743  0.00  0.00    -0.004 A 
ENDBRANCH   1   8
TORSDOF 2
ENDMDL
ENDMDL
