REMARK  Name = outputs/IAG933/test6/raw/output_3859_IAG933_linker_design_.xyz
REMARK  14 active torsions:
REMARK  status: ('A' for Active; 'I' for Inactive)
REMARK    1  A    between atoms: C_1  and  C_2
REMARK    2  A    between atoms: C_1  and  C_8
REMARK    3  A    between atoms: C_9  and  C_34
REMARK    4  A    between atoms: C_13  and  C_41
REMARK    5  A    between atoms: C_14  and  C_15
REMARK    6  A    between atoms: C_21  and  O_22
REMARK    7  A    between atoms: O_22  and  C_23
REMARK    8  A    between atoms: C_23  and  C_24
REMARK    9  A    between atoms: C_28  and  O_30
REMARK   10  A    between atoms: C_28  and  C_39
REMARK   11  A    between atoms: O_30  and  C_34
REMARK   12  A    between atoms: C_34  and  N_40
REMARK   13  A    between atoms: C_35  and  C_39
REMARK   14  A    between atoms: C_35  and  N_42
REMARK                            x       y       z     vdW  Elec       q    Type
REMARK                         _______ _______ _______ _____ _____    ______ ____
ROOT
ATOM      1  N   UNL A   1     -24.408   1.315  28.230  0.00  0.00    -0.041 NA
ATOM      2  C   UNL A   1     -22.091   1.792  26.852  0.00  0.00    +0.011 C 
ATOM      3  C   UNL A   1     -22.134   1.511  28.214  0.00  0.00    +0.093 C 
ATOM      4  C   UNL A   1     -23.343   1.428  28.970  0.00  0.00    +0.363 C 
ATOM      5  C   UNL A   1     -23.305   1.867  26.156  0.00  0.00    +0.043 C 
ATOM      6  N   UNL A   1     -23.535   1.497  30.316  0.00  0.00    -0.004 NA
ATOM      7  C   UNL A   1     -24.474   1.583  26.901  0.00  0.00    +0.178 C 
ENDROOT
BRANCH   7   8
ATOM      8  C   UNL A   1     -25.688   1.614  26.461  0.00  0.00    +0.136 C 
ATOM      9  C   UNL A   1     -26.250   2.920  26.395  0.00  0.00    +0.063 C 
ATOM     10  C   UNL A   1     -27.438   3.091  25.645  0.00  0.00    +0.103 C 
ATOM     11  N   UNL A   1     -28.075   2.089  25.003  0.00  0.00    -0.212 NA
ATOM     12  C   UNL A   1     -27.543   0.849  25.079  0.00  0.00    +0.235 C 
ATOM     13  C   UNL A   1     -26.354   0.576  25.777  0.00  0.00    +0.248 C 
ATOM     14  F   UNL A   1     -25.860  -0.681  25.795  0.00  0.00    -0.226 F 
BRANCH   9  15
ATOM     15  C   UNL A   1     -25.642   4.093  27.123  0.00  0.00    +0.263 C 
ATOM     16  N   UNL A   1     -25.614   5.252  26.449  0.00  0.00    -0.200 NA
ATOM     17  C   UNL A   1     -25.026   6.479  26.963  0.00  0.00    +0.139 C 
ATOM     18  O   UNL A   1     -25.143   3.966  28.243  0.00  0.00    -0.269 OA
ENDBRANCH   9  15
BRANCH  12  19
ATOM     19  O   UNL A   1     -28.193  -0.208  24.477  0.00  0.00    -0.459 OA
BRANCH  19  20
ATOM     20  C   UNL A   1     -29.460   0.005  23.866  0.00  0.00    +0.242 C 
BRANCH  20  21
ATOM     21  C   UNL A   1     -30.065  -1.377  23.573  0.00  0.00    +0.229 C 
ATOM     22  O   UNL A   1     -30.729  -1.878  24.721  0.00  0.00    -0.216 OA
ENDBRANCH  20  21
ENDBRANCH  19  20
ENDBRANCH  12  19
ENDBRANCH   7   8
BRANCH   6  23
ATOM     23  C   UNL A   1     -24.615   1.795  31.128  0.00  0.00    +0.326 C 
BRANCH  23  25
ATOM     24  C   UNL A   1     -25.387  -0.679  31.571  0.00  0.00    +0.084 C 
ATOM     25  C   UNL A   1     -25.189   0.773  32.028  0.00  0.00    +0.095 C 
ATOM     26  C   UNL A   1     -25.336   0.684  33.544  0.00  0.00    +0.027 C 
ATOM     27  C   UNL A   1     -24.829  -0.715  33.905  0.00  0.00    +0.089 C 
ATOM     28  N   UNL A   1     -24.758  -1.481  32.646  0.00  0.00    -0.219 NA
BRANCH  24  29
ATOM     29  C   UNL A   1     -24.855  -1.012  30.143  0.00  0.00    +0.044 C 
BRANCH  29  30
ATOM     30  C   UNL A   1     -24.973  -2.505  29.788  0.00  0.00    -0.021 C 
ATOM     31  C   UNL A   1     -23.906  -3.173  29.146  0.00  0.00    -0.004 C 
ATOM     32  C   UNL A   1     -23.989  -4.549  28.853  0.00  0.00    -0.000 C 
ATOM     33  C   UNL A   1     -25.137  -5.280  29.205  0.00  0.00    -0.000 C 
ATOM     34  C   UNL A   1     -26.232  -4.611  29.784  0.00  0.00    -0.000 C 
ATOM     35  C   UNL A   1     -26.155  -3.232  30.065  0.00  0.00    -0.004 C 
ENDBRANCH  29  30
ENDBRANCH  24  29
ENDBRANCH  23  25
BRANCH  23  36
ATOM     36  O   UNL A   1     -25.160   3.089  31.038  0.00  0.00    -0.316 OA
BRANCH  36  37
ATOM     37  C   UNL A   1     -26.371   3.812  31.297  0.00  0.00    +0.148 C 
BRANCH  37  38
ATOM     38  C   UNL A   1     -26.124   5.240  30.772  0.00  0.00    +0.050 C 
BRANCH  38  39
ATOM     39  C   UNL A   1     -26.264   6.323  31.828  0.00  0.00    +0.077 C 
BRANCH  39  42
ATOM     40  C   UNL A   1     -25.993   6.400  34.054  0.00  0.00    +0.125 C 
ATOM     41  O   UNL A   1     -25.472   3.906  34.240  0.00  0.00    -0.203 OA
ATOM     42  N   UNL A   1     -26.477   5.755  33.072  0.00  0.00    -0.243 NA
ATOM     43  C   UNL A   1     -25.364   5.139  33.739  0.00  0.00    +0.229 C 
ENDBRANCH  39  42
ENDBRANCH  38  39
ENDBRANCH  37  38
ENDBRANCH  36  37
ENDBRANCH  23  36
ENDBRANCH   6  23
TORSDOF 14
