MODEL 3859
MODEL 1
REMARK VINA RESULT:    -5.331      0.000      0.000
REMARK INTER + INTRA:          -5.782
REMARK INTER:                  -5.643
REMARK INTRA:                  -0.139
REMARK UNBOUND:                -0.139
REMARK  Name = No_3859-gen_results/8p0m/2024-11-27-11-27-31/
REMARK  1 active torsions:
REMARK  status: ('A' for Active; 'I' for Inactive)
REMARK    1  A    between atoms: C_4  and  C_5
REMARK                            x       y       z     vdW  Elec       q    Type
REMARK                         _______ _______ _______ _____ _____    ______ ____
ROOT
ATOM      1  C   UNL A   1     -24.660  -5.245  28.914  0.00  0.00    -0.000 A 
ATOM      2  C   UNL A   1     -25.643  -5.155  29.283  0.00  0.00    -0.000 A 
ATOM      3  C   UNL A   1     -23.940  -3.990  28.645  0.00  0.00    -0.000 A 
ATOM      4  C   UNL A   1     -24.510  -2.735  29.008  0.00  0.00    -0.000 A 
ATOM      5  C   UNL A   1     -26.449  -4.038  29.815  0.00  0.00    -0.000 A 
ATOM      6  C   UNL A   1     -25.784  -2.777  29.645  0.00  0.00    -0.000 A 
ENDROOT
BRANCH   4   7
ATOM      7  C   UNL A   1     -23.839  -1.490  28.766  0.00  0.00    -0.005 C 
ATOM      8  C   UNL A   1     -22.719  -1.158  29.229  0.00  0.00    -0.026 C 
ATOM      9  C   UNL A   1     -21.959   0.014  28.786  0.00  0.00    +0.031 C 
ENDBRANCH   4   7
TORSDOF 1
ENDMDL
ENDMDL
