MODEL 3860
MODEL 1
REMARK VINA RESULT:    -6.783      0.000      0.000
REMARK INTER + INTRA:          -8.709
REMARK INTER:                  -7.972
REMARK INTRA:                  -0.737
REMARK UNBOUND:                -0.737
REMARK  Name = No_3860-gen_results/8p0m/2024-11-27-11-27-31/
REMARK  3 active torsions:
REMARK  status: ('A' for Active; 'I' for Inactive)
REMARK    1  A    between atoms: C_3  and  C_7
REMARK    2  A    between atoms: C_8  and  C_9
REMARK    3  A    between atoms: C_10  and  C_11
REMARK                            x       y       z     vdW  Elec       q    Type
REMARK                         _______ _______ _______ _____ _____    ______ ____
ROOT
ATOM      1  C   UNL A   1      -8.235   0.864  34.537  0.00  0.00    +0.001 C 
ATOM      2  C   UNL A   1      -9.212   0.943  35.473  0.00  0.00    +0.000 C 
ENDROOT
BRANCH   1   5
ATOM      3  C   UNL A   1      -4.861  -0.410  35.296  0.00  0.00    +0.011 A 
ATOM      4  C   UNL A   1      -5.788   0.357  35.175  0.00  0.00    +0.058 A 
ATOM      5  C   UNL A   1      -7.046  -0.020  34.705  0.00  0.00    +0.011 A 
ATOM      6  C   UNL A   1      -7.258  -1.389  34.277  0.00  0.00    +0.001 A 
ATOM      7  C   UNL A   1      -6.158  -2.234  34.415  0.00  0.00    +0.000 A 
ATOM      8  C   UNL A   1      -4.998  -1.790  34.859  0.00  0.00    +0.001 A 
ATOM      9 CL   UNL A   1      -5.639   2.045  35.636  0.00  0.00    -0.082 Cl
ENDBRANCH   1   5
BRANCH   2  10
ATOM     10  C   UNL A   1      -9.191   0.110  36.617  0.00  0.00    +0.000 C 
ATOM     11  C   UNL A   1      -9.961  -0.432  37.236  0.00  0.00    +0.000 C 
BRANCH  11  12
ATOM     12  C   UNL A   1     -10.585  -1.136  37.956  0.00  0.00    +0.000 A 
ATOM     13  C   UNL A   1     -10.580  -0.761  39.353  0.00  0.00    +0.000 A 
ATOM     14  C   UNL A   1     -11.398  -1.441  40.393  0.00  0.00    +0.000 A 
ATOM     15  C   UNL A   1     -12.178  -2.482  39.897  0.00  0.00    +0.000 A 
ATOM     16  C   UNL A   1     -12.216  -2.827  38.562  0.00  0.00    +0.000 A 
ATOM     17  C   UNL A   1     -11.515  -2.128  37.637  0.00  0.00    +0.000 A 
ENDBRANCH  11  12
ENDBRANCH   2  10
TORSDOF 3
ENDMDL
ENDMDL
