MODEL 3861
MODEL 1
REMARK VINA RESULT:    -7.703      0.000      0.000
REMARK INTER + INTRA:         -11.906
REMARK INTER:                 -10.855
REMARK INTRA:                  -1.052
REMARK UNBOUND:                -1.052
REMARK  Name = No_3861-gen_results/8p0m/2024-11-27-11-27-31/
REMARK  7 active torsions:
REMARK  status: ('A' for Active; 'I' for Inactive)
REMARK    1  A    between atoms: C_6  and  O_14
REMARK    2  A    between atoms: O_14  and  C_20
REMARK    3  A    between atoms: C_23  and  O_28
REMARK    4  A    between atoms: O_28  and  C_29
REMARK    5  A    between atoms: C_29  and  C_30
REMARK    6  A    between atoms: C_31  and  C_32
REMARK    7  A    between atoms: C_33  and  C_34
REMARK                            x       y       z     vdW  Elec       q    Type
REMARK                         _______ _______ _______ _____ _____    ______ ____
ROOT
ATOM      1  C   UNL A   1     -28.819 -10.466  10.132  0.00  0.00    +0.037 A 
ATOM      2  C   UNL A   1     -29.081 -11.630   9.940  0.00  0.00    +0.003 A 
ATOM      3  C   UNL A   1     -28.530 -12.384   8.904  0.00  0.00    +0.000 A 
ATOM      4  C   UNL A   1     -27.638 -11.740   7.960  0.00  0.00    +0.003 A 
ATOM      5  C   UNL A   1     -27.380 -10.392   8.207  0.00  0.00    +0.037 A 
ATOM      6  C   UNL A   1     -27.954  -9.752   9.207  0.00  0.00    +0.139 A 
ATOM      7  C   UNL A   1     -28.796 -13.827   8.601  0.00  0.00    +0.003 A 
ATOM      8  C   UNL A   1     -29.278 -14.637   9.501  0.00  0.00    +0.019 A 
ATOM      9  C   UNL A   1     -29.716 -14.306  10.780  0.00  0.00    +0.002 A 
ATOM     10  C   UNL A   1     -29.397 -16.099   9.098  0.00  0.00    +0.099 A 
ATOM     11  N   UNL A   1     -28.683 -16.537   8.066  0.00  0.00    -0.242 NA
ATOM     12  C   UNL A   1     -28.227 -14.385   7.390  0.00  0.00    +0.021 A 
ATOM     13  C   UNL A   1     -28.322 -15.827   7.121  0.00  0.00    +0.099 A 
ATOM     14  C   UNL A   1     -29.775 -15.267  11.725  0.00  0.00    +0.000 A 
ATOM     15  C   UNL A   1     -30.082 -14.701  12.941  0.00  0.00    +0.000 A 
ATOM     16  C   UNL A   1     -30.403 -13.366  13.188  0.00  0.00    +0.000 A 
ATOM     17  C   UNL A   1     -30.370 -12.506  12.154  0.00  0.00    +0.000 A 
ATOM     18  C   UNL A   1     -29.991 -12.970  10.956  0.00  0.00    +0.000 A 
ENDROOT
BRANCH   6  19
ATOM     19  O   UNL A   1     -27.707  -8.421   9.375  0.00  0.00    -0.476 OA
BRANCH  19  20
ATOM     20  C   UNL A   1     -28.646  -7.499   9.095  0.00  0.00    +0.203 C 
ATOM     21  C   UNL A   1     -29.528  -7.177   9.796  0.00  0.00    +0.050 C 
ATOM     22  C   UNL A   1     -30.280  -6.010   9.592  0.00  0.00    +0.041 C 
ATOM     23  C   UNL A   1     -30.079  -5.382   8.406  0.00  0.00    +0.175 C 
ATOM     24  C   UNL A   1     -28.336  -6.453   8.156  0.00  0.00    +0.251 C 
ATOM     25  O   UNL A   1     -27.207  -6.818   7.380  0.00  0.00    -0.211 OA
ATOM     26  C   UNL A   1     -29.028  -5.471   7.745  0.00  0.00    +0.211 C 
ATOM     27  O   UNL A   1     -28.648  -4.791   6.712  0.00  0.00    -0.291 OA
BRANCH  23  28
ATOM     28  O   UNL A   1     -30.889  -4.221   8.199  0.00  0.00    -0.344 OA
BRANCH  28  29
ATOM     29  C   UNL A   1     -31.367  -3.585   9.170  0.00  0.00    +0.169 C 
BRANCH  29  30
ATOM     30  C   UNL A   1     -30.890  -2.310   9.463  0.00  0.00    +0.006 C 
ATOM     31  C   UNL A   1     -30.046  -1.674   8.633  0.00  0.00    -0.002 C 
BRANCH  31  32
ATOM     32  C   UNL A   1     -29.426  -0.424   8.956  0.00  0.00    -0.000 C 
ATOM     33  C   UNL A   1     -28.360   0.102   8.196  0.00  0.00    -0.000 C 
BRANCH  33  34
ATOM     34  C   UNL A   1     -27.927  -0.697   7.096  0.00  0.00    -0.000 C 
ATOM     35  C   UNL A   1     -28.215  -0.372   5.789  0.00  0.00    -0.000 C 
ENDBRANCH  33  34
ENDBRANCH  31  32
ENDBRANCH  29  30
ENDBRANCH  28  29
ENDBRANCH  23  28
ENDBRANCH  19  20
ENDBRANCH   6  19
TORSDOF 7
ENDMDL
ENDMDL
