MODEL 3862
MODEL 1
REMARK VINA RESULT:    -6.812      0.000      0.000
REMARK INTER + INTRA:          -7.636
REMARK INTER:                  -7.210
REMARK INTRA:                  -0.427
REMARK UNBOUND:                -0.427
REMARK  Name = No_3862-gen_results/8p0m/2024-11-27-11-27-31/
REMARK  1 active torsions:
REMARK  status: ('A' for Active; 'I' for Inactive)
REMARK    1  A    between atoms: C_7  and  C_13
REMARK                            x       y       z     vdW  Elec       q    Type
REMARK                         _______ _______ _______ _____ _____    ______ ____
ROOT
ATOM      1  C   UNL A   1     -23.597   0.755  28.623  0.00  0.00    +0.062 A 
ATOM      2  C   UNL A   1     -23.031   1.418  28.031  0.00  0.00    +0.016 A 
ATOM      3  C   UNL A   1     -22.785  -0.268  29.295  0.00  0.00    -0.003 A 
ATOM      4  C   UNL A   1     -21.490  -0.444  29.027  0.00  0.00    -0.003 A 
ATOM      5  C   UNL A   1     -21.659   1.418  27.585  0.00  0.00    +0.001 A 
ATOM      6  C   UNL A   1     -20.927   0.446  28.200  0.00  0.00    -0.000 A 
ATOM      7  C   UNL A   1     -23.663  -1.032  30.250  0.00  0.00    +0.057 C 
ATOM      8  C   UNL A   1     -23.190  -0.972  31.650  0.00  0.00    +0.010 C 
ATOM      9  C   UNL A   1     -24.124  -0.800  32.644  0.00  0.00    +0.001 C 
ATOM     10  C   UNL A   1     -25.379  -0.396  32.438  0.00  0.00    +0.002 C 
ATOM     11  C   UNL A   1     -25.767  -0.483  31.048  0.00  0.00    +0.022 C 
ATOM     12  C   UNL A   1     -24.971  -0.261  30.304  0.00  0.00    +0.100 C 
ATOM     13  N   UNL A   1     -24.775   0.587  29.126  0.00  0.00    -0.239 NA
ENDROOT
BRANCH   7  14
ATOM     14  C   UNL A   1     -23.759  -2.415  29.860  0.00  0.00    -0.025 C 
ATOM     15  C   UNL A   1     -24.128  -2.916  28.917  0.00  0.00    -0.030 C 
ATOM     16  C   UNL A   1     -24.092  -4.297  28.554  0.00  0.00    +0.030 C 
ENDBRANCH   7  14
TORSDOF 1
ENDMDL
ENDMDL
