REMARK  Name = outputs/IAG933/test6/raw/output_3864_IAG933_linker_design_.xyz
REMARK  18 active torsions:
REMARK  status: ('A' for Active; 'I' for Inactive)
REMARK    1  A    between atoms: C_1  and  C_2
REMARK    2  A    between atoms: C_1  and  C_8
REMARK    3  A    between atoms: C_1  and  C_40
REMARK    4  A    between atoms: C_13  and  C_42
REMARK    5  A    between atoms: C_14  and  C_15
REMARK    6  A    between atoms: C_21  and  O_22
REMARK    7  A    between atoms: O_22  and  C_23
REMARK    8  A    between atoms: C_23  and  C_24
REMARK    9  A    between atoms: C_24  and  O_25
REMARK   10  A    between atoms: O_25  and  C_35
REMARK   11  A    between atoms: C_30  and  C_31
REMARK   12  A    between atoms: C_30  and  C_44
REMARK   13  A    between atoms: C_31  and  O_38
REMARK   14  A    between atoms: C_35  and  N_37
REMARK   15  A    between atoms: O_38  and  C_43
REMARK   16  A    between atoms: C_40  and  N_46
REMARK   17  A    between atoms: C_42  and  C_45
REMARK   18  A    between atoms: C_43  and  N_46
REMARK                            x       y       z     vdW  Elec       q    Type
REMARK                         _______ _______ _______ _____ _____    ______ ____
ROOT
ATOM      1  C   UNL A   1     -31.014   1.090  29.821  0.00  0.00    +0.011 C 
ATOM      2  C   UNL A   1     -30.375   1.968  30.917  0.00  0.00    +0.001 C 
ATOM      3  C   UNL A   1     -30.177   0.971  28.501  0.00  0.00    +0.098 C 
ATOM      4  C   UNL A   1     -28.850   2.108  30.750  0.00  0.00    +0.000 C 
ATOM      5  C   UNL A   1     -28.503   2.801  29.421  0.00  0.00    +0.001 C 
ATOM      6  C   UNL A   1     -29.477   2.404  28.252  0.00  0.00    +0.011 C 
ENDROOT
BRANCH   3   9
ATOM      7  O   UNL A   1     -32.112   0.983  27.006  0.00  0.00    -0.273 OA
ATOM      8  N   UNL A   1     -30.774  -0.869  26.911  0.00  0.00    -0.174 NA
ATOM      9  C   UNL A   1     -31.145   0.312  27.398  0.00  0.00    +0.245 C 
BRANCH   8  10
ATOM     10  C   UNL A   1     -31.553  -1.443  25.812  0.00  0.00    +0.261 C 
BRANCH  10  11
ATOM     11  O   UNL A   1     -30.729  -1.878  24.721  0.00  0.00    -0.329 OA
BRANCH  11  12
ATOM     12  C   UNL A   1     -30.065  -1.377  23.573  0.00  0.00    +0.191 C 
BRANCH  12  13
ATOM     13  C   UNL A   1     -29.460   0.005  23.866  0.00  0.00    +0.239 C 
BRANCH  13  14
ATOM     14  O   UNL A   1     -28.193  -0.208  24.477  0.00  0.00    -0.459 OA
BRANCH  14  19
ATOM     15  C   UNL A   1     -25.688   1.614  26.461  0.00  0.00    +0.073 C 
ATOM     16  C   UNL A   1     -26.250   2.920  26.395  0.00  0.00    +0.055 C 
ATOM     17  C   UNL A   1     -27.438   3.091  25.645  0.00  0.00    +0.102 C 
ATOM     18  N   UNL A   1     -28.075   2.089  25.003  0.00  0.00    -0.212 NA
ATOM     19  C   UNL A   1     -27.543   0.849  25.079  0.00  0.00    +0.234 C 
ATOM     20  C   UNL A   1     -26.354   0.576  25.777  0.00  0.00    +0.240 C 
ATOM     21  F   UNL A   1     -25.860  -0.681  25.795  0.00  0.00    -0.227 F 
BRANCH  16  22
ATOM     22  C   UNL A   1     -25.642   4.093  27.123  0.00  0.00    +0.262 C 
ATOM     23  N   UNL A   1     -25.614   5.252  26.449  0.00  0.00    -0.200 NA
ATOM     24  C   UNL A   1     -25.026   6.479  26.963  0.00  0.00    +0.139 C 
ATOM     25  O   UNL A   1     -25.143   3.966  28.243  0.00  0.00    -0.269 OA
ENDBRANCH  16  22
BRANCH  15  26
ATOM     26  C   UNL A   1     -24.113   1.351  26.670  0.00  0.00    +0.041 C 
BRANCH  26  29
ATOM     27  C   UNL A   1     -21.718   1.527  27.663  0.00  0.00    +0.035 C 
ATOM     28  O   UNL A   1     -23.055  -0.142  28.360  0.00  0.00    -0.223 OA
ATOM     29  C   UNL A   1     -23.172   1.171  27.953  0.00  0.00    +0.152 C 
ENDBRANCH  26  29
ENDBRANCH  15  26
ENDBRANCH  14  19
ENDBRANCH  13  14
ENDBRANCH  12  13
ENDBRANCH  11  12
ENDBRANCH  10  11
ENDBRANCH   8  10
ENDBRANCH   3   9
BRANCH   3  30
ATOM     30  C   UNL A   1     -29.025  -0.017  28.677  0.00  0.00    +0.152 C 
BRANCH  30  31
ATOM     31  O   UNL A   1     -27.842  -0.785  28.931  0.00  0.00    -0.336 OA
BRANCH  31  32
ATOM     32  C   UNL A   1     -26.733  -0.072  29.015  0.00  0.00    +0.234 C 
BRANCH  32  33
ATOM     33  N   UNL A   1     -25.973   0.676  28.746  0.00  0.00    -0.188 NA
BRANCH  33  34
ATOM     34  C   UNL A   1     -25.200  -0.169  29.207  0.00  0.00    +0.097 C 
BRANCH  34  35
ATOM     35  C   UNL A   1     -24.855  -1.012  30.143  0.00  0.00    +0.056 C 
BRANCH  35  36
ATOM     36  C   UNL A   1     -24.973  -2.505  29.788  0.00  0.00    -0.020 C 
ATOM     37  C   UNL A   1     -23.906  -3.173  29.146  0.00  0.00    -0.004 C 
ATOM     38  C   UNL A   1     -23.989  -4.549  28.853  0.00  0.00    -0.000 C 
ATOM     39  C   UNL A   1     -25.137  -5.280  29.205  0.00  0.00    -0.000 C 
ATOM     40  C   UNL A   1     -26.232  -4.611  29.784  0.00  0.00    -0.000 C 
ATOM     41  C   UNL A   1     -26.155  -3.232  30.065  0.00  0.00    -0.004 C 
ENDBRANCH  35  36
BRANCH  35  42
ATOM     42  C   UNL A   1     -25.387  -0.679  31.571  0.00  0.00    +0.078 C 
ATOM     43  C   UNL A   1     -25.189   0.773  32.028  0.00  0.00    +0.019 C 
ATOM     44  C   UNL A   1     -25.336   0.684  33.544  0.00  0.00    +0.020 C 
ATOM     45  C   UNL A   1     -24.829  -0.715  33.905  0.00  0.00    +0.089 C 
ATOM     46  N   UNL A   1     -24.758  -1.481  32.646  0.00  0.00    -0.219 NA
ENDBRANCH  35  42
ENDBRANCH  34  35
ENDBRANCH  33  34
ENDBRANCH  32  33
ENDBRANCH  31  32
ENDBRANCH  30  31
ENDBRANCH   3  30
TORSDOF 18
