MODEL 3865
MODEL 1
REMARK VINA RESULT:    -4.418      0.000      0.000
REMARK INTER + INTRA:          -4.418
REMARK INTER:                  -4.418
REMARK INTRA:                   0.000
REMARK UNBOUND:                 0.000
REMARK  Name = No_3865-gen_results/8p0m/2024-11-27-11-27-31/
REMARK  0 active torsions:
REMARK  status: ('A' for Active; 'I' for Inactive)
REMARK                            x       y       z     vdW  Elec       q    Type
REMARK                         _______ _______ _______ _____ _____    ______ ____
ROOT
ATOM      1  C   UNL A   1     -26.010  -2.991  29.610  0.00  0.00    +0.023 A 
ATOM      2  C   UNL A   1     -26.228  -4.018  29.698  0.00  0.00    +0.059 A 
ATOM      3  C   UNL A   1     -24.791  -2.626  28.997  0.00  0.00    +0.059 A 
ATOM      4  C   UNL A   1     -23.895  -3.570  28.534  0.00  0.00    +0.011 A 
ATOM      5  C   UNL A   1     -25.459  -5.210  29.291  0.00  0.00    +0.011 A 
ATOM      6  C   UNL A   1     -24.282  -4.906  28.700  0.00  0.00    +0.002 A 
ATOM      7 CL   UNL A   1     -24.340  -0.977  28.751  0.00  0.00    -0.082 Cl
ATOM      8 CL   UNL A   1     -27.816  -4.541  30.407  0.00  0.00    -0.082 Cl
ENDROOT
TORSDOF 0
ENDMDL
ENDMDL
