MODEL 3866
MODEL 1
REMARK VINA RESULT:    -6.985      0.000      0.000
REMARK INTER + INTRA:          -8.524
REMARK INTER:                  -8.210
REMARK INTRA:                  -0.314
REMARK UNBOUND:                -0.314
REMARK  Name = No_3866-gen_results/8p0m/2024-11-27-11-27-31/
REMARK  3 active torsions:
REMARK  status: ('A' for Active; 'I' for Inactive)
REMARK    1  A    between atoms: C_7  and  C_11
REMARK    2  A    between atoms: C_9  and  O_15
REMARK    3  A    between atoms: O_15  and  C_16
REMARK                            x       y       z     vdW  Elec       q    Type
REMARK                         _______ _______ _______ _____ _____    ______ ____
ROOT
ATOM      1  C   UNL A   1     -23.836   0.656  27.822  0.00  0.00    +0.004 A 
ATOM      2  C   UNL A   1     -24.743   0.284  27.435  0.00  0.00    +0.003 A 
ATOM      3  C   UNL A   1     -23.107  -0.319  28.643  0.00  0.00    +0.003 A 
ATOM      4  C   UNL A   1     -21.731  -0.046  29.099  0.00  0.00    +0.000 A 
ATOM      5  C   UNL A   1     -20.911   0.754  28.272  0.00  0.00    -0.000 A 
ATOM      6  C   UNL A   1     -21.518   1.443  27.169  0.00  0.00    +0.004 A 
ATOM      7  C   UNL A   1     -22.813   1.287  26.893  0.00  0.00    +0.071 A 
ATOM      8  C   UNL A   1     -25.669  -0.534  28.008  0.00  0.00    +0.037 A 
ATOM      9  C   UNL A   1     -25.100  -1.343  29.046  0.00  0.00    +0.145 A 
ATOM     10  C   UNL A   1     -23.804  -1.192  29.446  0.00  0.00    +0.037 A 
ENDROOT
BRANCH   7  11
ATOM     11  C   UNL A   1     -23.282   2.145  25.730  0.00  0.00    +0.419 C 
ATOM     12  F   UNL A   1     -23.922   2.972  26.047  0.00  0.00    -0.166 F 
ATOM     13  F   UNL A   1     -22.155   2.498  24.963  0.00  0.00    -0.166 F 
ATOM     14  F   UNL A   1     -23.995   1.316  24.782  0.00  0.00    -0.166 F 
ENDBRANCH   7  11
BRANCH   9  15
ATOM     15  O   UNL A   1     -25.952  -2.258  29.718  0.00  0.00    -0.451 OA
BRANCH  15  16
ATOM     16  C   UNL A   1     -25.648  -3.526  29.700  0.00  0.00    +0.175 C 
ATOM     17  C   UNL A   1     -25.134  -4.171  28.959  0.00  0.00    +0.015 C 
ATOM     18  C   UNL A   1     -24.819  -5.593  29.041  0.00  0.00    +0.034 C 
ENDBRANCH  15  16
ENDBRANCH   9  15
TORSDOF 3
ENDMDL
ENDMDL
