MODEL 3867
MODEL 1
REMARK VINA RESULT:    -7.168      0.000      0.000
REMARK INTER + INTRA:          -9.310
REMARK INTER:                  -8.425
REMARK INTRA:                  -0.885
REMARK UNBOUND:                -0.885
REMARK  Name = No_3867-gen_results/8p0m/2024-11-27-11-27-31/
REMARK  3 active torsions:
REMARK  status: ('A' for Active; 'I' for Inactive)
REMARK    1  A    between atoms: C_1  and  C_2
REMARK    2  A    between atoms: C_5  and  C_10
REMARK    3  A    between atoms: N_8  and  C_16
REMARK                            x       y       z     vdW  Elec       q    Type
REMARK                         _______ _______ _______ _____ _____    ______ ____
ROOT
ATOM      1  C   UNL A   1     -24.661  -0.161  29.436  0.00  0.00    +0.095 C 
ATOM      2  N   UNL A   1     -24.738  -1.234  30.104  0.00  0.00    -0.305 N 
ATOM      3  C   UNL A   1     -24.491  -1.249  31.480  0.00  0.00    +0.091 C 
ATOM      4  C   UNL A   1     -24.154  -0.040  32.066  0.00  0.00    +0.021 C 
ATOM      5  C   UNL A   1     -24.156   1.167  31.414  0.00  0.00    +0.004 C 
ATOM      6  C   UNL A   1     -24.591   1.155  30.150  0.00  0.00    +0.024 C 
ENDROOT
BRANCH   1   7
ATOM      7  C   UNL A   1     -25.270  -0.057  28.396  0.00  0.00    -0.004 A 
ATOM      8  C   UNL A   1     -26.599   0.208  28.319  0.00  0.00    -0.003 A 
ATOM      9  C   UNL A   1     -27.358   0.340  27.056  0.00  0.00    +0.001 A 
ATOM     10  C   UNL A   1     -26.618   0.198  25.836  0.00  0.00    +0.044 A 
ATOM     11  C   UNL A   1     -25.225  -0.005  25.958  0.00  0.00    +0.001 A 
ATOM     12  C   UNL A   1     -24.588  -0.118  27.167  0.00  0.00    -0.003 A 
BRANCH  10  13
ATOM     13  C   UNL A   1     -27.227   0.345  24.546  0.00  0.00    +0.341 C 
ATOM     14  F   UNL A   1     -27.163   1.386  24.175  0.00  0.00    -0.193 F 
ATOM     15  F   UNL A   1     -27.806  -0.670  24.031  0.00  0.00    -0.193 F 
ENDBRANCH  10  13
ENDBRANCH   1   7
BRANCH   2  16
ATOM     16  C   UNL A   1     -24.918  -2.471  29.479  0.00  0.00    +0.048 A 
ATOM     17  C   UNL A   1     -26.107  -3.113  29.730  0.00  0.00    +0.015 A 
ATOM     18  C   UNL A   1     -26.225  -4.447  29.739  0.00  0.00    +0.001 A 
ATOM     19  C   UNL A   1     -25.207  -5.204  29.050  0.00  0.00    +0.000 A 
ATOM     20  C   UNL A   1     -24.065  -4.571  28.562  0.00  0.00    +0.001 A 
ATOM     21  C   UNL A   1     -23.871  -3.239  28.895  0.00  0.00    +0.015 A 
ENDBRANCH   2  16
TORSDOF 3
ENDMDL
ENDMDL
