MODEL 3868
MODEL 1
REMARK VINA RESULT:    -5.981      0.000      0.000
REMARK INTER + INTRA:          -9.209
REMARK INTER:                  -7.379
REMARK INTRA:                  -1.830
REMARK UNBOUND:                -1.830
REMARK  Name = No_3868-gen_results/8p0m/2024-11-27-11-27-31/
REMARK  4 active torsions:
REMARK  status: ('A' for Active; 'I' for Inactive)
REMARK    1  A    between atoms: C_4  and  C_7
REMARK    2  A    between atoms: C_7  and  C_8
REMARK    3  A    between atoms: C_8  and  C_9
REMARK    4  A    between atoms: C_10  and  C_11
REMARK                            x       y       z     vdW  Elec       q    Type
REMARK                         _______ _______ _______ _____ _____    ______ ____
ROOT
ATOM      1  C   UNL A   1     -22.394   1.914  26.725  0.00  0.00    +0.026 C 
ENDROOT
BRANCH   1   2
ATOM      2  C   UNL A   1     -22.757   1.564  27.918  0.00  0.00    -0.026 C 
ATOM      3  C   UNL A   1     -22.361   0.422  28.639  0.00  0.00    -0.005 C 
BRANCH   3   4
ATOM      4  C   UNL A   1     -23.349  -0.473  28.687  0.00  0.00    -0.000 A 
ATOM      5  C   UNL A   1     -23.113  -1.833  29.015  0.00  0.00    -0.000 A 
ATOM      6  C   UNL A   1     -24.728  -0.101  28.716  0.00  0.00    -0.000 A 
ATOM      7  C   UNL A   1     -24.116  -2.791  29.067  0.00  0.00    -0.000 A 
ATOM      8  C   UNL A   1     -25.732  -0.996  28.742  0.00  0.00    -0.000 A 
ATOM      9  C   UNL A   1     -25.439  -2.362  28.968  0.00  0.00    -0.000 A 
ENDBRANCH   3   4
ENDBRANCH   1   2
BRANCH   1  10
ATOM     10  C   UNL A   1     -23.275   2.370  25.720  0.00  0.00    +0.012 C 
BRANCH  10  14
ATOM     11  C   UNL A   1     -27.008   1.429  25.797  0.00  0.00    +0.065 C 
ATOM     12  C   UNL A   1     -26.918   0.440  25.443  0.00  0.00    +0.008 C 
ATOM     13  C   UNL A   1     -25.756   2.180  25.981  0.00  0.00    +0.150 C 
ATOM     14  C   UNL A   1     -24.512   1.627  25.559  0.00  0.00    +0.058 C 
ATOM     15  C   UNL A   1     -24.559   0.350  25.059  0.00  0.00    +0.007 C 
ATOM     16  C   UNL A   1     -25.734  -0.303  24.937  0.00  0.00    +0.001 C 
ATOM     17  O   UNL A   1     -25.719   3.459  26.464  0.00  0.00    -0.296 OA
ENDBRANCH  10  14
ENDBRANCH   1  10
TORSDOF 4
ENDMDL
ENDMDL
