REMARK  Name = outputs/IAG933/test6/raw/output_3868_IAG933_linker_design_.xyz
REMARK  4 active torsions:
REMARK  status: ('A' for Active; 'I' for Inactive)
REMARK    1  A    between atoms: C_1  and  C_2
REMARK    2  A    between atoms: C_1  and  C_8
REMARK    3  A    between atoms: C_1  and  C_34
REMARK    4  A    between atoms: C_14  and  C_15
REMARK                            x       y       z     vdW  Elec       q    Type
REMARK                         _______ _______ _______ _____ _____    ______ ____
ROOT
ATOM      1  C   UNL A   1     -25.688   1.614  26.461  0.00  0.00    +0.016 C 
ATOM      2  C   UNL A   1     -26.250   2.920  26.395  0.00  0.00    +0.073 C 
ATOM      3  C   UNL A   1     -27.438   3.091  25.645  0.00  0.00    +0.106 C 
ATOM      4  N   UNL A   1     -28.075   2.089  25.003  0.00  0.00    -0.208 NA
ATOM      5  C   UNL A   1     -27.543   0.849  25.079  0.00  0.00    +0.253 C 
ATOM      6  O   UNL A   1     -28.193  -0.208  24.477  0.00  0.00    -0.456 OA
ATOM      7  C   UNL A   1     -29.460   0.005  23.866  0.00  0.00    +0.239 C 
ATOM      8  C   UNL A   1     -30.065  -1.377  23.573  0.00  0.00    +0.189 C 
ATOM      9  O   UNL A   1     -30.729  -1.878  24.721  0.00  0.00    -0.350 OA
ATOM     10  C   UNL A   1     -26.354   0.576  25.777  0.00  0.00    +0.189 C 
ATOM     11  F   UNL A   1     -25.860  -0.681  25.795  0.00  0.00    -0.200 F 
ATOM     12  C   UNL A   1     -24.530   1.268  27.194  0.00  0.00    +0.027 C 
ATOM     13  C   UNL A   1     -22.875   0.537  28.869  0.00  0.00    +0.003 C 
ATOM     14  C   UNL A   1     -33.069   1.043  27.397  0.00  0.00    +0.033 C 
ATOM     15  C   UNL A   1     -23.156   1.482  26.607  0.00  0.00    +0.004 C 
ATOM     16  C   UNL A   1     -20.864   1.478  27.652  0.00  0.00    +0.000 C 
ATOM     17  O   UNL A   1     -26.657   1.056  28.971  0.00  0.00    -0.356 OA
ATOM     18  C   UNL A   1     -25.561   0.036  29.155  0.00  0.00    +0.121 C 
ATOM     19  C   UNL A   1     -32.415   0.211  26.285  0.00  0.00    +0.154 C 
ATOM     20  C   UNL A   1     -27.590   1.385  30.028  0.00  0.00    +0.142 C 
ATOM     21  C   UNL A   1     -31.446  -1.079  28.117  0.00  0.00    +0.005 C 
ATOM     22  O   UNL A   1     -32.508   0.331  24.902  0.00  0.00    -0.223 OA
ATOM     23  C   UNL A   1     -31.841  -2.159  25.598  0.00  0.00    +0.145 C 
ATOM     24  C   UNL A   1     -32.127  -1.188  26.758  0.00  0.00    +0.060 C 
ATOM     25  C   UNL A   1     -24.348   0.424  28.268  0.00  0.00    +0.032 C 
ATOM     26  C   UNL A   1     -29.101   1.542  29.804  0.00  0.00    +0.032 C 
ATOM     27  C   UNL A   1     -22.342   1.562  27.906  0.00  0.00    +0.000 C 
ATOM     28  C   UNL A   1     -29.535   0.384  28.859  0.00  0.00    +0.003 C 
ATOM     29  C   UNL A   1     -30.837   0.325  28.174  0.00  0.00    +0.000 C 
ATOM     30  C   UNL A   1     -31.967   1.323  28.426  0.00  0.00    +0.003 C 
ENDROOT
BRANCH   2  31
ATOM     31  C   UNL A   1     -25.642   4.093  27.123  0.00  0.00    +0.266 C 
ATOM     32  N   UNL A   1     -25.614   5.252  26.449  0.00  0.00    -0.200 NA
ATOM     33  C   UNL A   1     -25.026   6.479  26.963  0.00  0.00    +0.139 C 
ATOM     34  O   UNL A   1     -25.143   3.966  28.243  0.00  0.00    -0.268 OA
ENDBRANCH   2  31
BRANCH  18  35
ATOM     35  C   UNL A   1     -24.855  -1.012  30.143  0.00  0.00    +0.066 C 
BRANCH  35  36
ATOM     36  C   UNL A   1     -24.973  -2.505  29.788  0.00  0.00    -0.019 C 
ATOM     37  C   UNL A   1     -23.906  -3.173  29.146  0.00  0.00    -0.004 C 
ATOM     38  C   UNL A   1     -23.989  -4.549  28.853  0.00  0.00    -0.000 C 
ATOM     39  C   UNL A   1     -25.137  -5.280  29.205  0.00  0.00    -0.000 C 
ATOM     40  C   UNL A   1     -26.232  -4.611  29.784  0.00  0.00    -0.000 C 
ATOM     41  C   UNL A   1     -26.155  -3.232  30.065  0.00  0.00    -0.004 C 
ENDBRANCH  35  36
BRANCH  35  42
ATOM     42  C   UNL A   1     -25.387  -0.679  31.571  0.00  0.00    +0.079 C 
ATOM     43  C   UNL A   1     -25.189   0.773  32.028  0.00  0.00    +0.019 C 
ATOM     44  C   UNL A   1     -25.336   0.684  33.544  0.00  0.00    +0.020 C 
ATOM     45  C   UNL A   1     -24.829  -0.715  33.905  0.00  0.00    +0.089 C 
ATOM     46  N   UNL A   1     -24.758  -1.481  32.646  0.00  0.00    -0.219 NA
ENDBRANCH  35  42
ENDBRANCH  18  35
TORSDOF 4
