REMARK  Name = No_3869-gen_results/8p0m/2024-11-27-11-27-31/
REMARK  3 active torsions:
REMARK  status: ('A' for Active; 'I' for Inactive)
REMARK    1  A    between atoms: C_2  and  C_7
REMARK    2  A    between atoms: C_7  and  C_8
REMARK    3  A    between atoms: C_7  and  C_14
REMARK                            x       y       z     vdW  Elec       q    Type
REMARK                         _______ _______ _______ _____ _____    ______ ____
ROOT
ATOM      1  C   UNL A   1     -26.897   1.102  27.705  0.00  0.00    +0.066 C 
ENDROOT
BRANCH   1   3
ATOM      2  C   UNL A   1     -28.016  -0.814  28.878  0.00  0.00    -0.004 A 
ATOM      3  C   UNL A   1     -27.064  -0.119  28.608  0.00  0.00    -0.014 A 
ATOM      4  C   UNL A   1     -25.792  -0.430  29.076  0.00  0.00    -0.004 A 
ATOM      5  C   UNL A   1     -25.576  -1.565  29.936  0.00  0.00    -0.000 A 
ATOM      6  C   UNL A   1     -26.735  -2.300  30.217  0.00  0.00    -0.000 A 
ATOM      7  C   UNL A   1     -27.918  -1.954  29.763  0.00  0.00    -0.000 A 
ENDBRANCH   1   3
BRANCH   1   8
ATOM      8  C   UNL A   1     -27.706   1.429  26.966  0.00  0.00    -0.014 A 
ATOM      9  C   UNL A   1     -28.929   0.787  26.888  0.00  0.00    -0.004 A 
ATOM     10  C   UNL A   1     -29.741   1.142  25.757  0.00  0.00    -0.000 A 
ATOM     11  C   UNL A   1     -29.311   2.101  24.846  0.00  0.00    -0.000 A 
ATOM     12  C   UNL A   1     -28.118   2.764  24.938  0.00  0.00    -0.000 A 
ATOM     13  C   UNL A   1     -27.292   2.440  25.937  0.00  0.00    -0.004 A 
ENDBRANCH   1   8
BRANCH   1  14
ATOM     14  C   UNL A   1     -25.511   1.723  27.865  0.00  0.00    -0.018 C 
ATOM     15  C   UNL A   1     -24.492   1.107  28.404  0.00  0.00    -0.004 C 
ENDBRANCH   1  14
TORSDOF 3
