MODEL 3869
MODEL 1
REMARK VINA RESULT:    -6.851      0.000      0.000
REMARK INTER + INTRA:          -8.989
REMARK INTER:                  -8.052
REMARK INTRA:                  -0.937
REMARK UNBOUND:                -0.937
REMARK  Name = No_3869-gen_results/8p0m/2024-11-27-11-27-31/
REMARK  3 active torsions:
REMARK  status: ('A' for Active; 'I' for Inactive)
REMARK    1  A    between atoms: C_2  and  C_7
REMARK    2  A    between atoms: C_7  and  C_8
REMARK    3  A    between atoms: C_7  and  C_14
REMARK                            x       y       z     vdW  Elec       q    Type
REMARK                         _______ _______ _______ _____ _____    ______ ____
ROOT
ATOM      1  C   UNL A   1     -23.763  -1.189  29.789  0.00  0.00    +0.066 C 
ENDROOT
BRANCH   1   3
ATOM      2  C   UNL A   1     -23.726  -3.546  28.926  0.00  0.00    -0.004 A 
ATOM      3  C   UNL A   1     -24.258  -2.594  29.448  0.00  0.00    -0.014 A 
ATOM      4  C   UNL A   1     -25.546  -2.685  29.964  0.00  0.00    -0.004 A 
ATOM      5  C   UNL A   1     -26.305  -3.904  29.852  0.00  0.00    -0.000 A 
ATOM      6  C   UNL A   1     -25.622  -4.948  29.213  0.00  0.00    -0.000 A 
ATOM      7  C   UNL A   1     -24.410  -4.805  28.728  0.00  0.00    -0.000 A 
ENDBRANCH   1   3
BRANCH   1   8
ATOM      8  C   UNL A   1     -23.239  -0.525  29.020  0.00  0.00    -0.014 A 
ATOM      9  C   UNL A   1     -21.867  -0.346  29.021  0.00  0.00    -0.004 A 
ATOM     10  C   UNL A   1     -21.380   0.700  28.164  0.00  0.00    -0.000 A 
ATOM     11  C   UNL A   1     -22.256   1.434  27.371  0.00  0.00    -0.000 A 
ATOM     12  C   UNL A   1     -23.609   1.238  27.340  0.00  0.00    -0.000 A 
ATOM     13  C   UNL A   1     -24.131   0.316  28.155  0.00  0.00    -0.004 A 
ENDBRANCH   1   8
BRANCH   1  14
ATOM     14  C   UNL A   1     -23.977  -0.871  31.267  0.00  0.00    -0.018 C 
ATOM     15  C   UNL A   1     -23.139  -1.201  32.214  0.00  0.00    -0.004 C 
ENDBRANCH   1  14
TORSDOF 3
ENDMDL
ENDMDL
