MODEL 386
MODEL 1
REMARK VINA RESULT:    -7.992      0.000      0.000
REMARK INTER + INTRA:         -10.240
REMARK INTER:                  -9.394
REMARK INTRA:                  -0.846
REMARK UNBOUND:                -0.846
REMARK  Name = No_386-gen_results/8p0m/2024-11-27-11-27-31/
REMARK  3 active torsions:
REMARK  status: ('A' for Active; 'I' for Inactive)
REMARK    1  A    between atoms: C_3  and  C_4
REMARK    2  A    between atoms: C_6  and  C_13
REMARK    3  A    between atoms: C_14  and  C_15
REMARK                            x       y       z     vdW  Elec       q    Type
REMARK                         _______ _______ _______ _____ _____    ______ ____
ROOT
ATOM      1  C   UNL A   1     -25.082  -0.255  30.141  0.00  0.00    +0.000 A 
ATOM      2  C   UNL A   1     -24.348   0.396  30.525  0.00  0.00    +0.000 A 
ATOM      3  C   UNL A   1     -24.584  -1.135  29.076  0.00  0.00    +0.000 A 
ATOM      4  C   UNL A   1     -23.709   1.415  29.773  0.00  0.00    +0.000 A 
ATOM      5  C   UNL A   1     -23.226   0.926  28.520  0.00  0.00    +0.000 A 
ATOM      6  C   UNL A   1     -23.714  -0.527  28.152  0.00  0.00    +0.000 A 
ENDROOT
BRANCH   3   7
ATOM      7  C   UNL A   1     -24.908  -2.479  29.204  0.00  0.00    +0.000 A 
ATOM      8  C   UNL A   1     -26.061  -2.991  29.754  0.00  0.00    +0.000 A 
ATOM      9  C   UNL A   1     -26.377  -4.365  29.768  0.00  0.00    +0.000 A 
ATOM     10  C   UNL A   1     -25.403  -5.259  29.273  0.00  0.00    +0.000 A 
ATOM     11  C   UNL A   1     -24.221  -4.853  28.767  0.00  0.00    +0.000 A 
ATOM     12  C   UNL A   1     -23.962  -3.481  28.713  0.00  0.00    +0.000 A 
ENDBRANCH   3   7
BRANCH   5  13
ATOM     13  C   UNL A   1     -22.352   1.552  27.631  0.00  0.00    +0.000 C 
ATOM     14  C   UNL A   1     -22.888   2.020  26.509  0.00  0.00    +0.000 C 
BRANCH  14  15
ATOM     15  C   UNL A   1     -24.190   1.748  26.143  0.00  0.00    +0.000 A 
ATOM     16  C   UNL A   1     -24.478   0.665  25.185  0.00  0.00    +0.000 A 
ATOM     17  C   UNL A   1     -25.828   0.383  24.786  0.00  0.00    +0.000 A 
ATOM     18  C   UNL A   1     -26.877   1.216  25.264  0.00  0.00    +0.000 A 
ATOM     19  C   UNL A   1     -26.562   2.282  26.137  0.00  0.00    +0.000 A 
ATOM     20  C   UNL A   1     -25.296   2.481  26.471  0.00  0.00    +0.000 A 
ENDBRANCH  14  15
ENDBRANCH   5  13
TORSDOF 3
ENDMDL
ENDMDL
