MODEL 3870
MODEL 1
REMARK VINA RESULT:    -4.945      0.000      0.000
REMARK INTER + INTRA:          -5.615
REMARK INTER:                  -5.523
REMARK INTRA:                  -0.092
REMARK UNBOUND:                -0.092
REMARK  Name = No_3870-gen_results/8p0m/2024-11-27-11-27-31/
REMARK  2 active torsions:
REMARK  status: ('A' for Active; 'I' for Inactive)
REMARK    1  A    between atoms: C_2  and  C_3
REMARK    2  A    between atoms: C_2  and  O_5
REMARK                            x       y       z     vdW  Elec       q    Type
REMARK                         _______ _______ _______ _____ _____    ______ ____
ROOT
ATOM      1  C   UNL A   1     -24.483  -2.623  28.874  0.00  0.00    +0.076 A 
ATOM      2  C   UNL A   1     -25.802  -2.465  29.260  0.00  0.00    +0.006 A 
ATOM      3  C   UNL A   1     -26.429  -3.433  30.044  0.00  0.00    +0.000 A 
ATOM      4  C   UNL A   1     -26.160  -4.821  29.638  0.00  0.00    +0.000 A 
ATOM      5  C   UNL A   1     -24.885  -5.136  29.083  0.00  0.00    +0.000 A 
ATOM      6  C   UNL A   1     -24.081  -4.033  28.726  0.00  0.00    +0.006 A 
ENDROOT
BRANCH   1   8
ATOM      7  O   UNL A   1     -22.416  -1.796  28.871  0.00  0.00    -0.245 OA
ATOM      8  C   UNL A   1     -23.619  -1.925  29.125  0.00  0.00    +0.341 C 
BRANCH   8   9
ATOM      9  O   UNL A   1     -24.082  -0.894  30.150  0.00  0.00    -0.441 OA
ATOM     10  C   UNL A   1     -22.769  -0.364  30.745  0.00  0.00    +0.256 C 
ENDBRANCH   8   9
ENDBRANCH   1   8
TORSDOF 2
ENDMDL
ENDMDL
