MODEL 3871
MODEL 1
REMARK VINA RESULT:    -4.486      0.000      0.000
REMARK INTER + INTRA:          -4.486
REMARK INTER:                  -4.486
REMARK INTRA:                   0.000
REMARK UNBOUND:                 0.000
REMARK  Name = No_3871-gen_results/8p0m/2024-11-27-11-27-31/
REMARK  0 active torsions:
REMARK  status: ('A' for Active; 'I' for Inactive)
REMARK                            x       y       z     vdW  Elec       q    Type
REMARK                         _______ _______ _______ _____ _____    ______ ____
ROOT
ATOM      1  C   UNL A   1      -9.201  -9.212  20.009  0.00  0.00    +0.011 A 
ATOM      2  C   UNL A   1      -8.214  -9.903  19.914  0.00  0.00    +0.058 A 
ATOM      3  C   UNL A   1      -8.029 -10.747  18.824  0.00  0.00    +0.011 A 
ATOM      4  C   UNL A   1      -9.031 -10.858  17.795  0.00  0.00    +0.001 A 
ATOM      5  C   UNL A   1     -10.152 -10.041  17.996  0.00  0.00    +0.000 A 
ATOM      6  C   UNL A   1     -10.285  -9.273  19.053  0.00  0.00    +0.001 A 
ATOM      7 CL   UNL A   1      -6.947  -9.935  21.066  0.00  0.00    -0.082 Cl
ENDROOT
TORSDOF 0
ENDMDL
ENDMDL
