MODEL 3873
MODEL 1
REMARK VINA RESULT:    -5.083      0.000      0.000
REMARK INTER + INTRA:          -5.480
REMARK INTER:                  -5.381
REMARK INTRA:                  -0.100
REMARK UNBOUND:                -0.100
REMARK  Name = No_3873-gen_results/8p0m/2024-11-27-11-27-31/
REMARK  1 active torsions:
REMARK  status: ('A' for Active; 'I' for Inactive)
REMARK    1  A    between atoms: C_5  and  C_8
REMARK                            x       y       z     vdW  Elec       q    Type
REMARK                         _______ _______ _______ _____ _____    ______ ____
ROOT
ATOM      1  F   UNL A   1     -27.597  -3.677  30.547  0.00  0.00    -0.204 F 
ATOM      2  C   UNL A   1     -26.578  -3.798  30.039  0.00  0.00    +0.140 A 
ATOM      3  C   UNL A   1     -26.140  -4.864  29.538  0.00  0.00    +0.030 A 
ATOM      4  C   UNL A   1     -25.730  -2.519  30.005  0.00  0.00    +0.034 A 
ATOM      5  C   UNL A   1     -24.404  -2.600  29.427  0.00  0.00    +0.074 A 
ATOM      6  C   UNL A   1     -24.750  -4.939  28.960  0.00  0.00    +0.002 A 
ATOM      7  C   UNL A   1     -23.946  -3.800  28.931  0.00  0.00    +0.004 A 
ENDROOT
BRANCH   5   8
ATOM      8  C   UNL A   1     -23.545  -1.435  29.348  0.00  0.00    +0.419 C 
ATOM      9  F   UNL A   1     -23.936  -0.459  28.776  0.00  0.00    -0.166 F 
ATOM     10  F   UNL A   1     -23.143  -1.028  30.659  0.00  0.00    -0.166 F 
ATOM     11  F   UNL A   1     -22.302  -1.756  28.866  0.00  0.00    -0.166 F 
ENDBRANCH   5   8
TORSDOF 1
ENDMDL
ENDMDL
