REMARK  Name = outputs/IAG933/test6/raw/output_3873_IAG933_linker_design_.xyz
REMARK  12 active torsions:
REMARK  status: ('A' for Active; 'I' for Inactive)
REMARK    1  A    between atoms: C_1  and  C_2
REMARK    2  A    between atoms: C_1  and  C_8
REMARK    3  A    between atoms: C_1  and  C_40
REMARK    4  A    between atoms: C_13  and  C_34
REMARK    5  A    between atoms: C_14  and  C_15
REMARK    6  A    between atoms: C_21  and  O_22
REMARK    7  A    between atoms: O_22  and  C_23
REMARK    8  A    between atoms: C_23  and  C_24
REMARK    9  A    between atoms: S_32  and  C_41
REMARK   10  A    between atoms: N_33  and  C_40
REMARK   11  A    between atoms: C_35  and  C_42
REMARK   12  A    between atoms: C_40  and  C_41
REMARK                            x       y       z     vdW  Elec       q    Type
REMARK                         _______ _______ _______ _____ _____    ______ ____
ROOT
ATOM      1  C   UNL A   1     -25.094  -0.083  28.936  0.00  0.00    +0.111 C 
ENDROOT
BRANCH   1   3
ATOM      2  O   UNL A   1     -27.912  -1.012  29.447  0.00  0.00    -0.273 OA
ATOM      3  N   UNL A   1     -26.379   0.681  28.995  0.00  0.00    -0.206 NA
ATOM      4  C   UNL A   1     -27.675   0.158  29.199  0.00  0.00    +0.241 C 
BRANCH   4  10
ATOM      5  C   UNL A   1     -30.029   3.122  28.948  0.00  0.00    +0.003 C 
ATOM      6  C   UNL A   1     -28.633   3.129  31.005  0.00  0.00    +0.001 C 
ATOM      7  C   UNL A   1     -30.315   2.921  27.651  0.00  0.00    +0.033 C 
ATOM      8  O   UNL A   1     -32.099   1.664  26.240  0.00  0.00    -0.223 OA
ATOM      9  C   UNL A   1     -29.948   3.960  31.169  0.00  0.00    +0.000 C 
ATOM     10  C   UNL A   1     -28.956   1.091  29.110  0.00  0.00    +0.081 C 
ATOM     11  C   UNL A   1     -28.749   2.526  29.616  0.00  0.00    +0.009 C 
ATOM     12  C   UNL A   1     -30.920   1.479  27.354  0.00  0.00    +0.152 C 
ATOM     13  C   UNL A   1     -30.269   0.450  28.349  0.00  0.00    +0.042 C 
ATOM     14  C   UNL A   1     -30.921   3.476  29.959  0.00  0.00    +0.000 C 
ENDBRANCH   4  10
ENDBRANCH   1   3
BRANCH   1  15
ATOM     15  C   UNL A   1     -24.855  -1.012  30.143  0.00  0.00    +0.059 C 
BRANCH  15  16
ATOM     16  C   UNL A   1     -24.973  -2.505  29.788  0.00  0.00    -0.019 C 
ATOM     17  C   UNL A   1     -23.906  -3.173  29.146  0.00  0.00    -0.004 C 
ATOM     18  C   UNL A   1     -23.989  -4.549  28.853  0.00  0.00    -0.000 C 
ATOM     19  C   UNL A   1     -25.137  -5.280  29.205  0.00  0.00    -0.000 C 
ATOM     20  C   UNL A   1     -26.232  -4.611  29.784  0.00  0.00    -0.000 C 
ATOM     21  C   UNL A   1     -26.155  -3.232  30.065  0.00  0.00    -0.004 C 
ENDBRANCH  15  16
BRANCH  15  22
ATOM     22  C   UNL A   1     -25.387  -0.679  31.571  0.00  0.00    +0.079 C 
ATOM     23  C   UNL A   1     -25.189   0.773  32.028  0.00  0.00    +0.019 C 
ATOM     24  C   UNL A   1     -25.336   0.684  33.544  0.00  0.00    +0.020 C 
ATOM     25  C   UNL A   1     -24.829  -0.715  33.905  0.00  0.00    +0.089 C 
ATOM     26  N   UNL A   1     -24.758  -1.481  32.646  0.00  0.00    -0.219 NA
ENDBRANCH  15  22
ENDBRANCH   1  15
BRANCH   1  27
ATOM     27  C   UNL A   1     -23.702   0.638  28.845  0.00  0.00    +0.070 C 
BRANCH  27  28
ATOM     28  S   UNL A   1     -23.340   1.953  28.052  0.00  0.00    -0.178 S 
ATOM     29  C   UNL A   1     -24.234   1.544  26.602  0.00  0.00    +0.046 C 
ATOM     30  C   UNL A   1     -21.942   2.115  25.814  0.00  0.00    +0.012 C 
ATOM     31  C   UNL A   1     -23.318   1.557  25.401  0.00  0.00    +0.011 C 
ATOM     32  C   UNL A   1     -21.756   1.821  27.378  0.00  0.00    +0.048 C 
BRANCH  29  33
ATOM     33  C   UNL A   1     -25.688   1.614  26.461  0.00  0.00    +0.079 C 
ATOM     34  C   UNL A   1     -26.250   2.920  26.395  0.00  0.00    +0.056 C 
ATOM     35  C   UNL A   1     -27.438   3.091  25.645  0.00  0.00    +0.102 C 
ATOM     36  N   UNL A   1     -28.075   2.089  25.003  0.00  0.00    -0.212 NA
ATOM     37  C   UNL A   1     -27.543   0.849  25.079  0.00  0.00    +0.234 C 
ATOM     38  C   UNL A   1     -26.354   0.576  25.777  0.00  0.00    +0.241 C 
ATOM     39  F   UNL A   1     -25.860  -0.681  25.795  0.00  0.00    -0.227 F 
BRANCH  34  40
ATOM     40  C   UNL A   1     -25.642   4.093  27.123  0.00  0.00    +0.263 C 
ATOM     41  N   UNL A   1     -25.614   5.252  26.449  0.00  0.00    -0.200 NA
ATOM     42  C   UNL A   1     -25.026   6.479  26.963  0.00  0.00    +0.139 C 
ATOM     43  O   UNL A   1     -25.143   3.966  28.243  0.00  0.00    -0.269 OA
ENDBRANCH  34  40
BRANCH  37  44
ATOM     44  O   UNL A   1     -28.193  -0.208  24.477  0.00  0.00    -0.459 OA
BRANCH  44  45
ATOM     45  C   UNL A   1     -29.460   0.005  23.866  0.00  0.00    +0.242 C 
BRANCH  45  46
ATOM     46  C   UNL A   1     -30.065  -1.377  23.573  0.00  0.00    +0.229 C 
ATOM     47  O   UNL A   1     -30.729  -1.878  24.721  0.00  0.00    -0.216 OA
ENDBRANCH  45  46
ENDBRANCH  44  45
ENDBRANCH  37  44
ENDBRANCH  29  33
ENDBRANCH  27  28
ENDBRANCH   1  27
TORSDOF 12
