REMARK  Name = No_3874-gen_results/8p0m/2024-11-27-11-27-31/
REMARK  10 active torsions:
REMARK  status: ('A' for Active; 'I' for Inactive)
REMARK    1  A    between atoms: C_2  and  C_7
REMARK    2  A    between atoms: C_6  and  C_21
REMARK    3  A    between atoms: C_11  and  C_12
REMARK    4  A    between atoms: C_21  and  O_23
REMARK    5  A    between atoms: O_23  and  C_24
REMARK    6  A    between atoms: C_24  and  C_25
REMARK    7  A    between atoms: C_25  and  C_26
REMARK    8  A    between atoms: C_26  and  C_27
REMARK    9  A    between atoms: C_26  and  C_33
REMARK   10  A    between atoms: C_33  and  C_34
REMARK                            x       y       z     vdW  Elec       q    Type
REMARK                         _______ _______ _______ _____ _____    ______ ____
ROOT
ATOM      1  C   UNL A   1     -28.016  -0.814  28.878  0.00  0.00    +0.011 A 
ATOM      2  C   UNL A   1     -27.064  -0.119  28.608  0.00  0.00    +0.054 A 
ATOM      3  C   UNL A   1     -25.792  -0.430  29.076  0.00  0.00    +0.004 A 
ATOM      4  C   UNL A   1     -25.576  -1.565  29.936  0.00  0.00    +0.000 A 
ATOM      5  C   UNL A   1     -26.735  -2.300  30.217  0.00  0.00    +0.006 A 
ATOM      6  C   UNL A   1     -27.918  -1.954  29.763  0.00  0.00    +0.076 A 
ENDROOT
BRANCH   2   7
ATOM      7  C   UNL A   1     -27.106   1.102  27.759  0.00  0.00    +0.249 C 
ATOM      8  N   UNL A   1     -26.235   1.456  27.015  0.00  0.00    -0.276 N 
ATOM      9  O   UNL A   1     -28.003   1.962  28.008  0.00  0.00    -0.270 OA
ATOM     10  C   UNL A   1     -24.965   0.774  26.793  0.00  0.00    +0.098 C 
ATOM     11  C   UNL A   1     -23.795   1.673  27.190  0.00  0.00    +0.042 C 
ATOM     12  C   UNL A   1     -23.872   3.083  26.935  0.00  0.00    +0.008 C 
ATOM     13  C   UNL A   1     -25.125   3.596  26.422  0.00  0.00    +0.022 C 
ATOM     14  C   UNL A   1     -25.974   2.997  27.262  0.00  0.00    +0.094 C 
BRANCH  11  15
ATOM     15  C   UNL A   1     -22.592   1.132  27.664  0.00  0.00    -0.021 A 
ATOM     16  C   UNL A   1     -21.429   1.875  27.768  0.00  0.00    -0.004 A 
ATOM     17  C   UNL A   1     -22.644  -0.160  28.373  0.00  0.00    -0.004 A 
ATOM     18  C   UNL A   1     -21.482  -0.617  29.044  0.00  0.00    -0.000 A 
ATOM     19  C   UNL A   1     -20.269   1.330  28.385  0.00  0.00    -0.000 A 
ATOM     20  C   UNL A   1     -20.335   0.139  29.049  0.00  0.00    -0.000 A 
ENDBRANCH  11  15
ENDBRANCH   2   7
BRANCH   6  21
ATOM     21  C   UNL A   1     -29.075  -2.794  30.131  0.00  0.00    +0.341 C 
ATOM     22  O   UNL A   1     -28.999  -4.014  30.315  0.00  0.00    -0.245 OA
BRANCH  21  23
ATOM     23  O   UNL A   1     -30.231  -2.225  30.299  0.00  0.00    -0.445 OA
BRANCH  23  24
ATOM     24  C   UNL A   1     -31.097  -2.597  31.114  0.00  0.00    +0.209 C 
BRANCH  24  25
ATOM     25  C   UNL A   1     -31.011  -2.285  32.415  0.00  0.00    +0.052 C 
BRANCH  25  26
ATOM     26  C   UNL A   1     -30.588  -0.963  32.613  0.00  0.00    +0.030 C 
BRANCH  26  27
ATOM     27  C   UNL A   1     -31.310   0.093  32.246  0.00  0.00    -0.022 A 
ATOM     28  C   UNL A   1     -32.440   0.301  32.583  0.00  0.00    -0.004 A 
ATOM     29  C   UNL A   1     -33.230   1.475  32.127  0.00  0.00    -0.000 A 
ATOM     30  C   UNL A   1     -32.570   2.346  31.227  0.00  0.00    -0.000 A 
ATOM     31  C   UNL A   1     -31.267   2.104  30.788  0.00  0.00    -0.000 A 
ATOM     32  C   UNL A   1     -30.586   1.052  31.292  0.00  0.00    -0.004 A 
ENDBRANCH  26  27
BRANCH  26  33
ATOM     33  C   UNL A   1     -29.351  -0.764  33.468  0.00  0.00    +0.030 C 
BRANCH  33  34
ATOM     34  C   UNL A   1     -29.441  -0.231  34.708  0.00  0.00    -0.026 C 
ATOM     35  C   UNL A   1     -28.330   0.022  35.437  0.00  0.00    -0.005 C 
ENDBRANCH  33  34
ENDBRANCH  26  33
ENDBRANCH  25  26
ENDBRANCH  24  25
ENDBRANCH  23  24
ENDBRANCH  21  23
ENDBRANCH   6  21
TORSDOF 10
