MODEL 3875
MODEL 1
REMARK VINA RESULT:    -5.232      0.000      0.000
REMARK INTER + INTRA:          -7.045
REMARK INTER:                  -6.456
REMARK INTRA:                  -0.589
REMARK UNBOUND:                -0.589
REMARK  Name = No_3875-gen_results/8p0m/2024-11-27-11-27-31/
REMARK  4 active torsions:
REMARK  status: ('A' for Active; 'I' for Inactive)
REMARK    1  A    between atoms: C_1  and  C_8
REMARK    2  A    between atoms: C_4  and  C_15
REMARK    3  A    between atoms: C_5  and  C_10
REMARK    4  A    between atoms: C_8  and  N_9
REMARK                            x       y       z     vdW  Elec       q    Type
REMARK                         _______ _______ _______ _____ _____    ______ ____
ROOT
ATOM      1  C   UNL A   1     -25.795   0.673  24.818  0.00  0.00    -0.017 C 
ATOM      2  C   UNL A   1     -25.180   0.432  25.830  0.00  0.00    -0.047 C 
ATOM      3  C   UNL A   1     -25.310  -0.595  26.620  0.00  0.00    +0.032 C 
ATOM      4  C   UNL A   1     -24.529  -0.858  27.854  0.00  0.00    +0.096 C 
ATOM      5  C   UNL A   1     -23.511   0.086  28.171  0.00  0.00    +0.025 C 
ATOM      6  C   UNL A   1     -23.330   1.138  27.310  0.00  0.00    +0.006 C 
ATOM      7  C   UNL A   1     -24.055   1.334  26.184  0.00  0.00    +0.022 C 
ENDROOT
BRANCH   5   8
ATOM      8  C   UNL A   1     -22.670  -0.078  29.339  0.00  0.00    +0.080 C 
ATOM      9 CL   UNL A   1     -22.882  -0.174  30.923  0.00  0.00    -0.115 Cl
ATOM     10  C   UNL A   1     -21.257  -0.487  28.937  0.00  0.00    +0.018 C 
ENDBRANCH   5   8
BRANCH   4  11
ATOM     11  C   UNL A   1     -24.760  -2.036  28.755  0.00  0.00    +0.310 C 
ATOM     12  O   UNL A   1     -25.649  -1.956  29.539  0.00  0.00    -0.259 OA
ATOM     13  F   UNL A   1     -23.972  -2.978  28.695  0.00  0.00    -0.164 F 
ENDBRANCH   4  11
BRANCH   1  14
ATOM     14  C   UNL A   1     -27.048   0.017  24.693  0.00  0.00    +0.098 C 
BRANCH  14  15
ATOM     15  N   UNL A   1     -28.138   0.705  24.646  0.00  0.00    -0.267 NA
ATOM     16  C   UNL A   1     -29.148   0.390  25.343  0.00  0.00    +0.090 C 
ATOM     17  C   UNL A   1     -28.393   1.832  23.719  0.00  0.00    +0.090 C 
ENDBRANCH  14  15
ENDBRANCH   1  14
TORSDOF 4
ENDMDL
ENDMDL
