MODEL 3876
MODEL 1
REMARK VINA RESULT:    -6.270      0.000      0.000
REMARK INTER + INTRA:          -7.962
REMARK INTER:                  -7.370
REMARK INTRA:                  -0.592
REMARK UNBOUND:                -0.592
REMARK  Name = No_3876-gen_results/8p0m/2024-11-27-11-27-31/
REMARK  3 active torsions:
REMARK  status: ('A' for Active; 'I' for Inactive)
REMARK    1  A    between atoms: C_2  and  C_13
REMARK    2  A    between atoms: C_4  and  C_7
REMARK    3  A    between atoms: N_15  and  C_16
REMARK                            x       y       z     vdW  Elec       q    Type
REMARK                         _______ _______ _______ _____ _____    ______ ____
ROOT
ATOM      1  C   UNL A   1     -29.487  -9.841  32.462  0.00  0.00    +0.005 A 
ATOM      2  C   UNL A   1     -28.709 -10.420  32.874  0.00  0.00    +0.056 A 
ATOM      3  C   UNL A   1     -29.821 -10.134  31.016  0.00  0.00    +0.000 A 
ATOM      4  C   UNL A   1     -29.197 -11.221  30.370  0.00  0.00    +0.000 A 
ATOM      5  C   UNL A   1     -27.939 -11.608  32.440  0.00  0.00    +0.005 A 
ATOM      6  C   UNL A   1     -28.224 -11.912  31.116  0.00  0.00    +0.000 A 
ENDROOT
BRANCH   4   7
ATOM      7  C   UNL A   1     -29.485 -11.296  29.018  0.00  0.00    +0.000 A 
ATOM      8  C   UNL A   1     -28.839 -12.082  28.318  0.00  0.00    +0.000 A 
ATOM      9  C   UNL A   1     -30.413 -10.443  28.355  0.00  0.00    +0.000 A 
ATOM     10  C   UNL A   1     -30.746 -10.643  27.003  0.00  0.00    +0.000 A 
ATOM     11  C   UNL A   1     -29.002 -12.304  26.852  0.00  0.00    +0.000 A 
ATOM     12  C   UNL A   1     -29.997 -11.558  26.249  0.00  0.00    +0.000 A 
ENDBRANCH   4   7
BRANCH   2  13
ATOM     13  C   UNL A   1     -28.331 -10.123  34.428  0.00  0.00    +0.277 C 
ATOM     14  O   UNL A   1     -27.455 -10.779  34.744  0.00  0.00    -0.267 OA
ATOM     15  N   UNL A   1     -28.713  -8.949  35.038  0.00  0.00    -0.123 NA
BRANCH  15  16
ATOM     16  C   UNL A   1     -28.212  -8.664  36.348  0.00  0.00    +0.039 C 
ATOM     17  C   UNL A   1     -27.670  -7.861  36.768  0.00  0.00    +0.009 C 
ENDBRANCH  15  16
ENDBRANCH   2  13
TORSDOF 3
ENDMDL
ENDMDL
