REMARK  Name = outputs/IAG933/test6/raw/output_3876_IAG933_linker_design_.xyz
REMARK  14 active torsions:
REMARK  status: ('A' for Active; 'I' for Inactive)
REMARK    1  A    between atoms: C_1  and  C_2
REMARK    2  A    between atoms: C_1  and  C_8
REMARK    3  A    between atoms: C_1  and  C_32
REMARK    4  A    between atoms: C_13  and  C_33
REMARK    5  A    between atoms: C_14  and  C_15
REMARK    6  A    between atoms: C_21  and  O_22
REMARK    7  A    between atoms: O_22  and  C_23
REMARK    8  A    between atoms: C_23  and  C_24
REMARK    9  A    between atoms: N_28  and  C_37
REMARK   10  A    between atoms: C_29  and  O_38
REMARK   11  A    between atoms: C_29  and  C_42
REMARK   12  A    between atoms: C_32  and  C_44
REMARK   13  A    between atoms: O_35  and  C_42
REMARK   14  A    between atoms: C_37  and  C_42
REMARK                            x       y       z     vdW  Elec       q    Type
REMARK                         _______ _______ _______ _____ _____    ______ ____
ROOT
ATOM      1  N   UNL A   1     -22.912   0.205  28.996  0.00  0.00    -0.145 NA
ATOM      2  C   UNL A   1     -24.369   1.387  27.113  0.00  0.00    +0.037 A 
ATOM      3 CL   UNL A   1     -22.666   2.592  25.234  0.00  0.00    -0.078 Cl
ATOM      4  C   UNL A   1     -21.802   1.554  27.463  0.00  0.00    +0.252 A 
ATOM      5  N   UNL A   1     -21.694   0.716  28.499  0.00  0.00    -0.117 NA
ATOM      6  F   UNL A   1     -20.709   2.144  27.111  0.00  0.00    -0.181 F 
ATOM      7  C   UNL A   1     -22.961   1.808  26.695  0.00  0.00    +0.107 A 
ATOM      8  C   UNL A   1     -23.995   0.451  28.367  0.00  0.00    +0.117 A 
ENDROOT
BRANCH   2   9
ATOM      9  C   UNL A   1     -25.688   1.614  26.461  0.00  0.00    +0.041 C 
ATOM     10  C   UNL A   1     -26.250   2.920  26.395  0.00  0.00    +0.077 C 
ATOM     11  C   UNL A   1     -27.438   3.091  25.645  0.00  0.00    +0.107 C 
ATOM     12  N   UNL A   1     -28.075   2.089  25.003  0.00  0.00    -0.208 NA
ATOM     13  C   UNL A   1     -27.543   0.849  25.079  0.00  0.00    +0.253 C 
ATOM     14  C   UNL A   1     -26.354   0.576  25.777  0.00  0.00    +0.193 C 
ATOM     15  F   UNL A   1     -25.860  -0.681  25.795  0.00  0.00    -0.199 F 
BRANCH  10  16
ATOM     16  C   UNL A   1     -25.642   4.093  27.123  0.00  0.00    +0.266 C 
ATOM     17  N   UNL A   1     -25.614   5.252  26.449  0.00  0.00    -0.200 NA
ATOM     18  C   UNL A   1     -25.026   6.479  26.963  0.00  0.00    +0.139 C 
ATOM     19  O   UNL A   1     -25.143   3.966  28.243  0.00  0.00    -0.268 OA
ENDBRANCH  10  16
BRANCH  13  20
ATOM     20  O   UNL A   1     -28.193  -0.208  24.477  0.00  0.00    -0.456 OA
BRANCH  20  21
ATOM     21  C   UNL A   1     -29.460   0.005  23.866  0.00  0.00    +0.243 C 
BRANCH  21  22
ATOM     22  C   UNL A   1     -30.065  -1.377  23.573  0.00  0.00    +0.229 C 
ATOM     23  O   UNL A   1     -30.729  -1.878  24.721  0.00  0.00    -0.216 OA
ENDBRANCH  21  22
ENDBRANCH  20  21
ENDBRANCH  13  20
ENDBRANCH   2   9
BRANCH   8  25
ATOM     24  N   UNL A   1     -26.388  -0.148  28.345  0.00  0.00    -0.270 NA
ATOM     25  C   UNL A   1     -25.147  -0.144  28.810  0.00  0.00    +0.078 C 
BRANCH  25  26
ATOM     26  C   UNL A   1     -24.855  -1.012  30.143  0.00  0.00    +0.080 C 
BRANCH  26  27
ATOM     27  C   UNL A   1     -24.973  -2.505  29.788  0.00  0.00    -0.015 C 
ATOM     28  C   UNL A   1     -23.906  -3.173  29.146  0.00  0.00    -0.004 C 
ATOM     29  C   UNL A   1     -23.989  -4.549  28.853  0.00  0.00    -0.000 C 
ATOM     30  C   UNL A   1     -25.137  -5.280  29.205  0.00  0.00    -0.000 C 
ATOM     31  C   UNL A   1     -26.232  -4.611  29.784  0.00  0.00    -0.000 C 
ATOM     32  C   UNL A   1     -26.155  -3.232  30.065  0.00  0.00    -0.004 C 
ENDBRANCH  26  27
BRANCH  26  33
ATOM     33  C   UNL A   1     -25.387  -0.679  31.571  0.00  0.00    +0.082 C 
ATOM     34  C   UNL A   1     -25.189   0.773  32.028  0.00  0.00    +0.020 C 
ATOM     35  C   UNL A   1     -25.336   0.684  33.544  0.00  0.00    +0.020 C 
ATOM     36  C   UNL A   1     -24.829  -0.715  33.905  0.00  0.00    +0.089 C 
ATOM     37  N   UNL A   1     -24.758  -1.481  32.646  0.00  0.00    -0.219 NA
ENDBRANCH  26  33
ENDBRANCH  25  26
BRANCH  24  38
ATOM     38  C   UNL A   1     -27.655  -0.856  28.656  0.00  0.00    +0.157 C 
BRANCH  38  39
ATOM     39  C   UNL A   1     -28.627   0.096  28.716  0.00  0.00    +0.172 C 
BRANCH  39  41
ATOM     40  C   UNL A   1     -30.640   1.193  28.327  0.00  0.00    +0.174 C 
ATOM     41  O   UNL A   1     -30.022   0.042  28.976  0.00  0.00    -0.349 OA
ENDBRANCH  39  41
BRANCH  39  42
ATOM     42  C   UNL A   1     -28.065   1.285  29.437  0.00  0.00    +0.217 C 
BRANCH  42  43
ATOM     43  O   UNL A   1     -28.849   1.525  30.628  0.00  0.00    -0.186 OA
ATOM     44  O   UNL A   1     -29.487   0.484  31.289  0.00  0.00    -0.035 OA
ENDBRANCH  42  43
ENDBRANCH  39  42
ENDBRANCH  38  39
ENDBRANCH  24  38
ENDBRANCH   8  25
TORSDOF 14
