REMARK  Name = outputs/IAG933/test6/raw/output_3877_IAG933_linker_design_.xyz
REMARK  14 active torsions:
REMARK  status: ('A' for Active; 'I' for Inactive)
REMARK    1  A    between atoms: C_1  and  C_2
REMARK    2  A    between atoms: C_1  and  C_8
REMARK    3  A    between atoms: C_1  and  O_38
REMARK    4  A    between atoms: C_13  and  N_31
REMARK    5  A    between atoms: C_14  and  C_15
REMARK    6  A    between atoms: C_21  and  O_22
REMARK    7  A    between atoms: O_22  and  C_23
REMARK    8  A    between atoms: C_23  and  C_24
REMARK    9  A    between atoms: N_31  and  C_34
REMARK   10  A    between atoms: N_31  and  C_56
REMARK   11  A    between atoms: C_32  and  C_58
REMARK   12  A    between atoms: C_34  and  C_42
REMARK   13  A    between atoms: O_38  and  C_56
REMARK   14  A    between atoms: C_56  and  C_58
REMARK                            x       y       z     vdW  Elec       q    Type
REMARK                         _______ _______ _______ _____ _____    ______ ____
ROOT
ATOM      1  C   UNL A   1     -25.323   1.064  28.821  0.00  0.00    +0.178 C 
ENDROOT
BRANCH   1   2
ATOM      2  N   UNL A   1     -24.800   1.405  27.510  0.00  0.00    -0.247 NA
BRANCH   2   3
ATOM      3  C   UNL A   1     -25.688   1.614  26.461  0.00  0.00    +0.130 C 
ATOM      4  C   UNL A   1     -26.250   2.920  26.395  0.00  0.00    +0.070 C 
ATOM      5  C   UNL A   1     -27.438   3.091  25.645  0.00  0.00    +0.103 C 
ATOM      6  N   UNL A   1     -28.075   2.089  25.003  0.00  0.00    -0.212 NA
ATOM      7  C   UNL A   1     -27.543   0.849  25.079  0.00  0.00    +0.235 C 
ATOM      8  C   UNL A   1     -26.354   0.576  25.777  0.00  0.00    +0.255 C 
ATOM      9  F   UNL A   1     -25.860  -0.681  25.795  0.00  0.00    -0.225 F 
BRANCH   4  10
ATOM     10  C   UNL A   1     -25.642   4.093  27.123  0.00  0.00    +0.264 C 
ATOM     11  N   UNL A   1     -25.614   5.252  26.449  0.00  0.00    -0.200 NA
ATOM     12  C   UNL A   1     -25.026   6.479  26.963  0.00  0.00    +0.139 C 
ATOM     13  O   UNL A   1     -25.143   3.966  28.243  0.00  0.00    -0.269 OA
ENDBRANCH   4  10
BRANCH   7  14
ATOM     14  O   UNL A   1     -28.193  -0.208  24.477  0.00  0.00    -0.459 OA
BRANCH  14  15
ATOM     15  C   UNL A   1     -29.460   0.005  23.866  0.00  0.00    +0.242 C 
BRANCH  15  16
ATOM     16  C   UNL A   1     -30.065  -1.377  23.573  0.00  0.00    +0.229 C 
ATOM     17  O   UNL A   1     -30.729  -1.878  24.721  0.00  0.00    -0.216 OA
ENDBRANCH  15  16
ENDBRANCH  14  15
ENDBRANCH   7  14
ENDBRANCH   2   3
BRANCH   2  18
ATOM     18  C   UNL A   1     -23.474   2.016  27.379  0.00  0.00    +0.060 C 
ATOM     19  C   UNL A   1     -23.263   2.305  25.877  0.00  0.00    +0.017 C 
BRANCH  18  20
ATOM     20  C   UNL A   1     -22.327   1.146  27.920  0.00  0.00    +0.016 C 
ATOM     21  C   UNL A   1     -20.956   1.709  27.560  0.00  0.00    +0.001 C 
ENDBRANCH  18  20
ENDBRANCH   2  18
ENDBRANCH   1   2
BRANCH   1  22
ATOM     22  O   UNL A   1     -24.459  -0.062  29.113  0.00  0.00    -0.338 OA
BRANCH  22  23
ATOM     23  C   UNL A   1     -24.855  -1.012  30.143  0.00  0.00    +0.155 C 
BRANCH  23  24
ATOM     24  C   UNL A   1     -24.973  -2.505  29.788  0.00  0.00    +0.006 C 
ATOM     25  C   UNL A   1     -23.906  -3.173  29.146  0.00  0.00    -0.002 C 
ATOM     26  C   UNL A   1     -23.989  -4.549  28.853  0.00  0.00    -0.000 C 
ATOM     27  C   UNL A   1     -25.137  -5.280  29.205  0.00  0.00    -0.000 C 
ATOM     28  C   UNL A   1     -26.232  -4.611  29.784  0.00  0.00    -0.000 C 
ATOM     29  C   UNL A   1     -26.155  -3.232  30.065  0.00  0.00    -0.002 C 
ENDBRANCH  23  24
BRANCH  23  30
ATOM     30  C   UNL A   1     -25.387  -0.679  31.571  0.00  0.00    +0.104 C 
ATOM     31  C   UNL A   1     -25.189   0.773  32.028  0.00  0.00    +0.022 C 
ATOM     32  C   UNL A   1     -25.336   0.684  33.544  0.00  0.00    +0.020 C 
ATOM     33  C   UNL A   1     -24.829  -0.715  33.905  0.00  0.00    +0.089 C 
ATOM     34  N   UNL A   1     -24.758  -1.481  32.646  0.00  0.00    -0.217 NA
ENDBRANCH  23  30
ENDBRANCH  22  23
ENDBRANCH   1  22
BRANCH   1  35
ATOM     35  C   UNL A   1     -26.782   0.947  29.226  0.00  0.00    +0.065 C 
BRANCH  35  39
ATOM     36  S   UNL A   1     -28.666   4.063  29.224  0.00  0.00    -0.123 S 
ATOM     37  N   UNL A   1     -30.102   3.502  32.489  0.00  0.00    -0.200 NA
ATOM     38  C   UNL A   1     -32.854   1.687  26.602  0.00  0.00    +0.102 C 
ATOM     39  C   UNL A   1     -27.222   2.141  30.215  0.00  0.00    +0.087 C 
ATOM     40  C   UNL A   1     -30.872   4.069  28.974  0.00  0.00    +0.100 C 
ATOM     41  C   UNL A   1     -31.935   4.023  26.225  0.00  0.00    +0.060 C 
ATOM     42  N   UNL A   1     -31.828   2.735  27.114  0.00  0.00    -0.271 NA
ATOM     43  C   UNL A   1     -31.489   3.462  23.815  0.00  0.00    +0.006 C 
ATOM     44  C   UNL A   1     -32.444   1.834  25.201  0.00  0.00    +0.132 C 
ATOM     45  N   UNL A   1     -31.072   4.152  30.146  0.00  0.00    -0.199 NA
ATOM     46  C   UNL A   1     -29.733   2.180  33.669  0.00  0.00    +0.036 C 
ATOM     47  C   UNL A   1     -32.611   1.307  22.935  0.00  0.00    +0.142 C 
ATOM     48  C   UNL A   1     -30.787   2.399  32.592  0.00  0.00    +0.092 C 
ATOM     49  C   UNL A   1     -30.889   5.206  25.882  0.00  0.00    +0.017 C 
ATOM     50  C   UNL A   1     -29.912   4.679  28.216  0.00  0.00    +0.066 C 
ATOM     51  O   UNL A   1     -33.230   1.284  24.183  0.00  0.00    -0.355 OA
ATOM     52  C   UNL A   1     -32.487   3.356  24.963  0.00  0.00    +0.043 C 
ATOM     53  N   UNL A   1     -28.312   1.954  31.420  0.00  0.00    -0.263 NA
ATOM     54  C   UNL A   1     -30.549   4.397  31.405  0.00  0.00    +0.178 C 
ATOM     55  C   UNL A   1     -31.976   2.650  22.609  0.00  0.00    +0.032 C 
ATOM     56  C   UNL A   1     -31.475   2.886  28.426  0.00  0.00    +0.091 C 
ATOM     57  C   UNL A   1     -28.633   1.567  32.932  0.00  0.00    +0.074 C 
ATOM     58  C   UNL A   1     -29.695   5.231  26.870  0.00  0.00    +0.014 C 
ATOM     59  C   UNL A   1     -28.510   2.591  30.168  0.00  0.00    +0.121 C 
ENDBRANCH  35  39
ENDBRANCH   1  35
TORSDOF 14
