REMARK  Name = outputs/IAG933/test6/raw/output_3878_IAG933_linker_design_.xyz
REMARK  7 active torsions:
REMARK  status: ('A' for Active; 'I' for Inactive)
REMARK    1  A    between atoms: C_1  and  C_2
REMARK    2  A    between atoms: C_1  and  C_8
REMARK    3  A    between atoms: C_1  and  C_32
REMARK    4  A    between atoms: C_21  and  O_22
REMARK    5  A    between atoms: O_22  and  C_23
REMARK    6  A    between atoms: C_23  and  C_24
REMARK    7  A    between atoms: S_37  and  C_41
REMARK                            x       y       z     vdW  Elec       q    Type
REMARK                         _______ _______ _______ _____ _____    ______ ____
ROOT
ATOM      1  C   UNL A   1     -25.688   1.614  26.461  0.00  0.00    +0.079 C 
ATOM      2  C   UNL A   1     -26.250   2.920  26.395  0.00  0.00    +0.053 C 
ATOM      3  C   UNL A   1     -25.642   4.093  27.123  0.00  0.00    +0.220 C 
ATOM      4  N   UNL A   1     -25.614   5.252  26.449  0.00  0.00    -0.236 NA
ATOM      5  C   UNL A   1     -25.026   6.479  26.963  0.00  0.00    +0.155 C 
ATOM      6  O   UNL A   1     -25.143   3.966  28.243  0.00  0.00    -0.440 OA
ATOM      7  C   UNL A   1     -27.438   3.091  25.645  0.00  0.00    +0.102 C 
ATOM      8  N   UNL A   1     -28.075   2.089  25.003  0.00  0.00    -0.212 NA
ATOM      9  C   UNL A   1     -27.543   0.849  25.079  0.00  0.00    +0.234 C 
ATOM     10  C   UNL A   1     -26.354   0.576  25.777  0.00  0.00    +0.240 C 
ATOM     11  F   UNL A   1     -25.860  -0.681  25.795  0.00  0.00    -0.227 F 
ATOM     12  C   UNL A   1     -22.566   0.520  29.415  0.00  0.00    +0.308 C 
ATOM     13  C   UNL A   1     -24.143   1.719  26.427  0.00  0.00    +0.093 C 
ATOM     14  N   UNL A   1     -23.681   0.517  28.669  0.00  0.00    -0.270 N 
ATOM     15  C   UNL A   1     -25.068   0.039  29.035  0.00  0.00    +0.087 C 
ATOM     16  O   UNL A   1     -21.774   2.036  26.284  0.00  0.00    -0.447 OA
ATOM     17  C   UNL A   1     -26.105   1.281  29.049  0.00  0.00    +0.091 C 
ATOM     18  O   UNL A   1     -21.489   1.046  28.709  0.00  0.00    -0.426 OA
ATOM     19  C   UNL A   1     -22.119   1.397  27.486  0.00  0.00    +0.303 C 
ATOM     20  C   UNL A   1     -22.940   2.157  25.610  0.00  0.00    +0.215 C 
ATOM     21  C   UNL A   1     -25.501   2.757  29.032  0.00  0.00    +0.315 C 
ATOM     22  C   UNL A   1     -23.430   0.994  27.503  0.00  0.00    +0.103 C 
ENDROOT
BRANCH  21  25
ATOM     23  O   UNL A   1     -26.142   3.481  32.363  0.00  0.00    -0.151 OA
ATOM     24  O   UNL A   1     -24.196   3.066  31.277  0.00  0.00    -0.151 OA
ATOM     25  S   UNL A   1     -25.475   3.572  30.984  0.00  0.00    +0.111 S 
ATOM     26  N   UNL A   1     -26.234   4.780  30.610  0.00  0.00    +0.038 NA
ENDBRANCH  21  25
BRANCH  15  27
ATOM     27  C   UNL A   1     -24.855  -1.012  30.143  0.00  0.00    +0.057 C 
BRANCH  27  28
ATOM     28  C   UNL A   1     -24.973  -2.505  29.788  0.00  0.00    -0.019 C 
ATOM     29  C   UNL A   1     -23.906  -3.173  29.146  0.00  0.00    -0.004 C 
ATOM     30  C   UNL A   1     -23.989  -4.549  28.853  0.00  0.00    -0.000 C 
ATOM     31  C   UNL A   1     -25.137  -5.280  29.205  0.00  0.00    -0.000 C 
ATOM     32  C   UNL A   1     -26.232  -4.611  29.784  0.00  0.00    -0.000 C 
ATOM     33  C   UNL A   1     -26.155  -3.232  30.065  0.00  0.00    -0.004 C 
ENDBRANCH  27  28
BRANCH  27  34
ATOM     34  C   UNL A   1     -25.387  -0.679  31.571  0.00  0.00    +0.078 C 
ATOM     35  C   UNL A   1     -25.189   0.773  32.028  0.00  0.00    +0.019 C 
ATOM     36  C   UNL A   1     -25.336   0.684  33.544  0.00  0.00    +0.020 C 
ATOM     37  C   UNL A   1     -24.829  -0.715  33.905  0.00  0.00    +0.089 C 
ATOM     38  N   UNL A   1     -24.758  -1.481  32.646  0.00  0.00    -0.219 NA
ENDBRANCH  27  34
ENDBRANCH  15  27
BRANCH   9  39
ATOM     39  O   UNL A   1     -28.193  -0.208  24.477  0.00  0.00    -0.459 OA
BRANCH  39  40
ATOM     40  C   UNL A   1     -29.460   0.005  23.866  0.00  0.00    +0.242 C 
BRANCH  40  41
ATOM     41  C   UNL A   1     -30.065  -1.377  23.573  0.00  0.00    +0.229 C 
ATOM     42  O   UNL A   1     -30.729  -1.878  24.721  0.00  0.00    -0.216 OA
ENDBRANCH  40  41
ENDBRANCH  39  40
ENDBRANCH   9  39
TORSDOF 7
