MODEL 3878
MODEL 1
REMARK VINA RESULT:    -5.258      0.000      0.000
REMARK INTER + INTRA:          -5.258
REMARK INTER:                  -5.258
REMARK INTRA:                   0.000
REMARK UNBOUND:                 0.000
REMARK  Name = No_3878-gen_results/8p0m/2024-11-27-11-27-31/
REMARK  0 active torsions:
REMARK  status: ('A' for Active; 'I' for Inactive)
REMARK                            x       y       z     vdW  Elec       q    Type
REMARK                         _______ _______ _______ _____ _____    ______ ____
ROOT
ATOM      1  C   UNL A   1      -9.619 -10.003  17.973  0.00  0.00    +0.030 C 
ATOM      2  C   UNL A   1     -10.107 -10.553  17.217  0.00  0.00    +0.125 C 
ATOM      3  C   UNL A   1     -10.438  -9.569  19.069  0.00  0.00    +0.033 C 
ATOM      4  C   UNL A   1      -9.834  -8.976  20.280  0.00  0.00    +0.005 C 
ATOM      5  C   UNL A   1      -8.536  -9.367  20.658  0.00  0.00    +0.001 C 
ATOM      6  C   UNL A   1      -7.778 -10.162  19.774  0.00  0.00    +0.005 C 
ATOM      7  C   UNL A   1      -8.291 -10.563  18.596  0.00  0.00    +0.033 C 
ATOM      8  O   UNL A   1     -11.126 -10.338  16.677  0.00  0.00    -0.232 OA
ENDROOT
TORSDOF 0
ENDMDL
ENDMDL
