REMARK  Name = No_3879-gen_results/8p0m/2024-11-27-11-27-31/
REMARK  11 active torsions:
REMARK  status: ('A' for Active; 'I' for Inactive)
REMARK    1  A    between atoms: C_5  and  C_8
REMARK    2  A    between atoms: C_8  and  O_10
REMARK    3  A    between atoms: O_10  and  C_13
REMARK    4  A    between atoms: C_13  and  C_16
REMARK    5  A    between atoms: C_16  and  N_17
REMARK    6  A    between atoms: N_17  and  C_18
REMARK    7  A    between atoms: C_18  and  C_19
REMARK    8  A    between atoms: C_19  and  C_20
REMARK    9  A    between atoms: C_21  and  C_22
REMARK   10  A    between atoms: C_22  and  C_23
REMARK   11  A    between atoms: C_26  and  C_29
REMARK                            x       y       z     vdW  Elec       q    Type
REMARK                         _______ _______ _______ _____ _____    ______ ____
ROOT
ATOM      1  N   UNL A   1     -22.390  -1.655  31.292  0.00  0.00    -0.210 NA
ENDROOT
BRANCH   1   2
ATOM      2  C   UNL A   1     -22.345  -0.462  30.684  0.00  0.00    +0.153 C 
BRANCH   2   3
ATOM      3  C   UNL A   1     -21.891  -0.395  29.394  0.00  0.00    +0.144 C 
ATOM      4  C   UNL A   1     -21.221  -1.485  28.711  0.00  0.00    +0.037 C 
BRANCH   3   5
ATOM      5  O   UNL A   1     -21.920   0.743  28.627  0.00  0.00    -0.424 OA
BRANCH   5   6
ATOM      6  C   UNL A   1     -22.962   1.632  28.795  0.00  0.00    +0.346 C 
ATOM      7  O   UNL A   1     -22.768   2.736  28.624  0.00  0.00    -0.244 OA
BRANCH   6  12
ATOM      8 CL   UNL A   1     -28.149  -0.820  28.908  0.00  0.00    -0.077 Cl
ATOM      9  C   UNL A   1     -26.912  -0.080  28.945  0.00  0.00    +0.113 A 
ATOM     10  C   UNL A   1     -26.738   1.044  29.253  0.00  0.00    +0.164 A 
ATOM     11  C   UNL A   1     -25.439   1.712  29.276  0.00  0.00    +0.092 A 
ATOM     12  C   UNL A   1     -24.281   0.989  28.854  0.00  0.00    +0.091 A 
ATOM     13  C   UNL A   1     -24.487  -0.304  28.496  0.00  0.00    +0.038 A 
ATOM     14  C   UNL A   1     -25.705  -0.867  28.524  0.00  0.00    +0.153 A 
ATOM     15  F   UNL A   1     -27.703   1.853  29.693  0.00  0.00    -0.202 F 
ATOM     16 CL   UNL A   1     -25.190   3.338  29.756  0.00  0.00    -0.080 Cl
ATOM     17  F   UNL A   1     -25.834  -2.146  28.152  0.00  0.00    -0.203 F 
ENDBRANCH   6  12
ENDBRANCH   5   6
ENDBRANCH   3   5
ENDBRANCH   2   3
ENDBRANCH   1   2
BRANCH   1  18
ATOM     18  C   UNL A   1     -23.585  -2.057  31.950  0.00  0.00    +0.094 C 
BRANCH  18  19
ATOM     19  C   UNL A   1     -24.670  -1.022  31.916  0.00  0.00    +0.044 C 
BRANCH  19  20
ATOM     20  C   UNL A   1     -24.524  -0.015  32.881  0.00  0.00    -0.029 C 
ATOM     21  C   UNL A   1     -25.507   1.098  32.830  0.00  0.00    -0.026 C 
BRANCH  21  22
ATOM     22  C   UNL A   1     -25.386   2.224  33.599  0.00  0.00    +0.054 C 
BRANCH  22  23
ATOM     23  C   UNL A   1     -25.914   3.358  32.999  0.00  0.00    +0.010 A 
ATOM     24  C   UNL A   1     -25.522   4.660  33.489  0.00  0.00    -0.002 A 
ATOM     25  C   UNL A   1     -25.215   5.668  32.605  0.00  0.00    +0.004 A 
ATOM     26  C   UNL A   1     -25.980   5.771  31.443  0.00  0.00    +0.074 A 
ATOM     27  C   UNL A   1     -26.691   4.654  31.048  0.00  0.00    +0.033 A 
ATOM     28  C   UNL A   1     -26.567   3.464  31.787  0.00  0.00    +0.136 A 
ATOM     29  F   UNL A   1     -27.041   2.394  31.440  0.00  0.00    -0.204 F 
BRANCH  26  30
ATOM     30  C   UNL A   1     -26.038   6.991  30.635  0.00  0.00    +0.419 C 
ATOM     31  F   UNL A   1     -25.084   7.723  30.717  0.00  0.00    -0.166 F 
ATOM     32  F   UNL A   1     -26.219   6.648  29.308  0.00  0.00    -0.166 F 
ATOM     33  F   UNL A   1     -27.174   7.666  31.003  0.00  0.00    -0.166 F 
ENDBRANCH  26  30
ENDBRANCH  22  23
ENDBRANCH  21  22
ENDBRANCH  19  20
ENDBRANCH  18  19
ENDBRANCH   1  18
TORSDOF 11
