MODEL 3879
MODEL 1
REMARK VINA RESULT:    -6.199      0.000      0.000
REMARK INTER + INTRA:         -12.336
REMARK INTER:                 -10.185
REMARK INTRA:                  -2.151
REMARK UNBOUND:                -2.151
REMARK  Name = No_3879-gen_results/8p0m/2024-11-27-11-27-31/
REMARK  11 active torsions:
REMARK  status: ('A' for Active; 'I' for Inactive)
REMARK    1  A    between atoms: C_5  and  C_8
REMARK    2  A    between atoms: C_8  and  O_10
REMARK    3  A    between atoms: O_10  and  C_13
REMARK    4  A    between atoms: C_13  and  C_16
REMARK    5  A    between atoms: C_16  and  N_17
REMARK    6  A    between atoms: N_17  and  C_18
REMARK    7  A    between atoms: C_18  and  C_19
REMARK    8  A    between atoms: C_19  and  C_20
REMARK    9  A    between atoms: C_21  and  C_22
REMARK   10  A    between atoms: C_22  and  C_23
REMARK   11  A    between atoms: C_26  and  C_29
REMARK                            x       y       z     vdW  Elec       q    Type
REMARK                         _______ _______ _______ _____ _____    ______ ____
ROOT
ATOM      1  N   UNL A   1     -26.217  -1.174  29.163  0.00  0.00    -0.210 NA
ENDROOT
BRANCH   1   2
ATOM      2  C   UNL A   1     -27.288  -0.480  29.571  0.00  0.00    +0.153 C 
BRANCH   2   3
ATOM      3  C   UNL A   1     -27.882   0.391  28.697  0.00  0.00    +0.144 C 
ATOM      4  C   UNL A   1     -28.045   1.810  28.950  0.00  0.00    +0.037 C 
BRANCH   3   5
ATOM      5  O   UNL A   1     -28.489   0.012  27.526  0.00  0.00    -0.424 OA
BRANCH   5   6
ATOM      6  C   UNL A   1     -27.950   0.439  26.329  0.00  0.00    +0.346 C 
ATOM      7  O   UNL A   1     -26.831   0.342  26.171  0.00  0.00    -0.244 OA
BRANCH   6  12
ATOM      8 CL   UNL A   1     -31.763   1.334  22.135  0.00  0.00    -0.077 Cl
ATOM      9  C   UNL A   1     -30.802   1.263  23.208  0.00  0.00    +0.113 A 
ATOM     10  C   UNL A   1     -30.253   2.146  23.762  0.00  0.00    +0.164 A 
ATOM     11  C   UNL A   1     -29.300   1.982  24.856  0.00  0.00    +0.092 A 
ATOM     12  C   UNL A   1     -28.951   0.662  25.279  0.00  0.00    +0.091 A 
ATOM     13  C   UNL A   1     -29.583  -0.353  24.635  0.00  0.00    +0.038 A 
ATOM     14  C   UNL A   1     -30.472  -0.132  23.654  0.00  0.00    +0.153 A 
ATOM     15  F   UNL A   1     -30.478   3.437  23.509  0.00  0.00    -0.202 F 
ATOM     16 CL   UNL A   1     -28.530   3.274  25.678  0.00  0.00    -0.080 Cl
ATOM     17  F   UNL A   1     -31.052  -1.182  23.060  0.00  0.00    -0.203 F 
ENDBRANCH   6  12
ENDBRANCH   5   6
ENDBRANCH   3   5
ENDBRANCH   2   3
ENDBRANCH   1   2
BRANCH   1  18
ATOM     18  C   UNL A   1     -25.620  -2.116  30.045  0.00  0.00    +0.094 C 
BRANCH  18  19
ATOM     19  C   UNL A   1     -24.520  -2.918  29.417  0.00  0.00    +0.044 C 
BRANCH  19  20
ATOM     20  C   UNL A   1     -23.464  -2.141  28.920  0.00  0.00    -0.029 C 
ATOM     21  C   UNL A   1     -22.897  -1.125  29.845  0.00  0.00    -0.026 C 
BRANCH  21  22
ATOM     22  C   UNL A   1     -21.981  -0.191  29.442  0.00  0.00    +0.054 C 
BRANCH  22  23
ATOM     23  C   UNL A   1     -22.560   0.942  28.889  0.00  0.00    +0.010 A 
ATOM     24  C   UNL A   1     -21.999   1.499  27.679  0.00  0.00    -0.002 A 
ATOM     25  C   UNL A   1     -22.825   1.914  26.661  0.00  0.00    +0.004 A 
ATOM     26  C   UNL A   1     -24.018   2.549  27.007  0.00  0.00    +0.074 A 
ATOM     27  C   UNL A   1     -24.493   2.355  28.290  0.00  0.00    +0.033 A 
ATOM     28  C   UNL A   1     -23.797   1.494  29.157  0.00  0.00    +0.136 A 
ATOM     29  F   UNL A   1     -24.211   1.152  30.254  0.00  0.00    -0.204 F 
BRANCH  26  30
ATOM     30  C   UNL A   1     -24.777   3.379  26.070  0.00  0.00    +0.419 C 
ATOM     31  F   UNL A   1     -25.452   2.785  25.267  0.00  0.00    -0.166 F 
ATOM     32  F   UNL A   1     -25.593   4.237  26.783  0.00  0.00    -0.166 F 
ATOM     33  F   UNL A   1     -23.875   4.180  25.417  0.00  0.00    -0.166 F 
ENDBRANCH  26  30
ENDBRANCH  22  23
ENDBRANCH  21  22
ENDBRANCH  19  20
ENDBRANCH  18  19
ENDBRANCH   1  18
TORSDOF 11
ENDMDL
ENDMDL
