MODEL 387
MODEL 1
REMARK VINA RESULT:    -7.546      0.000      0.000
REMARK INTER + INTRA:         -11.985
REMARK INTER:                 -10.193
REMARK INTRA:                  -1.792
REMARK UNBOUND:                -1.792
REMARK  Name = No_387-gen_results/8p0m/2024-11-27-11-27-31/
REMARK  6 active torsions:
REMARK  status: ('A' for Active; 'I' for Inactive)
REMARK    1  A    between atoms: C_1  and  C_2
REMARK    2  A    between atoms: C_1  and  C_8
REMARK    3  A    between atoms: C_3  and  C_23
REMARK    4  A    between atoms: C_5  and  C_15
REMARK    5  A    between atoms: C_8  and  C_9
REMARK    6  A    between atoms: C_13  and  C_18
REMARK                            x       y       z     vdW  Elec       q    Type
REMARK                         _______ _______ _______ _____ _____    ______ ____
ROOT
ATOM      1  C   UNL A   1      -9.961   1.963  36.826  0.00  0.00    -0.022 A 
ATOM      2  C   UNL A   1     -10.682   0.768  37.450  0.00  0.00    -0.004 A 
ATOM      3  C   UNL A   1     -10.268  -0.564  37.185  0.00  0.00    -0.001 A 
ATOM      4  C   UNL A   1      -9.139  -0.716  36.294  0.00  0.00    -0.003 A 
ATOM      5  C   UNL A   1      -8.537   0.367  35.658  0.00  0.00    -0.008 A 
ATOM      6  C   UNL A   1      -8.979   1.606  35.878  0.00  0.00    -0.008 A 
ENDROOT
BRANCH   5   7
ATOM      7  C   UNL A   1      -7.447   0.010  34.678  0.00  0.00    +0.143 C 
ATOM      8  C   UNL A   1      -7.283  -1.330  34.456  0.00  0.00    -0.015 C 
ATOM      9  C   UNL A   1      -6.338  -1.880  34.667  0.00  0.00    -0.022 C 
ATOM     10  C   UNL A   1      -5.021  -1.116  34.652  0.00  0.00    +0.084 C 
ATOM     11  C   UNL A   1      -3.780  -1.740  34.815  0.00  0.00    -0.023 C 
ATOM     12  C   UNL A   1      -2.682  -0.903  34.371  0.00  0.00    -0.026 C 
ATOM     13  C   UNL A   1      -6.145   0.450  35.182  0.00  0.00    +0.325 C 
ATOM     14  O   UNL A   1      -5.728   1.045  34.366  0.00  0.00    -0.451 OA
ATOM     15  O   UNL A   1      -6.037   0.156  36.344  0.00  0.00    -0.249 OA
ATOM     16  C   UNL A   1      -4.704   0.069  34.465  0.00  0.00    +0.181 C 
ATOM     17  C   UNL A   1      -3.491   0.251  34.182  0.00  0.00    +0.070 C 
ENDBRANCH   5   7
BRANCH   1  18
ATOM     18  C   UNL A   1     -10.369   3.119  37.076  0.00  0.00    +0.031 C 
BRANCH  18  19
ATOM     19  C   UNL A   1     -11.247   3.785  36.116  0.00  0.00    +0.031 C 
BRANCH  19  20
ATOM     20  C   UNL A   1     -12.426   3.768  36.383  0.00  0.00    -0.016 A 
ATOM     21  C   UNL A   1     -13.407   3.149  35.627  0.00  0.00    +0.064 A 
ATOM     22  C   UNL A   1     -14.828   3.182  35.878  0.00  0.00    +0.012 A 
ATOM     23  C   UNL A   1     -15.300   3.902  37.001  0.00  0.00    +0.080 A 
ATOM     24  C   UNL A   1     -14.307   4.582  37.786  0.00  0.00    +0.006 A 
ATOM     25  C   UNL A   1     -12.968   4.560  37.516  0.00  0.00    -0.004 A 
BRANCH  23  26
ATOM     26  C   UNL A   1     -16.719   4.117  37.250  0.00  0.00    +0.388 C 
ATOM     27  O   UNL A   1     -17.453   4.685  36.413  0.00  0.00    -0.241 OA
ATOM     28  O   UNL A   1     -17.275   3.717  38.378  0.00  0.00    -0.241 OA
ENDBRANCH  23  26
BRANCH  21  29
ATOM     29  C   UNL A   1     -13.067   2.319  34.459  0.00  0.00    +0.333 C 
ATOM     30  O   UNL A   1     -13.254   2.595  33.328  0.00  0.00    -0.254 OA
ATOM     31  F   UNL A   1     -12.470   1.176  34.755  0.00  0.00    -0.159 F 
ENDBRANCH  21  29
ENDBRANCH  19  20
ENDBRANCH  18  19
ENDBRANCH   1  18
TORSDOF 6
ENDMDL
ENDMDL
