REMARK  Name = outputs/IAG933/test6/raw/output_388_IAG933_linker_design_.xyz
REMARK  4 active torsions:
REMARK  status: ('A' for Active; 'I' for Inactive)
REMARK    1  A    between atoms: C_1  and  C_2
REMARK    2  A    between atoms: C_1  and  C_8
REMARK    3  A    between atoms: C_1  and  C_32
REMARK    4  A    between atoms: C_14  and  C_15
REMARK                            x       y       z     vdW  Elec       q    Type
REMARK                         _______ _______ _______ _____ _____    ______ ____
ROOT
ATOM      1  C   UNL A   1     -25.688   1.614  26.461  0.00  0.00    +0.040 C 
ATOM      2  C   UNL A   1     -26.250   2.920  26.395  0.00  0.00    +0.077 C 
ATOM      3  C   UNL A   1     -27.438   3.091  25.645  0.00  0.00    +0.107 C 
ATOM      4  N   UNL A   1     -28.075   2.089  25.003  0.00  0.00    -0.208 NA
ATOM      5  C   UNL A   1     -27.543   0.849  25.079  0.00  0.00    +0.253 C 
ATOM      6  O   UNL A   1     -28.193  -0.208  24.477  0.00  0.00    -0.455 OA
ATOM      7  C   UNL A   1     -29.460   0.005  23.866  0.00  0.00    +0.254 C 
ATOM      8  C   UNL A   1     -30.065  -1.377  23.573  0.00  0.00    +0.257 C 
ATOM      9  O   UNL A   1     -30.729  -1.878  24.721  0.00  0.00    -0.429 OA
ATOM     10  C   UNL A   1     -26.354   0.576  25.777  0.00  0.00    +0.193 C 
ATOM     11  F   UNL A   1     -25.860  -0.681  25.795  0.00  0.00    -0.199 F 
ATOM     12  O   UNL A   1     -34.095   2.243  28.044  0.00  0.00    -0.204 OA
ATOM     13  O   UNL A   1     -26.641  -0.284  28.785  0.00  0.00    -0.351 OA
ATOM     14  C   UNL A   1     -30.812   1.330  29.931  0.00  0.00    +0.000 C 
ATOM     15  O   UNL A   1     -31.727  -1.852  26.807  0.00  0.00    -0.225 OA
ATOM     16  C   UNL A   1     -25.243  -0.249  28.911  0.00  0.00    +0.143 C 
ATOM     17  C   UNL A   1     -32.349   0.735  28.133  0.00  0.00    +0.071 C 
ATOM     18  F   UNL A   1     -23.175   2.012  25.113  0.00  0.00    -0.204 F 
ATOM     19  N   UNL A   1     -31.799   0.047  25.421  0.00  0.00    -0.166 NA
ATOM     20  C   UNL A   1     -31.072   1.018  28.619  0.00  0.00    +0.006 C 
ATOM     21  C   UNL A   1     -33.500   1.177  27.506  0.00  0.00    +0.221 C 
ATOM     22  C   UNL A   1     -31.436  -1.271  25.752  0.00  0.00    +0.421 C 
ATOM     23  C   UNL A   1     -24.369   1.289  27.110  0.00  0.00    +0.028 C 
ATOM     24  C   UNL A   1     -24.096   0.477  28.378  0.00  0.00    +0.007 C 
ATOM     25  C   UNL A   1     -27.605  -0.287  29.980  0.00  0.00    +0.142 C 
ATOM     26  C   UNL A   1     -21.636   0.795  28.245  0.00  0.00    +0.002 C 
ATOM     27  C   UNL A   1     -28.789   0.045  29.681  0.00  0.00    +0.030 C 
ATOM     28  C   UNL A   1     -32.654   0.762  26.573  0.00  0.00    +0.147 C 
ATOM     29  C   UNL A   1     -21.845   1.528  27.085  0.00  0.00    +0.030 C 
ATOM     30  C   UNL A   1     -28.957  -0.018  28.123  0.00  0.00    +0.003 C 
ATOM     31  C   UNL A   1     -30.093   0.572  27.695  0.00  0.00    +0.000 C 
ATOM     32  C   UNL A   1     -23.118   1.677  26.466  0.00  0.00    +0.140 C 
ATOM     33  C   UNL A   1     -29.760   0.653  30.539  0.00  0.00    +0.003 C 
ATOM     34  C   UNL A   1     -22.769   0.266  28.898  0.00  0.00    -0.002 C 
ATOM     35  N   UNL A   1     -34.552   0.538  26.732  0.00  0.00    -0.099 NA
ENDROOT
BRANCH   2  36
ATOM     36  C   UNL A   1     -25.642   4.093  27.123  0.00  0.00    +0.266 C 
ATOM     37  N   UNL A   1     -25.614   5.252  26.449  0.00  0.00    -0.200 NA
ATOM     38  C   UNL A   1     -25.026   6.479  26.963  0.00  0.00    +0.139 C 
ATOM     39  O   UNL A   1     -25.143   3.966  28.243  0.00  0.00    -0.268 OA
ENDBRANCH   2  36
BRANCH  16  40
ATOM     40  C   UNL A   1     -24.855  -1.012  30.143  0.00  0.00    +0.070 C 
BRANCH  40  41
ATOM     41  C   UNL A   1     -24.973  -2.505  29.788  0.00  0.00    -0.018 C 
ATOM     42  C   UNL A   1     -23.906  -3.173  29.146  0.00  0.00    -0.004 C 
ATOM     43  C   UNL A   1     -23.989  -4.549  28.853  0.00  0.00    -0.000 C 
ATOM     44  C   UNL A   1     -25.137  -5.280  29.205  0.00  0.00    -0.000 C 
ATOM     45  C   UNL A   1     -26.232  -4.611  29.784  0.00  0.00    -0.000 C 
ATOM     46  C   UNL A   1     -26.155  -3.232  30.065  0.00  0.00    -0.004 C 
ENDBRANCH  40  41
BRANCH  40  47
ATOM     47  C   UNL A   1     -25.387  -0.679  31.571  0.00  0.00    +0.080 C 
ATOM     48  C   UNL A   1     -25.189   0.773  32.028  0.00  0.00    +0.019 C 
ATOM     49  C   UNL A   1     -25.336   0.684  33.544  0.00  0.00    +0.020 C 
ATOM     50  C   UNL A   1     -24.829  -0.715  33.905  0.00  0.00    +0.089 C 
ATOM     51  N   UNL A   1     -24.758  -1.481  32.646  0.00  0.00    -0.219 NA
ENDBRANCH  40  47
ENDBRANCH  16  40
TORSDOF 4
