MODEL 3880
MODEL 1
REMARK VINA RESULT:    -5.731      0.000      0.000
REMARK INTER + INTRA:          -7.206
REMARK INTER:                  -6.736
REMARK INTRA:                  -0.470
REMARK UNBOUND:                -0.470
REMARK  Name = No_3880-gen_results/8p0m/2024-11-27-11-27-31/
REMARK  3 active torsions:
REMARK  status: ('A' for Active; 'I' for Inactive)
REMARK    1  A    between atoms: C_1  and  C_2
REMARK    2  A    between atoms: C_1  and  C_8
REMARK    3  A    between atoms: C_5  and  C_12
REMARK                            x       y       z     vdW  Elec       q    Type
REMARK                         _______ _______ _______ _____ _____    ______ ____
ROOT
ATOM      1  C   UNL A   1     -22.632  -0.209  28.913  0.00  0.00    -0.014 A 
ATOM      2  C   UNL A   1     -21.707   0.692  28.389  0.00  0.00    -0.004 A 
ATOM      3  C   UNL A   1     -21.932   1.679  27.314  0.00  0.00    +0.001 A 
ATOM      4  C   UNL A   1     -23.166   1.555  26.606  0.00  0.00    +0.044 A 
ATOM      5  C   UNL A   1     -24.107   0.630  27.071  0.00  0.00    +0.001 A 
ATOM      6  C   UNL A   1     -23.880  -0.197  28.116  0.00  0.00    -0.004 A 
ENDROOT
BRANCH   4   7
ATOM      7  C   UNL A   1     -23.422   2.545  25.575  0.00  0.00    +0.341 C 
ATOM      8  F   UNL A   1     -23.829   3.633  26.009  0.00  0.00    -0.193 F 
ATOM      9  F   UNL A   1     -22.482   2.786  24.700  0.00  0.00    -0.193 F 
ENDBRANCH   4   7
BRANCH   1  10
ATOM     10  C   UNL A   1     -22.379  -0.986  29.805  0.00  0.00    +0.130 C 
BRANCH  10  11
ATOM     11  C   UNL A   1     -23.020  -0.587  31.114  0.00  0.00    +0.402 C 
ATOM     12  F   UNL A   1     -24.211  -1.261  31.307  0.00  0.00    -0.170 F 
ATOM     13  F   UNL A   1     -22.294  -1.021  32.144  0.00  0.00    -0.170 F 
ATOM     14  F   UNL A   1     -23.249   0.677  31.166  0.00  0.00    -0.170 F 
ENDBRANCH  10  11
ENDBRANCH   1  10
TORSDOF 3
ENDMDL
ENDMDL
