REMARK  Name = outputs/IAG933/test6/raw/output_3882_IAG933_linker_design_.xyz
REMARK  12 active torsions:
REMARK  status: ('A' for Active; 'I' for Inactive)
REMARK    1  A    between atoms: C_1  and  C_2
REMARK    2  A    between atoms: C_1  and  C_8
REMARK    3  A    between atoms: C_1  and  C_39
REMARK    4  A    between atoms: C_13  and  C_32
REMARK    5  A    between atoms: C_14  and  C_15
REMARK    6  A    between atoms: C_21  and  O_22
REMARK    7  A    between atoms: O_22  and  C_23
REMARK    8  A    between atoms: C_23  and  C_24
REMARK    9  A    between atoms: N_33  and  C_39
REMARK   10  A    between atoms: N_33  and  C_43
REMARK   11  A    between atoms: C_36  and  O_45
REMARK   12  A    between atoms: C_38  and  C_39
REMARK                            x       y       z     vdW  Elec       q    Type
REMARK                         _______ _______ _______ _____ _____    ______ ____
ROOT
ATOM      1  C   UNL A   1     -22.101   1.833  25.999  0.00  0.00    +0.252 C 
ATOM      2  N   UNL A   1     -22.279   0.122  29.233  0.00  0.00    -0.151 NA
ATOM      3  N   UNL A   1     -21.461   0.607  28.304  0.00  0.00    -0.149 NA
ATOM      4  C   UNL A   1     -24.308   1.461  26.613  0.00  0.00    +0.126 C 
ATOM      5  O   UNL A   1     -23.519   2.069  25.618  0.00  0.00    -0.473 OA
ATOM      6  C   UNL A   1     -23.504   0.405  28.754  0.00  0.00    +0.104 C 
ATOM      7  C   UNL A   1     -22.180   1.176  27.320  0.00  0.00    +0.128 C 
ATOM      8  C   UNL A   1     -23.476   1.038  27.555  0.00  0.00    +0.066 C 
ENDROOT
BRANCH   4   9
ATOM      9  C   UNL A   1     -25.688   1.614  26.461  0.00  0.00    +0.127 C 
ATOM     10  C   UNL A   1     -26.250   2.920  26.395  0.00  0.00    +0.062 C 
ATOM     11  C   UNL A   1     -27.438   3.091  25.645  0.00  0.00    +0.103 C 
ATOM     12  N   UNL A   1     -28.075   2.089  25.003  0.00  0.00    -0.212 NA
ATOM     13  C   UNL A   1     -27.543   0.849  25.079  0.00  0.00    +0.234 C 
ATOM     14  C   UNL A   1     -26.354   0.576  25.777  0.00  0.00    +0.247 C 
ATOM     15  F   UNL A   1     -25.860  -0.681  25.795  0.00  0.00    -0.226 F 
BRANCH  10  16
ATOM     16  C   UNL A   1     -25.642   4.093  27.123  0.00  0.00    +0.263 C 
ATOM     17  N   UNL A   1     -25.614   5.252  26.449  0.00  0.00    -0.200 NA
ATOM     18  C   UNL A   1     -25.026   6.479  26.963  0.00  0.00    +0.139 C 
ATOM     19  O   UNL A   1     -25.143   3.966  28.243  0.00  0.00    -0.269 OA
ENDBRANCH  10  16
BRANCH  13  20
ATOM     20  O   UNL A   1     -28.193  -0.208  24.477  0.00  0.00    -0.459 OA
BRANCH  20  21
ATOM     21  C   UNL A   1     -29.460   0.005  23.866  0.00  0.00    +0.242 C 
BRANCH  21  22
ATOM     22  C   UNL A   1     -30.065  -1.377  23.573  0.00  0.00    +0.229 C 
ATOM     23  O   UNL A   1     -30.729  -1.878  24.721  0.00  0.00    -0.216 OA
ENDBRANCH  21  22
ENDBRANCH  20  21
ENDBRANCH  13  20
ENDBRANCH   4   9
BRANCH   6  24
ATOM     24  C   UNL A   1     -24.887   0.092  29.225  0.00  0.00    +0.139 C 
BRANCH  24  25
ATOM     25  C   UNL A   1     -24.855  -1.012  30.143  0.00  0.00    +0.064 C 
BRANCH  25  26
ATOM     26  C   UNL A   1     -24.973  -2.505  29.788  0.00  0.00    -0.019 C 
ATOM     27  C   UNL A   1     -23.906  -3.173  29.146  0.00  0.00    -0.004 C 
ATOM     28  C   UNL A   1     -23.989  -4.549  28.853  0.00  0.00    -0.000 C 
ATOM     29  C   UNL A   1     -25.137  -5.280  29.205  0.00  0.00    -0.000 C 
ATOM     30  C   UNL A   1     -26.232  -4.611  29.784  0.00  0.00    -0.000 C 
ATOM     31  C   UNL A   1     -26.155  -3.232  30.065  0.00  0.00    -0.004 C 
ENDBRANCH  25  26
BRANCH  25  32
ATOM     32  C   UNL A   1     -25.387  -0.679  31.571  0.00  0.00    +0.079 C 
ATOM     33  C   UNL A   1     -25.189   0.773  32.028  0.00  0.00    +0.019 C 
ATOM     34  C   UNL A   1     -25.336   0.684  33.544  0.00  0.00    +0.020 C 
ATOM     35  C   UNL A   1     -24.829  -0.715  33.905  0.00  0.00    +0.089 C 
ATOM     36  N   UNL A   1     -24.758  -1.481  32.646  0.00  0.00    -0.219 NA
ENDBRANCH  25  32
ENDBRANCH  24  25
BRANCH  24  37
ATOM     37  N   UNL A   1     -26.037   0.991  29.123  0.00  0.00    -0.233 NA
BRANCH  37  42
ATOM     38  C   UNL A   1     -29.637  -0.179  28.005  0.00  0.00    +0.038 C 
ATOM     39  C   UNL A   1     -29.725   2.120  29.240  0.00  0.00    +0.038 C 
ATOM     40  C   UNL A   1     -30.394   1.046  28.465  0.00  0.00    +0.139 C 
ATOM     41  C   UNL A   1     -28.267   2.219  29.402  0.00  0.00    +0.019 C 
ATOM     42  C   UNL A   1     -27.514   0.967  29.092  0.00  0.00    +0.066 C 
ATOM     43  C   UNL A   1     -28.202  -0.190  28.316  0.00  0.00    +0.019 C 
BRANCH  40  45
ATOM     44  C   UNL A   1     -32.227   0.877  29.315  0.00  0.00    +0.253 C 
ATOM     45  O   UNL A   1     -31.564   1.188  28.137  0.00  0.00    -0.471 OA
ENDBRANCH  40  45
ENDBRANCH  37  42
ENDBRANCH  24  37
ENDBRANCH   6  24
TORSDOF 12
