MODEL 3882
MODEL 1
REMARK VINA RESULT:    -4.326      0.000      0.000
REMARK INTER + INTRA:          -4.326
REMARK INTER:                  -4.326
REMARK INTRA:                   0.000
REMARK UNBOUND:                 0.000
REMARK  Name = No_3882-gen_results/8p0m/2024-11-27-11-27-31/
REMARK  0 active torsions:
REMARK  status: ('A' for Active; 'I' for Inactive)
REMARK                            x       y       z     vdW  Elec       q    Type
REMARK                         _______ _______ _______ _____ _____    ______ ____
ROOT
ATOM      1  C   UNL A   1     -24.844  -2.742  29.591  0.00  0.00    +0.000 A 
ATOM      2  C   UNL A   1     -24.005  -3.234  28.873  0.00  0.00    +0.000 A 
ATOM      3  C   UNL A   1     -23.989  -4.569  28.519  0.00  0.00    +0.000 A 
ATOM      4  C   UNL A   1     -25.042  -5.399  28.997  0.00  0.00    +0.000 A 
ATOM      5  C   UNL A   1     -26.045  -4.769  29.653  0.00  0.00    +0.000 A 
ATOM      6  C   UNL A   1     -26.085  -3.570  29.692  0.00  0.00    +0.000 A 
ENDROOT
TORSDOF 0
ENDMDL
ENDMDL
