MODEL 3884
MODEL 1
REMARK VINA RESULT:    -6.687      0.000      0.000
REMARK INTER + INTRA:          -8.130
REMARK INTER:                  -7.469
REMARK INTRA:                  -0.662
REMARK UNBOUND:                -0.662
REMARK  Name = No_3884-gen_results/8p0m/2024-11-27-11-27-31/
REMARK  2 active torsions:
REMARK  status: ('A' for Active; 'I' for Inactive)
REMARK    1  A    between atoms: C_3  and  C_7
REMARK    2  A    between atoms: N_8  and  C_12
REMARK                            x       y       z     vdW  Elec       q    Type
REMARK                         _______ _______ _______ _____ _____    ______ ____
ROOT
ATOM      1  C   UNL A   1     -24.575  -0.171  29.997  0.00  0.00    +0.148 A 
ATOM      2  N   UNL A   1     -24.841  -1.136  29.215  0.00  0.00    -0.289 N 
ATOM      3  N   UNL A   1     -24.516   1.044  29.570  0.00  0.00    -0.225 NA
ATOM      4  C   UNL A   1     -24.850   0.904  28.218  0.00  0.00    +0.119 A 
ATOM      5  C   UNL A   1     -24.976  -0.438  27.948  0.00  0.00    +0.102 A 
ENDROOT
BRANCH   1   8
ATOM      6  C   UNL A   1     -23.203  -1.105  31.970  0.00  0.00    +0.003 A 
ATOM      7  C   UNL A   1     -23.222  -1.259  33.012  0.00  0.00    +0.000 A 
ATOM      8  C   UNL A   1     -24.428  -0.504  31.444  0.00  0.00    +0.035 A 
ATOM      9  C   UNL A   1     -25.481  -0.164  32.256  0.00  0.00    +0.003 A 
ATOM     10  C   UNL A   1     -24.169  -1.001  34.097  0.00  0.00    +0.000 A 
ATOM     11  C   UNL A   1     -25.359  -0.419  33.598  0.00  0.00    +0.000 A 
ENDBRANCH   1   8
BRANCH   2  12
ATOM     12  C   UNL A   1     -24.941  -2.509  29.303  0.00  0.00    +0.065 A 
ATOM     13  C   UNL A   1     -26.158  -3.134  29.685  0.00  0.00    +0.018 A 
ATOM     14  C   UNL A   1     -23.910  -3.325  28.687  0.00  0.00    +0.018 A 
ATOM     15  C   UNL A   1     -24.106  -4.737  28.610  0.00  0.00    +0.002 A 
ATOM     16  C   UNL A   1     -26.256  -4.529  29.686  0.00  0.00    +0.002 A 
ATOM     17  C   UNL A   1     -25.215  -5.303  29.152  0.00  0.00    +0.000 A 
ENDBRANCH   2  12
TORSDOF 2
ENDMDL
ENDMDL
