MODEL 3885
MODEL 1
REMARK VINA RESULT:    -6.519      0.000      0.000
REMARK INTER + INTRA:          -7.228
REMARK INTER:                  -6.900
REMARK INTRA:                  -0.328
REMARK UNBOUND:                -0.328
REMARK  Name = No_3885-gen_results/8p0m/2024-11-27-11-27-31/
REMARK  1 active torsions:
REMARK  status: ('A' for Active; 'I' for Inactive)
REMARK    1  A    between atoms: C_3  and  C_7
REMARK                            x       y       z     vdW  Elec       q    Type
REMARK                         _______ _______ _______ _____ _____    ______ ____
ROOT
ATOM      1  C   UNL A   1     -24.768  -4.999  28.935  0.00  0.00    +0.000 A 
ATOM      2  C   UNL A   1     -24.129  -3.998  28.708  0.00  0.00    +0.000 A 
ATOM      3  C   UNL A   1     -24.554  -2.716  29.055  0.00  0.00    +0.000 A 
ATOM      4  C   UNL A   1     -25.856  -2.546  29.671  0.00  0.00    +0.000 A 
ATOM      5  C   UNL A   1     -26.549  -3.758  29.897  0.00  0.00    +0.000 A 
ATOM      6  C   UNL A   1     -26.069  -4.919  29.529  0.00  0.00    +0.000 A 
ENDROOT
BRANCH   3   7
ATOM      7  C   UNL A   1     -23.819  -1.446  28.818  0.00  0.00    +0.000 A 
ATOM      8  C   UNL A   1     -22.561  -1.255  29.138  0.00  0.00    +0.000 A 
ATOM      9  C   UNL A   1     -21.893  -0.037  28.851  0.00  0.00    +0.000 A 
ATOM     10  C   UNL A   1     -22.493   0.838  27.897  0.00  0.00    +0.000 A 
ATOM     11  C   UNL A   1     -24.355  -0.481  27.901  0.00  0.00    +0.000 A 
ATOM     12  C   UNL A   1     -23.718   0.629  27.518  0.00  0.00    +0.000 A 
ENDBRANCH   3   7
TORSDOF 1
ENDMDL
ENDMDL
