MODEL 3886
MODEL 1
REMARK VINA RESULT:    -7.248      0.000      0.000
REMARK INTER + INTRA:          -9.655
REMARK INTER:                  -8.943
REMARK INTRA:                  -0.713
REMARK UNBOUND:                -0.713
REMARK  Name = No_3886-gen_results/8p0m/2024-11-27-11-27-31/
REMARK  4 active torsions:
REMARK  status: ('A' for Active; 'I' for Inactive)
REMARK    1  A    between atoms: C_3  and  C_14
REMARK    2  A    between atoms: C_16  and  N_20
REMARK    3  A    between atoms: N_20  and  C_21
REMARK    4  A    between atoms: C_21  and  C_22
REMARK                            x       y       z     vdW  Elec       q    Type
REMARK                         _______ _______ _______ _____ _____    ______ ____
ROOT
ATOM      1  C   UNL A   1      -5.886  -2.128  34.481  0.00  0.00    +0.003 A 
ATOM      2  C   UNL A   1      -6.968  -1.591  34.535  0.00  0.00    +0.000 A 
ATOM      3  C   UNL A   1      -7.219  -0.361  35.119  0.00  0.00    +0.000 A 
ATOM      4  C   UNL A   1      -6.104   0.334  35.672  0.00  0.00    +0.005 A 
ATOM      5  C   UNL A   1      -4.894  -0.222  35.462  0.00  0.00    +0.056 A 
ATOM      6  C   UNL A   1      -4.754  -1.376  34.805  0.00  0.00    +0.041 A 
ATOM      7  C   UNL A   1      -3.758   0.547  36.006  0.00  0.00    +0.249 C 
ATOM      8  O   UNL A   1      -3.741   1.118  37.055  0.00  0.00    -0.270 OA
ATOM      9  N   UNL A   1      -2.466   0.061  35.541  0.00  0.00    -0.267 N 
ATOM     10  C   UNL A   1      -2.280  -0.676  34.389  0.00  0.00    +0.163 C 
ATOM     11  C   UNL A   1      -3.344  -1.688  34.219  0.00  0.00    +0.193 C 
ATOM     12  O   UNL A   1      -3.218  -2.729  33.459  0.00  0.00    -0.289 OA
ATOM     13  C   UNL A   1      -1.225   0.753  36.052  0.00  0.00    +0.116 C 
ENDROOT
BRANCH   3  14
ATOM     14  C   UNL A   1      -8.633   0.109  35.435  0.00  0.00    +0.001 A 
ATOM     15  C   UNL A   1      -9.240  -0.352  36.508  0.00  0.00    +0.016 A 
ATOM     16  C   UNL A   1     -10.672   0.010  36.733  0.00  0.00    +0.066 A 
ATOM     17  C   UNL A   1     -11.193   1.020  35.910  0.00  0.00    +0.016 A 
ATOM     18  C   UNL A   1     -10.510   1.432  34.802  0.00  0.00    +0.001 A 
ATOM     19  C   UNL A   1      -9.229   1.036  34.564  0.00  0.00    +0.000 A 
BRANCH  16  20
ATOM     20  N   UNL A   1     -11.349  -0.402  37.847  0.00  0.00    -0.232 NA
BRANCH  20  21
ATOM     21  C   UNL A   1     -11.003  -1.345  38.633  0.00  0.00    +0.184 C 
BRANCH  21  22
ATOM     22  C   UNL A   1     -11.861  -2.559  38.303  0.00  0.00    +0.340 C 
ATOM     23  F   UNL A   1     -11.707  -2.996  37.201  0.00  0.00    -0.196 F 
ATOM     24  F   UNL A   1     -12.616  -2.929  39.187  0.00  0.00    -0.196 F 
ENDBRANCH  21  22
ENDBRANCH  20  21
ENDBRANCH  16  20
ENDBRANCH   3  14
TORSDOF 4
ENDMDL
ENDMDL
