REMARK  Name = No_3886-gen_results/8p0m/2024-11-27-11-27-31/
REMARK  4 active torsions:
REMARK  status: ('A' for Active; 'I' for Inactive)
REMARK    1  A    between atoms: C_3  and  C_14
REMARK    2  A    between atoms: C_16  and  N_20
REMARK    3  A    between atoms: N_20  and  C_21
REMARK    4  A    between atoms: C_21  and  C_22
REMARK                            x       y       z     vdW  Elec       q    Type
REMARK                         _______ _______ _______ _____ _____    ______ ____
ROOT
ATOM      1  C   UNL A   1     -28.016  -0.814  28.878  0.00  0.00    +0.003 A 
ATOM      2  C   UNL A   1     -27.064  -0.119  28.608  0.00  0.00    +0.000 A 
ATOM      3  C   UNL A   1     -26.972   0.714  27.506  0.00  0.00    +0.000 A 
ATOM      4  C   UNL A   1     -28.105   0.774  26.642  0.00  0.00    +0.005 A 
ATOM      5  C   UNL A   1     -29.201   0.104  27.053  0.00  0.00    +0.056 A 
ATOM      6  C   UNL A   1     -29.210  -0.603  28.185  0.00  0.00    +0.041 A 
ATOM      7  C   UNL A   1     -30.370   0.226  26.160  0.00  0.00    +0.249 C 
ATOM      8  O   UNL A   1     -30.339   0.216  24.966  0.00  0.00    -0.270 OA
ATOM      9  N   UNL A   1     -31.597  -0.285  26.755  0.00  0.00    -0.267 N 
ATOM     10  C   UNL A   1     -31.807  -0.418  28.113  0.00  0.00    +0.163 C 
ATOM     11  C   UNL A   1     -30.604  -0.939  28.796  0.00  0.00    +0.193 C 
ATOM     12  O   UNL A   1     -30.638  -1.498  29.963  0.00  0.00    -0.289 OA
ATOM     13  C   UNL A   1     -32.857  -0.240  25.925  0.00  0.00    +0.116 C 
ENDROOT
BRANCH   3  14
ATOM     14  C   UNL A   1     -25.646   1.311  27.052  0.00  0.00    +0.001 A 
ATOM     15  C   UNL A   1     -24.556   1.059  27.745  0.00  0.00    +0.016 A 
ATOM     16  C   UNL A   1     -23.291   1.760  27.370  0.00  0.00    +0.066 A 
ATOM     17  C   UNL A   1     -23.302   2.448  26.147  0.00  0.00    +0.016 A 
ATOM     18  C   UNL A   1     -24.478   2.686  25.497  0.00  0.00    +0.001 A 
ATOM     19  C   UNL A   1     -25.644   2.103  25.892  0.00  0.00    +0.000 A 
BRANCH  16  20
ATOM     20  N   UNL A   1     -22.115   1.513  28.023  0.00  0.00    -0.232 NA
BRANCH  20  21
ATOM     21  C   UNL A   1     -21.096   0.917  27.541  0.00  0.00    +0.184 C 
BRANCH  21  22
ATOM     22  C   UNL A   1     -20.653  -0.131  28.554  0.00  0.00    +0.340 C 
ATOM     23  F   UNL A   1     -20.983   0.092  29.681  0.00  0.00    -0.196 F 
ATOM     24  F   UNL A   1     -19.999  -1.057  28.104  0.00  0.00    -0.196 F 
ENDBRANCH  21  22
ENDBRANCH  20  21
ENDBRANCH  16  20
ENDBRANCH   3  14
TORSDOF 4
