REMARK  Name = No_3887-gen_results/8p0m/2024-11-27-11-27-31/
REMARK  3 active torsions:
REMARK  status: ('A' for Active; 'I' for Inactive)
REMARK    1  A    between atoms: C_2  and  C_3
REMARK    2  A    between atoms: C_3  and  C_4
REMARK    3  A    between atoms: C_5  and  C_6
REMARK                            x       y       z     vdW  Elec       q    Type
REMARK                         _______ _______ _______ _____ _____    ______ ____
ROOT
ATOM      1  C   UNL A   1     -27.174   0.733  28.825  0.00  0.00    +0.072 C 
ENDROOT
BRANCH   1   3
ATOM      2  N   UNL A   1     -28.054  -1.050  28.725  0.00  0.00    -0.248 NA
ATOM      3  C   UNL A   1     -27.746  -0.073  29.010  0.00  0.00    +0.063 A 
ATOM      4  C   UNL A   1     -28.341   0.080  30.459  0.00  0.00    +0.015 A 
ATOM      5  C   UNL A   1     -29.249  -0.851  30.976  0.00  0.00    +0.003 A 
ATOM      6  C   UNL A   1     -29.467  -1.993  30.318  0.00  0.00    +0.021 A 
ATOM      7  C   UNL A   1     -28.766  -2.103  29.237  0.00  0.00    +0.099 A 
ENDBRANCH   1   3
BRANCH   1   8
ATOM      8  C   UNL A   1     -26.336   1.398  28.535  0.00  0.00    -0.016 C 
ATOM      9  C   UNL A   1     -25.216   1.956  28.040  0.00  0.00    +0.071 C 
BRANCH   9  10
ATOM     10  C   UNL A   1     -23.942   1.582  28.224  0.00  0.00    +0.418 C 
ATOM     11  F   UNL A   1     -23.457   1.683  29.355  0.00  0.00    -0.166 F 
ATOM     12  F   UNL A   1     -23.640   0.376  27.686  0.00  0.00    -0.166 F 
ATOM     13  F   UNL A   1     -23.075   2.401  27.407  0.00  0.00    -0.166 F 
ENDBRANCH   9  10
ENDBRANCH   1   8
TORSDOF 3
