MODEL 3887
MODEL 1
REMARK VINA RESULT:    -5.878      0.000      0.000
REMARK INTER + INTRA:          -7.267
REMARK INTER:                  -6.909
REMARK INTRA:                  -0.358
REMARK UNBOUND:                -0.358
REMARK  Name = No_3887-gen_results/8p0m/2024-11-27-11-27-31/
REMARK  3 active torsions:
REMARK  status: ('A' for Active; 'I' for Inactive)
REMARK    1  A    between atoms: C_2  and  C_3
REMARK    2  A    between atoms: C_3  and  C_4
REMARK    3  A    between atoms: C_5  and  C_6
REMARK                            x       y       z     vdW  Elec       q    Type
REMARK                         _______ _______ _______ _____ _____    ______ ____
ROOT
ATOM      1  C   UNL A   1     -23.484  -1.840  29.041  0.00  0.00    +0.072 C 
ENDROOT
BRANCH   1   3
ATOM      2  N   UNL A   1     -23.726  -3.793  28.738  0.00  0.00    -0.248 NA
ATOM      3  C   UNL A   1     -23.869  -2.766  28.976  0.00  0.00    +0.063 A 
ATOM      4  C   UNL A   1     -25.261  -2.762  29.711  0.00  0.00    +0.015 A 
ATOM      5  C   UNL A   1     -26.083  -3.895  29.721  0.00  0.00    +0.003 A 
ATOM      6  C   UNL A   1     -25.604  -5.060  29.277  0.00  0.00    +0.021 A 
ATOM      7  C   UNL A   1     -24.373  -4.991  28.885  0.00  0.00    +0.099 A 
ENDBRANCH   1   3
BRANCH   1   8
ATOM      8  C   UNL A   1     -22.843  -0.944  28.918  0.00  0.00    -0.016 C 
ATOM      9  C   UNL A   1     -22.331   0.289  28.745  0.00  0.00    +0.071 C 
BRANCH   9  10
ATOM     10  C   UNL A   1     -22.520   1.139  27.726  0.00  0.00    +0.418 C 
ATOM     11  F   UNL A   1     -21.529   1.623  27.173  0.00  0.00    -0.166 F 
ATOM     12  F   UNL A   1     -23.411   0.702  26.804  0.00  0.00    -0.166 F 
ATOM     13  F   UNL A   1     -23.250   2.297  28.192  0.00  0.00    -0.166 F 
ENDBRANCH   9  10
ENDBRANCH   1   8
TORSDOF 3
ENDMDL
ENDMDL
