MODEL 3888
MODEL 1
REMARK VINA RESULT:    -5.575      0.000      0.000
REMARK INTER + INTRA:          -5.970
REMARK INTER:                  -5.901
REMARK INTRA:                  -0.069
REMARK UNBOUND:                -0.069
REMARK  Name = No_3888-gen_results/8p0m/2024-11-27-11-27-31/
REMARK  1 active torsions:
REMARK  status: ('A' for Active; 'I' for Inactive)
REMARK    1  A    between atoms: C_4  and  C_7
REMARK                            x       y       z     vdW  Elec       q    Type
REMARK                         _______ _______ _______ _____ _____    ______ ____
ROOT
ATOM      1  C   UNL A   1     -26.628  -3.949  29.919  0.00  0.00    +0.068 C 
ATOM      2  C   UNL A   1     -26.196  -4.852  29.590  0.00  0.00    +0.008 C 
ATOM      3  C   UNL A   1     -25.762  -2.759  29.897  0.00  0.00    +0.188 C 
ATOM      4  C   UNL A   1     -24.459  -2.821  29.323  0.00  0.00    +0.270 C 
ATOM      5  C   UNL A   1     -24.056  -4.055  28.879  0.00  0.00    +0.049 C 
ATOM      6  C   UNL A   1     -24.883  -5.120  28.947  0.00  0.00    +0.004 C 
ATOM      7  F   UNL A   1     -24.649  -2.430  28.352  0.00  0.00    -0.224 F 
ATOM      8  O   UNL A   1     -26.125  -1.642  30.552  0.00  0.00    -0.293 OA
ENDROOT
BRANCH   4   9
ATOM      9  C   UNL A   1     -23.605  -1.662  29.276  0.00  0.00    +0.431 C 
ATOM     10  F   UNL A   1     -22.478  -1.948  28.715  0.00  0.00    -0.167 F 
ATOM     11  F   UNL A   1     -24.128  -0.679  28.507  0.00  0.00    -0.167 F 
ATOM     12  F   UNL A   1     -23.324  -1.106  30.459  0.00  0.00    -0.167 F 
ENDBRANCH   4   9
TORSDOF 1
ENDMDL
ENDMDL
