REMARK  Name = outputs/IAG933/test6/raw/output_3889_IAG933_linker_design_.xyz
REMARK  12 active torsions:
REMARK  status: ('A' for Active; 'I' for Inactive)
REMARK    1  A    between atoms: C_1  and  C_2
REMARK    2  A    between atoms: C_1  and  C_8
REMARK    3  A    between atoms: C_1  and  N_29
REMARK    4  A    between atoms: C_13  and  C_35
REMARK    5  A    between atoms: C_14  and  C_15
REMARK    6  A    between atoms: C_21  and  O_22
REMARK    7  A    between atoms: O_22  and  C_23
REMARK    8  A    between atoms: C_23  and  C_24
REMARK    9  A    between atoms: C_28  and  C_31
REMARK   10  A    between atoms: C_31  and  C_37
REMARK   11  A    between atoms: C_32  and  O_40
REMARK   12  A    between atoms: C_37  and  O_40
REMARK                            x       y       z     vdW  Elec       q    Type
REMARK                         _______ _______ _______ _____ _____    ______ ____
ROOT
ATOM      1  N   UNL A   1     -24.467  -0.054  29.158  0.00  0.00    -0.244 NA
ATOM      2  C   UNL A   1     -22.979   0.030  28.830  0.00  0.00    +0.093 C 
ATOM      3  C   UNL A   1     -25.167   0.756  28.451  0.00  0.00    +0.197 C 
ATOM      4  N   UNL A   1     -23.290   1.798  26.921  0.00  0.00    -0.190 NA
ATOM      5  C   UNL A   1     -24.469   1.163  27.516  0.00  0.00    +0.141 C 
ATOM      6 CL   UNL A   1     -22.744   2.358  25.303  0.00  0.00    -0.019 Cl
ATOM      7  C   UNL A   1     -22.342   1.185  27.898  0.00  0.00    +0.107 C 
ENDROOT
BRANCH   5   8
ATOM      8  C   UNL A   1     -25.688   1.614  26.461  0.00  0.00    +0.035 C 
ATOM      9  C   UNL A   1     -26.250   2.920  26.395  0.00  0.00    +0.074 C 
ATOM     10  C   UNL A   1     -27.438   3.091  25.645  0.00  0.00    +0.106 C 
ATOM     11  N   UNL A   1     -28.075   2.089  25.003  0.00  0.00    -0.208 NA
ATOM     12  C   UNL A   1     -27.543   0.849  25.079  0.00  0.00    +0.253 C 
ATOM     13  C   UNL A   1     -26.354   0.576  25.777  0.00  0.00    +0.191 C 
ATOM     14  F   UNL A   1     -25.860  -0.681  25.795  0.00  0.00    -0.200 F 
BRANCH   9  15
ATOM     15  C   UNL A   1     -25.642   4.093  27.123  0.00  0.00    +0.266 C 
ATOM     16  N   UNL A   1     -25.614   5.252  26.449  0.00  0.00    -0.200 NA
ATOM     17  C   UNL A   1     -25.026   6.479  26.963  0.00  0.00    +0.139 C 
ATOM     18  O   UNL A   1     -25.143   3.966  28.243  0.00  0.00    -0.268 OA
ENDBRANCH   9  15
BRANCH  12  19
ATOM     19  O   UNL A   1     -28.193  -0.208  24.477  0.00  0.00    -0.456 OA
BRANCH  19  20
ATOM     20  C   UNL A   1     -29.460   0.005  23.866  0.00  0.00    +0.243 C 
BRANCH  20  21
ATOM     21  C   UNL A   1     -30.065  -1.377  23.573  0.00  0.00    +0.229 C 
ATOM     22  O   UNL A   1     -30.729  -1.878  24.721  0.00  0.00    -0.216 OA
ENDBRANCH  20  21
ENDBRANCH  19  20
ENDBRANCH  12  19
ENDBRANCH   5   8
BRANCH   1  23
ATOM     23  C   UNL A   1     -24.855  -1.012  30.143  0.00  0.00    +0.098 C 
BRANCH  23  24
ATOM     24  C   UNL A   1     -24.973  -2.505  29.788  0.00  0.00    -0.006 C 
ATOM     25  C   UNL A   1     -23.906  -3.173  29.146  0.00  0.00    -0.003 C 
ATOM     26  C   UNL A   1     -23.989  -4.549  28.853  0.00  0.00    -0.000 C 
ATOM     27  C   UNL A   1     -25.137  -5.280  29.205  0.00  0.00    -0.000 C 
ATOM     28  C   UNL A   1     -26.232  -4.611  29.784  0.00  0.00    -0.000 C 
ATOM     29  C   UNL A   1     -26.155  -3.232  30.065  0.00  0.00    -0.003 C 
ENDBRANCH  23  24
BRANCH  23  30
ATOM     30  C   UNL A   1     -25.387  -0.679  31.571  0.00  0.00    +0.092 C 
ATOM     31  C   UNL A   1     -25.189   0.773  32.028  0.00  0.00    +0.021 C 
ATOM     32  C   UNL A   1     -25.336   0.684  33.544  0.00  0.00    +0.020 C 
ATOM     33  C   UNL A   1     -24.829  -0.715  33.905  0.00  0.00    +0.089 C 
ATOM     34  N   UNL A   1     -24.758  -1.481  32.646  0.00  0.00    -0.218 NA
ENDBRANCH  23  30
ENDBRANCH   1  23
BRANCH   3  35
ATOM     35  O   UNL A   1     -26.577   0.343  28.299  0.00  0.00    -0.336 OA
BRANCH  35  36
ATOM     36  C   UNL A   1     -27.548  -0.339  29.477  0.00  0.00    +0.186 C 
BRANCH  36  37
ATOM     37  C   UNL A   1     -29.097  -0.811  29.672  0.00  0.00    +0.257 C 
ATOM     38  O   UNL A   1     -29.930  -2.159  30.088  0.00  0.00    -0.210 OA
BRANCH  37  39
ATOM     39  C   UNL A   1     -30.009  -0.160  28.448  0.00  0.00    +0.259 C 
ATOM     40  O   UNL A   1     -30.667  -0.831  27.615  0.00  0.00    -0.272 OA
ATOM     41  C   UNL A   1     -30.932   1.143  29.847  0.00  0.00    +0.115 C 
ATOM     42  C   UNL A   1     -28.841   2.032  28.817  0.00  0.00    +0.115 C 
ATOM     43  N   UNL A   1     -30.026   1.248  28.789  0.00  0.00    -0.274 N 
ENDBRANCH  37  39
ENDBRANCH  36  37
ENDBRANCH  35  36
ENDBRANCH   3  35
TORSDOF 12
