MODEL 388
MODEL 1
REMARK VINA RESULT:    -7.215      0.000      0.000
REMARK INTER + INTRA:         -11.900
REMARK INTER:                  -9.746
REMARK INTRA:                  -2.154
REMARK UNBOUND:                -2.154
REMARK  Name = No_388-gen_results/8p0m/2024-11-27-11-27-31/
REMARK  6 active torsions:
REMARK  status: ('A' for Active; 'I' for Inactive)
REMARK    1  A    between atoms: C_3  and  C_4
REMARK    2  A    between atoms: C_4  and  C_8
REMARK    3  A    between atoms: C_8  and  C_18
REMARK    4  A    between atoms: C_9  and  C_10
REMARK    5  A    between atoms: C_11  and  C_12
REMARK    6  A    between atoms: C_18  and  C_20
REMARK                            x       y       z     vdW  Elec       q    Type
REMARK                         _______ _______ _______ _____ _____    ______ ____
ROOT
ATOM      1  C   UNL A   1     -23.361  -0.609  29.956  0.00  0.00    -0.036 C 
ATOM      2  C   UNL A   1     -22.981  -0.556  31.282  0.00  0.00    -0.008 C 
ENDROOT
BRANCH   2   3
ATOM      3  C   UNL A   1     -23.843  -1.051  32.258  0.00  0.00    -0.001 C 
ATOM      4  C   UNL A   1     -24.513  -0.657  33.003  0.00  0.00    -0.000 C 
BRANCH   4   5
ATOM      5  C   UNL A   1     -25.468  -0.059  33.287  0.00  0.00    -0.000 A 
ATOM      6  C   UNL A   1     -25.720   1.332  33.393  0.00  0.00    -0.000 A 
ATOM      7  C   UNL A   1     -26.685   2.120  32.789  0.00  0.00    +0.000 A 
ATOM      8  C   UNL A   1     -27.905   1.412  32.567  0.00  0.00    +0.000 A 
ATOM      9  C   UNL A   1     -27.934  -0.009  32.570  0.00  0.00    +0.000 A 
ATOM     10  C   UNL A   1     -26.834  -0.662  32.703  0.00  0.00    -0.000 A 
ENDBRANCH   4   5
ENDBRANCH   2   3
BRANCH   1  11
ATOM     11  C   UNL A   1     -22.553  -0.096  28.855  0.00  0.00    +0.040 C 
ATOM     12  C   UNL A   1     -21.263  -0.409  28.848  0.00  0.00    +0.009 C 
BRANCH  11  13
ATOM     13  C   UNL A   1     -23.177   0.514  27.750  0.00  0.00    -0.027 C 
ATOM     14  C   UNL A   1     -22.562   1.618  27.195  0.00  0.00    -0.030 C 
ATOM     15  C   UNL A   1     -23.152   2.271  26.006  0.00  0.00    +0.030 C 
ENDBRANCH  11  13
ENDBRANCH   1  11
BRANCH   1  16
ATOM     16  C   UNL A   1     -24.701  -1.088  29.665  0.00  0.00    +0.049 C 
BRANCH  16  19
ATOM     17  C   UNL A   1     -23.795  -3.410  28.807  0.00  0.00    -0.004 A 
ATOM     18  C   UNL A   1     -24.107  -4.402  28.635  0.00  0.00    -0.000 A 
ATOM     19  C   UNL A   1     -24.822  -2.510  29.457  0.00  0.00    -0.018 A 
ATOM     20  C   UNL A   1     -25.278  -5.156  29.101  0.00  0.00    -0.000 A 
ATOM     21  C   UNL A   1     -26.250  -4.406  29.729  0.00  0.00    -0.000 A 
ATOM     22  C   UNL A   1     -26.051  -3.070  29.960  0.00  0.00    -0.004 A 
ENDBRANCH  16  19
ENDBRANCH   1  16
TORSDOF 6
ENDMDL
ENDMDL
