REMARK  Name = No_389-gen_results/8p0m/2024-11-27-11-27-31/
REMARK  3 active torsions:
REMARK  status: ('A' for Active; 'I' for Inactive)
REMARK    1  A    between atoms: C_2  and  C_7
REMARK    2  A    between atoms: C_6  and  CA_13
REMARK    3  A    between atoms: CA_13  and  C_15
REMARK                            x       y       z     vdW  Elec       q    Type
REMARK                         _______ _______ _______ _____ _____    ______ ____
ROOT
ATOM      1  C   UNL A   1     -28.016  -0.814  28.878  0.00  0.00    -0.003 A 
ATOM      2  C   UNL A   1     -27.064  -0.119  28.608  0.00  0.00    -0.000 A 
ATOM      3  C   UNL A   1     -25.792  -0.430  29.076  0.00  0.00    -0.000 A 
ATOM      4  C   UNL A   1     -25.576  -1.565  29.936  0.00  0.00    -0.000 A 
ATOM      5  C   UNL A   1     -26.735  -2.300  30.217  0.00  0.00    -0.003 A 
ATOM      6  C   UNL A   1     -27.918  -1.954  29.763  0.00  0.00    -0.002 A 
ENDROOT
BRANCH   2   7
ATOM      7  C   UNL A   1     -27.106   1.102  27.759  0.00  0.00    -0.000 A 
ATOM      8  C   UNL A   1     -26.716   2.235  27.994  0.00  0.00    -0.000 A 
ATOM      9  C   UNL A   1     -26.693   3.346  27.034  0.00  0.00    -0.000 A 
ATOM     10  C   UNL A   1     -27.196   3.078  25.744  0.00  0.00    +0.000 A 
ATOM     11  C   UNL A   1     -27.581   0.888  26.371  0.00  0.00    -0.000 A 
ATOM     12  C   UNL A   1     -27.613   1.844  25.465  0.00  0.00    -0.000 A 
ENDBRANCH   2   7
BRANCH   6  13
ATOM     13  CA  UNL A   1     -29.059  -2.781  30.218  0.00  0.00    +0.147 C 
ATOM     14  N   UNL A   1     -28.949  -4.055  30.542  0.00  0.00    -0.125 NA
BRANCH  13  15
ATOM     15  C   UNL A   1     -30.363  -2.198  30.283  0.00  0.00    +0.205 C 
ATOM     16  O   UNL A   1     -30.575  -1.032  30.240  0.00  0.00    -0.218 OA
ENDBRANCH  13  15
ENDBRANCH   6  13
TORSDOF 3
