MODEL 3890
MODEL 1
REMARK VINA RESULT:    -6.090      0.000      0.000
REMARK INTER + INTRA:          -6.313
REMARK INTER:                  -6.446
REMARK INTRA:                   0.133
REMARK UNBOUND:                 0.133
REMARK  Name = No_3890-gen_results/8p0m/2024-11-27-11-27-31/
REMARK  1 active torsions:
REMARK  status: ('A' for Active; 'I' for Inactive)
REMARK    1  A    between atoms: C_7  and  C_11
REMARK                            x       y       z     vdW  Elec       q    Type
REMARK                         _______ _______ _______ _____ _____    ______ ____
ROOT
ATOM      1  C   UNL A   1     -28.671 -12.017  30.584  0.00  0.00    +0.000 A 
ATOM      2  C   UNL A   1     -28.866 -11.111  31.361  0.00  0.00    +0.004 A 
ATOM      3  C   UNL A   1     -29.806 -10.104  31.152  0.00  0.00    +0.000 A 
ATOM      4  C   UNL A   1     -30.101  -8.960  32.037  0.00  0.00    +0.000 A 
ATOM      5  C   UNL A   1     -29.500  -9.006  33.332  0.00  0.00    +0.000 A 
ATOM      6  C   UNL A   1     -28.603 -10.074  33.582  0.00  0.00    +0.005 A 
ATOM      7  C   UNL A   1     -28.319 -11.035  32.701  0.00  0.00    +0.057 A 
ATOM      8  C   UNL A   1     -28.965 -11.780  29.124  0.00  0.00    +0.000 A 
ATOM      9  C   UNL A   1     -30.088 -10.928  28.843  0.00  0.00    +0.000 A 
ATOM     10  C   UNL A   1     -30.405  -9.948  29.804  0.00  0.00    +0.000 A 
ENDROOT
BRANCH   7  11
ATOM     11  C   UNL A   1     -27.443 -12.128  33.178  0.00  0.00    +0.284 C 
ATOM     12  O   UNL A   1     -26.447 -12.457  32.676  0.00  0.00    -0.267 OA
ATOM     13  N   UNL A   1     -27.569 -12.457  34.524  0.00  0.00    -0.084 NA
ENDBRANCH   7  11
TORSDOF 1
ENDMDL
ENDMDL
