REMARK  Name = outputs/IAG933/test6/raw/output_3891_IAG933_linker_design_.xyz
REMARK  15 active torsions:
REMARK  status: ('A' for Active; 'I' for Inactive)
REMARK    1  A    between atoms: C_1  and  C_2
REMARK    2  A    between atoms: C_1  and  C_8
REMARK    3  A    between atoms: C_1  and  N_39
REMARK    4  A    between atoms: C_13  and  N_42
REMARK    5  A    between atoms: C_14  and  C_15
REMARK    6  A    between atoms: C_21  and  O_22
REMARK    7  A    between atoms: O_22  and  C_23
REMARK    8  A    between atoms: C_23  and  C_24
REMARK    9  A    between atoms: C_29  and  O_31
REMARK   10  A    between atoms: C_29  and  N_42
REMARK   11  A    between atoms: C_33  and  C_35
REMARK   12  A    between atoms: C_35  and  N_39
REMARK   13  A    between atoms: C_36  and  N_39
REMARK   14  A    between atoms: C_36  and  N_42
REMARK   15  A    between atoms: O_43  and  C_44
REMARK                            x       y       z     vdW  Elec       q    Type
REMARK                         _______ _______ _______ _____ _____    ______ ____
ROOT
ATOM      1  N   UNL A   1     -25.624  -0.214  29.127  0.00  0.00    -0.251 NA
ENDROOT
BRANCH   1   2
ATOM      2  C   UNL A   1     -24.855  -1.012  30.143  0.00  0.00    +0.098 C 
BRANCH   2   3
ATOM      3  C   UNL A   1     -24.973  -2.505  29.788  0.00  0.00    -0.006 C 
ATOM      4  C   UNL A   1     -23.906  -3.173  29.146  0.00  0.00    -0.003 C 
ATOM      5  C   UNL A   1     -23.989  -4.549  28.853  0.00  0.00    -0.000 C 
ATOM      6  C   UNL A   1     -25.137  -5.280  29.205  0.00  0.00    -0.000 C 
ATOM      7  C   UNL A   1     -26.232  -4.611  29.784  0.00  0.00    -0.000 C 
ATOM      8  C   UNL A   1     -26.155  -3.232  30.065  0.00  0.00    -0.003 C 
ENDBRANCH   2   3
BRANCH   2   9
ATOM      9  C   UNL A   1     -25.387  -0.679  31.571  0.00  0.00    +0.092 C 
ATOM     10  C   UNL A   1     -25.189   0.773  32.028  0.00  0.00    +0.021 C 
ATOM     11  C   UNL A   1     -25.336   0.684  33.544  0.00  0.00    +0.020 C 
ATOM     12  C   UNL A   1     -24.829  -0.715  33.905  0.00  0.00    +0.089 C 
ATOM     13  N   UNL A   1     -24.758  -1.481  32.646  0.00  0.00    -0.218 NA
ENDBRANCH   2   9
ENDBRANCH   1   2
BRANCH   1  14
ATOM     14  C   UNL A   1     -27.113  -0.356  28.807  0.00  0.00    +0.104 C 
BRANCH  14  18
ATOM     15  O   UNL A   1     -29.941  -0.041  27.928  0.00  0.00    -0.284 OA
ATOM     16  C   UNL A   1     -28.318   2.596  30.819  0.00  0.00    +0.003 C 
ATOM     17  C   UNL A   1     -29.440   0.657  28.977  0.00  0.00    +0.227 C 
ATOM     18  C   UNL A   1     -28.032   0.799  29.159  0.00  0.00    +0.036 C 
ATOM     19  C   UNL A   1     -27.494   1.916  29.861  0.00  0.00    +0.001 C 
ATOM     20  C   UNL A   1     -29.717   2.276  30.832  0.00  0.00    +0.040 C 
ATOM     21  C   UNL A   1     -30.279   1.492  29.859  0.00  0.00    +0.177 C 
BRANCH  21  23
ATOM     22  C   UNL A   1     -32.529   2.398  30.293  0.00  0.00    +0.253 C 
ATOM     23  O   UNL A   1     -31.630   1.536  29.567  0.00  0.00    -0.468 OA
ENDBRANCH  21  23
ENDBRANCH  14  18
ENDBRANCH   1  14
BRANCH   1  24
ATOM     24  C   UNL A   1     -25.145   1.126  28.821  0.00  0.00    +0.152 C 
BRANCH  24  25
ATOM     25  N   UNL A   1     -24.686   1.197  27.485  0.00  0.00    -0.231 NA
BRANCH  25  26
ATOM     26  C   UNL A   1     -25.688   1.614  26.461  0.00  0.00    +0.131 C 
ATOM     27  C   UNL A   1     -26.250   2.920  26.395  0.00  0.00    +0.070 C 
ATOM     28  C   UNL A   1     -27.438   3.091  25.645  0.00  0.00    +0.103 C 
ATOM     29  N   UNL A   1     -28.075   2.089  25.003  0.00  0.00    -0.212 NA
ATOM     30  C   UNL A   1     -27.543   0.849  25.079  0.00  0.00    +0.235 C 
ATOM     31  C   UNL A   1     -26.354   0.576  25.777  0.00  0.00    +0.255 C 
ATOM     32  F   UNL A   1     -25.860  -0.681  25.795  0.00  0.00    -0.225 F 
BRANCH  27  33
ATOM     33  C   UNL A   1     -25.642   4.093  27.123  0.00  0.00    +0.264 C 
ATOM     34  N   UNL A   1     -25.614   5.252  26.449  0.00  0.00    -0.200 NA
ATOM     35  C   UNL A   1     -25.026   6.479  26.963  0.00  0.00    +0.139 C 
ATOM     36  O   UNL A   1     -25.143   3.966  28.243  0.00  0.00    -0.269 OA
ENDBRANCH  27  33
BRANCH  30  37
ATOM     37  O   UNL A   1     -28.193  -0.208  24.477  0.00  0.00    -0.459 OA
BRANCH  37  38
ATOM     38  C   UNL A   1     -29.460   0.005  23.866  0.00  0.00    +0.242 C 
BRANCH  38  39
ATOM     39  C   UNL A   1     -30.065  -1.377  23.573  0.00  0.00    +0.229 C 
ATOM     40  O   UNL A   1     -30.729  -1.878  24.721  0.00  0.00    -0.216 OA
ENDBRANCH  38  39
ENDBRANCH  37  38
ENDBRANCH  30  37
ENDBRANCH  25  26
BRANCH  25  41
ATOM     41  C   UNL A   1     -23.365   0.988  27.269  0.00  0.00    +0.178 C 
ATOM     42  C   UNL A   1     -22.539   1.973  26.368  0.00  0.00    +0.051 C 
BRANCH  41  43
ATOM     43  O   UNL A   1     -22.599   0.263  28.261  0.00  0.00    -0.338 OA
ATOM     44  C   UNL A   1     -21.334   1.012  28.487  0.00  0.00    +0.176 C 
ENDBRANCH  41  43
ENDBRANCH  25  41
ENDBRANCH  24  25
ENDBRANCH   1  24
TORSDOF 15
