REMARK  Name = outputs/IAG933/test6/raw/output_3892_IAG933_linker_design_.xyz
REMARK  4 active torsions:
REMARK  status: ('A' for Active; 'I' for Inactive)
REMARK    1  A    between atoms: C_1  and  C_2
REMARK    2  A    between atoms: C_1  and  C_8
REMARK    3  A    between atoms: C_1  and  C_35
REMARK    4  A    between atoms: C_14  and  C_15
REMARK                            x       y       z     vdW  Elec       q    Type
REMARK                         _______ _______ _______ _____ _____    ______ ____
ROOT
ATOM      1  C   UNL A   1     -25.688   1.614  26.461  0.00  0.00    +0.017 C 
ATOM      2  C   UNL A   1     -26.250   2.920  26.395  0.00  0.00    +0.073 C 
ATOM      3  C   UNL A   1     -27.438   3.091  25.645  0.00  0.00    +0.106 C 
ATOM      4  N   UNL A   1     -28.075   2.089  25.003  0.00  0.00    -0.208 NA
ATOM      5  C   UNL A   1     -27.543   0.849  25.079  0.00  0.00    +0.253 C 
ATOM      6  O   UNL A   1     -28.193  -0.208  24.477  0.00  0.00    -0.456 OA
ATOM      7  C   UNL A   1     -29.460   0.005  23.866  0.00  0.00    +0.244 C 
ATOM      8  C   UNL A   1     -30.065  -1.377  23.573  0.00  0.00    +0.243 C 
ATOM      9  O   UNL A   1     -30.729  -1.878  24.721  0.00  0.00    -0.166 OA
ATOM     10  C   UNL A   1     -26.354   0.576  25.777  0.00  0.00    +0.189 C 
ATOM     11  F   UNL A   1     -25.860  -0.681  25.795  0.00  0.00    -0.200 F 
ATOM     12  C   UNL A   1     -31.459  -0.655  26.509  0.00  0.00    +0.354 C 
ATOM     13  O   UNL A   1     -30.424  -1.411  25.852  0.00  0.00    -0.295 OA
ATOM     14  C   UNL A   1     -23.192   1.851  26.856  0.00  0.00    +0.114 C 
ATOM     15 CL   UNL A   1     -22.848   2.243  25.304  0.00  0.00    -0.112 Cl
ATOM     16  C   UNL A   1     -22.521  -0.384  28.338  0.00  0.00    +0.037 C 
ATOM     17  C   UNL A   1     -24.609   1.520  27.396  0.00  0.00    +0.044 C 
ATOM     18  S   UNL A   1     -30.700   3.007  27.576  0.00  0.00    -0.065 S 
ATOM     19  C   UNL A   1     -25.448   0.093  29.282  0.00  0.00    +0.108 C 
ATOM     20  C   UNL A   1     -23.049   0.793  29.148  0.00  0.00    +0.036 C 
ATOM     21  N   UNL A   1     -29.650   1.904  28.409  0.00  0.00    -0.223 NA
ATOM     22  C   UNL A   1     -28.745  -0.108  27.970  0.00  0.00    +0.060 C 
ATOM     23  C   UNL A   1     -31.618   1.819  26.842  0.00  0.00    +0.086 C 
ATOM     24  N   UNL A   1     -26.636   0.057  28.882  0.00  0.00    -0.279 NA
ATOM     25  C   UNL A   1     -31.034   0.625  26.999  0.00  0.00    +0.130 C 
ATOM     26  C   UNL A   1     -29.827   0.748  27.806  0.00  0.00    +0.086 C 
ATOM     27  C   UNL A   1     -24.510   1.232  28.859  0.00  0.00    +0.031 C 
ATOM     28  O   UNL A   1     -32.561  -1.054  26.508  0.00  0.00    -0.247 OA
ATOM     29  C   UNL A   1     -27.875   0.565  28.833  0.00  0.00    +0.050 C 
ATOM     30  C   UNL A   1     -22.330   1.089  27.748  0.00  0.00    +0.148 C 
ATOM     31  F   UNL A   1     -21.047   1.646  27.470  0.00  0.00    -0.239 F 
ATOM     32  C   UNL A   1     -28.539   1.739  29.279  0.00  0.00    +0.124 C 
ENDROOT
BRANCH   2  33
ATOM     33  C   UNL A   1     -25.642   4.093  27.123  0.00  0.00    +0.266 C 
ATOM     34  N   UNL A   1     -25.614   5.252  26.449  0.00  0.00    -0.200 NA
ATOM     35  C   UNL A   1     -25.026   6.479  26.963  0.00  0.00    +0.139 C 
ATOM     36  O   UNL A   1     -25.143   3.966  28.243  0.00  0.00    -0.268 OA
ENDBRANCH   2  33
BRANCH  19  37
ATOM     37  C   UNL A   1     -24.855  -1.012  30.143  0.00  0.00    +0.061 C 
BRANCH  37  38
ATOM     38  C   UNL A   1     -24.973  -2.505  29.788  0.00  0.00    -0.019 C 
ATOM     39  C   UNL A   1     -23.906  -3.173  29.146  0.00  0.00    -0.004 C 
ATOM     40  C   UNL A   1     -23.989  -4.549  28.853  0.00  0.00    -0.000 C 
ATOM     41  C   UNL A   1     -25.137  -5.280  29.205  0.00  0.00    -0.000 C 
ATOM     42  C   UNL A   1     -26.232  -4.611  29.784  0.00  0.00    -0.000 C 
ATOM     43  C   UNL A   1     -26.155  -3.232  30.065  0.00  0.00    -0.004 C 
ENDBRANCH  37  38
BRANCH  37  44
ATOM     44  C   UNL A   1     -25.387  -0.679  31.571  0.00  0.00    +0.079 C 
ATOM     45  C   UNL A   1     -25.189   0.773  32.028  0.00  0.00    +0.019 C 
ATOM     46  C   UNL A   1     -25.336   0.684  33.544  0.00  0.00    +0.020 C 
ATOM     47  C   UNL A   1     -24.829  -0.715  33.905  0.00  0.00    +0.089 C 
ATOM     48  N   UNL A   1     -24.758  -1.481  32.646  0.00  0.00    -0.219 NA
ENDBRANCH  37  44
ENDBRANCH  19  37
TORSDOF 4
