REMARK  Name = No_3893-gen_results/8p0m/2024-11-27-11-27-31/
REMARK  1 active torsions:
REMARK  status: ('A' for Active; 'I' for Inactive)
REMARK    1  A    between atoms: C_2  and  C_5
REMARK                            x       y       z     vdW  Elec       q    Type
REMARK                         _______ _______ _______ _____ _____    ______ ____
ROOT
ATOM      1  C   UNL A   1     -30.014  -0.841  29.851  0.00  0.00    +0.253 C 
ATOM      2  O   UNL A   1     -30.656  -1.692  30.181  0.00  0.00    -0.270 OA
ATOM      3  N   UNL A   1     -30.600   0.312  29.288  0.00  0.00    -0.254 N 
ATOM      4  C   UNL A   1     -29.917   1.468  28.857  0.00  0.00    +0.063 C 
ATOM      5  C   UNL A   1     -30.776   2.308  28.235  0.00  0.00    -0.008 C 
ATOM      6  C   UNL A   1     -32.031   2.064  27.965  0.00  0.00    +0.049 C 
ATOM      7  C   UNL A   1     -31.924   0.321  28.871  0.00  0.00    +0.103 C 
ENDROOT
BRANCH   1   9
ATOM      8  C   UNL A   1     -28.016  -0.814  28.878  0.00  0.00    +0.004 A 
ATOM      9  C   UNL A   1     -28.469  -0.785  29.829  0.00  0.00    +0.054 A 
ATOM     10  C   UNL A   1     -26.504  -0.778  28.877  0.00  0.00    +0.000 A 
ATOM     11  C   UNL A   1     -25.810  -0.853  30.103  0.00  0.00    +0.000 A 
ATOM     12  C   UNL A   1     -26.567  -0.885  31.252  0.00  0.00    +0.000 A 
ATOM     13  C   UNL A   1     -27.941  -0.907  31.185  0.00  0.00    +0.004 A 
ENDBRANCH   1   9
TORSDOF 1
