MODEL 3893
MODEL 1
REMARK VINA RESULT:    -5.624      0.000      0.000
REMARK INTER + INTRA:          -5.851
REMARK INTER:                  -5.953
REMARK INTRA:                   0.101
REMARK UNBOUND:                 0.101
REMARK  Name = No_3893-gen_results/8p0m/2024-11-27-11-27-31/
REMARK  1 active torsions:
REMARK  status: ('A' for Active; 'I' for Inactive)
REMARK    1  A    between atoms: C_2  and  C_5
REMARK                            x       y       z     vdW  Elec       q    Type
REMARK                         _______ _______ _______ _____ _____    ______ ____
ROOT
ATOM      1  C   UNL A   1     -23.060  -0.928  29.323  0.00  0.00    +0.253 C 
ATOM      2  O   UNL A   1     -22.179  -0.820  29.999  0.00  0.00    -0.270 OA
ATOM      3  N   UNL A   1     -23.257  -0.017  28.264  0.00  0.00    -0.254 N 
ATOM      4  C   UNL A   1     -24.304  -0.049  27.320  0.00  0.00    +0.063 C 
ATOM      5  C   UNL A   1     -24.264   1.059  26.546  0.00  0.00    -0.008 C 
ATOM      6  C   UNL A   1     -23.455   2.074  26.697  0.00  0.00    +0.049 C 
ATOM      7  C   UNL A   1     -22.550   1.176  28.195  0.00  0.00    +0.103 C 
ENDROOT
BRANCH   1   9
ATOM      8  C   UNL A   1     -25.036  -1.637  30.053  0.00  0.00    +0.004 A 
ATOM      9  C   UNL A   1     -24.224  -1.938  29.452  0.00  0.00    +0.054 A 
ATOM     10  C   UNL A   1     -26.156  -2.645  30.183  0.00  0.00    +0.000 A 
ATOM     11  C   UNL A   1     -25.992  -3.935  29.637  0.00  0.00    +0.000 A 
ATOM     12  C   UNL A   1     -24.828  -4.180  28.944  0.00  0.00    +0.000 A 
ATOM     13  C   UNL A   1     -23.850  -3.216  28.855  0.00  0.00    +0.004 A 
ENDBRANCH   1   9
TORSDOF 1
ENDMDL
ENDMDL
