REMARK  Name = outputs/IAG933/test6/raw/output_3894_IAG933_linker_design_.xyz
REMARK  13 active torsions:
REMARK  status: ('A' for Active; 'I' for Inactive)
REMARK    1  A    between atoms: C_1  and  C_2
REMARK    2  A    between atoms: C_1  and  C_8
REMARK    3  A    between atoms: C_1  and  C_42
REMARK    4  A    between atoms: C_13  and  C_41
REMARK    5  A    between atoms: C_14  and  C_15
REMARK    6  A    between atoms: C_21  and  O_22
REMARK    7  A    between atoms: O_22  and  C_23
REMARK    8  A    between atoms: C_23  and  C_24
REMARK    9  A    between atoms: C_24  and  O_25
REMARK   10  A    between atoms: O_25  and  C_32
REMARK   11  A    between atoms: C_28  and  C_32
REMARK   12  A    between atoms: C_28  and  C_46
REMARK   13  A    between atoms: N_38  and  C_42
REMARK                            x       y       z     vdW  Elec       q    Type
REMARK                         _______ _______ _______ _____ _____    ______ ____
ROOT
ATOM      1  C   UNL A   1     -25.688   1.614  26.461  0.00  0.00    +0.033 C 
ATOM      2  C   UNL A   1     -26.250   2.920  26.395  0.00  0.00    +0.074 C 
ATOM      3  C   UNL A   1     -27.438   3.091  25.645  0.00  0.00    +0.106 C 
ATOM      4  N   UNL A   1     -28.075   2.089  25.003  0.00  0.00    -0.208 NA
ATOM      5  C   UNL A   1     -27.543   0.849  25.079  0.00  0.00    +0.253 C 
ATOM      6  C   UNL A   1     -26.354   0.576  25.777  0.00  0.00    +0.190 C 
ATOM      7  F   UNL A   1     -25.860  -0.681  25.795  0.00  0.00    -0.200 F 
ENDROOT
BRANCH   1  12
ATOM      8  C   UNL A   1     -23.510   2.109  26.420  0.00  0.00    +0.163 C 
ATOM      9  C   UNL A   1     -22.837   0.130  28.459  0.00  0.00    +0.075 C 
ATOM     10  C   UNL A   1     -21.704   1.150  28.122  0.00  0.00    +0.049 C 
ATOM     11  N   UNL A   1     -24.221   0.710  28.354  0.00  0.00    -0.268 NA
ATOM     12  C   UNL A   1     -24.392   1.298  27.111  0.00  0.00    +0.113 C 
ATOM     13  O   UNL A   1     -22.356   1.857  25.771  0.00  0.00    -0.352 OA
ATOM     14  C   UNL A   1     -21.349   1.778  26.781  0.00  0.00    +0.144 C 
BRANCH  11  15
ATOM     15  C   UNL A   1     -25.271  -0.092  29.028  0.00  0.00    +0.078 C 
BRANCH  15  16
ATOM     16  C   UNL A   1     -24.855  -1.012  30.143  0.00  0.00    +0.054 C 
BRANCH  16  17
ATOM     17  C   UNL A   1     -24.973  -2.505  29.788  0.00  0.00    -0.020 C 
ATOM     18  C   UNL A   1     -23.906  -3.173  29.146  0.00  0.00    -0.004 C 
ATOM     19  C   UNL A   1     -23.989  -4.549  28.853  0.00  0.00    -0.000 C 
ATOM     20  C   UNL A   1     -25.137  -5.280  29.205  0.00  0.00    -0.000 C 
ATOM     21  C   UNL A   1     -26.232  -4.611  29.784  0.00  0.00    -0.000 C 
ATOM     22  C   UNL A   1     -26.155  -3.232  30.065  0.00  0.00    -0.004 C 
ENDBRANCH  16  17
BRANCH  16  23
ATOM     23  C   UNL A   1     -25.387  -0.679  31.571  0.00  0.00    +0.078 C 
ATOM     24  C   UNL A   1     -25.189   0.773  32.028  0.00  0.00    +0.019 C 
ATOM     25  C   UNL A   1     -25.336   0.684  33.544  0.00  0.00    +0.020 C 
ATOM     26  C   UNL A   1     -24.829  -0.715  33.905  0.00  0.00    +0.089 C 
ATOM     27  N   UNL A   1     -24.758  -1.481  32.646  0.00  0.00    -0.219 NA
ENDBRANCH  16  23
ENDBRANCH  15  16
ENDBRANCH  11  15
ENDBRANCH   1  12
BRANCH   2  28
ATOM     28  C   UNL A   1     -25.642   4.093  27.123  0.00  0.00    +0.266 C 
ATOM     29  N   UNL A   1     -25.614   5.252  26.449  0.00  0.00    -0.200 NA
ATOM     30  C   UNL A   1     -25.026   6.479  26.963  0.00  0.00    +0.139 C 
ATOM     31  O   UNL A   1     -25.143   3.966  28.243  0.00  0.00    -0.268 OA
ENDBRANCH   2  28
BRANCH   5  32
ATOM     32  O   UNL A   1     -28.193  -0.208  24.477  0.00  0.00    -0.456 OA
BRANCH  32  33
ATOM     33  C   UNL A   1     -29.460   0.005  23.866  0.00  0.00    +0.239 C 
BRANCH  33  34
ATOM     34  C   UNL A   1     -30.065  -1.377  23.573  0.00  0.00    +0.189 C 
BRANCH  34  35
ATOM     35  O   UNL A   1     -30.729  -1.878  24.721  0.00  0.00    -0.350 OA
BRANCH  35  36
ATOM     36  C   UNL A   1     -32.097  -1.450  24.818  0.00  0.00    +0.145 C 
BRANCH  36  37
ATOM     37  C   UNL A   1     -32.897  -1.919  26.038  0.00  0.00    +0.068 C 
BRANCH  37  46
ATOM     38  O   UNL A   1     -30.875  -1.385  27.430  0.00  0.00    -0.278 OA
ATOM     39  N   UNL A   1     -30.593  -0.356  28.294  0.00  0.00    -0.133 NA
ATOM     40  C   UNL A   1     -32.735  -1.967  28.776  0.00  0.00    +0.004 C 
ATOM     41  C   UNL A   1     -28.600   0.109  29.365  0.00  0.00    +0.164 C 
ATOM     42  C   UNL A   1     -29.627   0.697  28.376  0.00  0.00    +0.136 C 
ATOM     43  O   UNL A   1     -29.326  -0.929  30.052  0.00  0.00    -0.334 OA
ATOM     44  C   UNL A   1     -31.876  -1.534  29.930  0.00  0.00    +0.020 C 
ATOM     45  C   UNL A   1     -30.708  -0.677  29.637  0.00  0.00    +0.222 C 
ATOM     46  C   UNL A   1     -32.329  -1.384  27.392  0.00  0.00    +0.162 C 
ENDBRANCH  37  46
ENDBRANCH  36  37
ENDBRANCH  35  36
ENDBRANCH  34  35
ENDBRANCH  33  34
ENDBRANCH  32  33
ENDBRANCH   5  32
TORSDOF 13
