MODEL 3895
MODEL 1
REMARK VINA RESULT:    -6.584      0.000      0.000
REMARK INTER + INTRA:          -7.321
REMARK INTER:                  -6.968
REMARK INTRA:                  -0.353
REMARK UNBOUND:                -0.353
REMARK  Name = No_3895-gen_results/8p0m/2024-11-27-11-27-31/
REMARK  1 active torsions:
REMARK  status: ('A' for Active; 'I' for Inactive)
REMARK    1  A    between atoms: C_2  and  C_7
REMARK                            x       y       z     vdW  Elec       q    Type
REMARK                         _______ _______ _______ _____ _____    ______ ____
ROOT
ATOM      1  C   UNL A   1     -25.647  -2.530  29.615  0.00  0.00    +0.000 A 
ATOM      2  C   UNL A   1     -24.548  -2.659  29.126  0.00  0.00    +0.000 A 
ATOM      3  C   UNL A   1     -24.068  -3.911  28.757  0.00  0.00    +0.000 A 
ATOM      4  C   UNL A   1     -24.847  -5.100  28.988  0.00  0.00    +0.000 A 
ATOM      5  C   UNL A   1     -26.095  -4.863  29.578  0.00  0.00    +0.000 A 
ATOM      6  C   UNL A   1     -26.496  -3.660  29.924  0.00  0.00    +0.000 A 
ENDROOT
BRANCH   2   7
ATOM      7  C   UNL A   1     -23.600  -1.548  28.843  0.00  0.00    +0.000 A 
ATOM      8  C   UNL A   1     -22.683  -1.317  29.230  0.00  0.00    +0.000 A 
ATOM      9  C   UNL A   1     -21.786  -0.126  28.988  0.00  0.00    +0.000 A 
ATOM     10  C   UNL A   1     -22.269   0.867  28.158  0.00  0.00    +0.000 A 
ATOM     11  C   UNL A   1     -23.548   0.726  27.616  0.00  0.00    +0.000 A 
ATOM     12  C   UNL A   1     -24.258  -0.409  27.878  0.00  0.00    +0.000 A 
ENDBRANCH   2   7
TORSDOF 1
ENDMDL
ENDMDL
