REMARK  Name = No_3896-gen_results/8p0m/2024-11-27-11-27-31/
REMARK  3 active torsions:
REMARK  status: ('A' for Active; 'I' for Inactive)
REMARK    1  A    between atoms: C_1  and  C_8
REMARK    2  A    between atoms: C_5  and  C_10
REMARK    3  A    between atoms: C_8  and  C_9
REMARK                            x       y       z     vdW  Elec       q    Type
REMARK                         _______ _______ _______ _____ _____    ______ ____
ROOT
ATOM      1  C   UNL A   1     -28.016  -0.814  28.878  0.00  0.00    +0.002 C 
ATOM      2  C   UNL A   1     -27.064  -0.119  28.608  0.00  0.00    -0.046 C 
ATOM      3  C   UNL A   1     -26.972   0.714  27.506  0.00  0.00    +0.022 C 
ATOM      4  C   UNL A   1     -25.820   1.491  27.116  0.00  0.00    +0.016 C 
ATOM      5  C   UNL A   1     -24.656   1.424  27.918  0.00  0.00    +0.104 C 
ATOM      6  C   UNL A   1     -24.685   0.590  29.066  0.00  0.00    +0.016 C 
ATOM      7  C   UNL A   1     -25.810  -0.127  29.334  0.00  0.00    +0.022 C 
ENDROOT
BRANCH   5   8
ATOM      8  C   UNL A   1     -23.468   2.204  27.601  0.00  0.00    +0.364 C 
ATOM      9  O   UNL A   1     -23.280   2.737  26.515  0.00  0.00    -0.246 OA
ATOM     10  O   UNL A   1     -22.347   1.985  28.331  0.00  0.00    -0.246 OA
ENDBRANCH   5   8
BRANCH   1  11
ATOM     11  C   UNL A   1     -29.218  -0.042  29.313  0.00  0.00    +0.196 C 
ATOM     12  O   UNL A   1     -28.825   0.952  30.202  0.00  0.00    -0.213 OA
BRANCH  11  13
ATOM     13  C   UNL A   1     -30.280  -0.807  29.836  0.00  0.00    +0.012 A 
ATOM     14  C   UNL A   1     -31.560  -0.710  29.362  0.00  0.00    -0.002 A 
ATOM     15  C   UNL A   1     -32.545  -1.588  29.643  0.00  0.00    -0.000 A 
ATOM     16  C   UNL A   1     -32.288  -2.622  30.574  0.00  0.00    -0.000 A 
ATOM     17  C   UNL A   1     -31.020  -2.782  31.117  0.00  0.00    -0.000 A 
ATOM     18  C   UNL A   1     -29.976  -1.918  30.688  0.00  0.00    -0.002 A 
ENDBRANCH  11  13
ENDBRANCH   1  11
TORSDOF 3
