MODEL 3897
MODEL 1
REMARK VINA RESULT:    -5.987      0.000      0.000
REMARK INTER + INTRA:          -6.451
REMARK INTER:                  -6.337
REMARK INTRA:                  -0.114
REMARK UNBOUND:                -0.114
REMARK  Name = No_3897-gen_results/8p0m/2024-11-27-11-27-31/
REMARK  1 active torsions:
REMARK  status: ('A' for Active; 'I' for Inactive)
REMARK    1  A    between atoms: C_10  and  C_11
REMARK                            x       y       z     vdW  Elec       q    Type
REMARK                         _______ _______ _______ _____ _____    ______ ____
ROOT
ATOM      1  C   UNL A   1     -26.149  -4.611  29.684  0.00  0.00    +0.000 A 
ATOM      2  C   UNL A   1     -25.426  -5.209  29.204  0.00  0.00    +0.000 A 
ATOM      3  C   UNL A   1     -25.891  -3.227  29.795  0.00  0.00    +0.000 A 
ATOM      4  C   UNL A   1     -24.730  -2.659  29.309  0.00  0.00    +0.006 A 
ATOM      5  C   UNL A   1     -23.837  -3.516  28.687  0.00  0.00    +0.000 A 
ATOM      6  C   UNL A   1     -24.148  -4.854  28.569  0.00  0.00    +0.000 A 
ATOM      7  C   UNL A   1     -26.843  -2.260  30.432  0.00  0.00    +0.000 A 
ATOM      8  C   UNL A   1     -26.397  -0.946  30.657  0.00  0.00    +0.000 A 
ATOM      9  C   UNL A   1     -25.258  -0.434  30.070  0.00  0.00    +0.007 A 
ATOM     10  C   UNL A   1     -24.353  -1.308  29.471  0.00  0.00    +0.080 A 
ENDROOT
BRANCH  10  11
ATOM     11  C   UNL A   1     -23.085  -0.701  28.969  0.00  0.00    +0.388 C 
ATOM     12  O   UNL A   1     -23.151   0.078  28.050  0.00  0.00    -0.241 OA
ATOM     13  O   UNL A   1     -22.012  -0.626  29.767  0.00  0.00    -0.241 OA
ENDBRANCH  10  11
TORSDOF 1
ENDMDL
ENDMDL
