MODEL 3899
MODEL 1
REMARK VINA RESULT:    -5.872      0.000      0.000
REMARK INTER + INTRA:          -6.889
REMARK INTER:                  -6.558
REMARK INTRA:                  -0.331
REMARK UNBOUND:                -0.331
REMARK  Name = No_3899-gen_results/8p0m/2024-11-27-11-27-31/
REMARK  2 active torsions:
REMARK  status: ('A' for Active; 'I' for Inactive)
REMARK    1  A    between atoms: C_3  and  C_4
REMARK    2  A    between atoms: C_8  and  C_9
REMARK                            x       y       z     vdW  Elec       q    Type
REMARK                         _______ _______ _______ _____ _____    ______ ____
ROOT
ATOM      1  C   UNL A   1     -24.609   0.052  27.203  0.00  0.00    -0.000 A 
ATOM      2  C   UNL A   1     -24.574   0.858  26.524  0.00  0.00    +0.000 A 
ATOM      3  C   UNL A   1     -23.444  -0.021  28.084  0.00  0.00    -0.000 A 
ATOM      4  C   UNL A   1     -23.630   1.932  26.248  0.00  0.00    +0.000 A 
ATOM      5  C   UNL A   1     -22.510   1.889  27.052  0.00  0.00    +0.000 A 
ATOM      6  C   UNL A   1     -22.415   0.954  28.014  0.00  0.00    -0.000 A 
ENDROOT
BRANCH   3   7
ATOM      7  C   UNL A   1     -23.309  -0.998  29.188  0.00  0.00    -0.000 C 
ATOM      8  C   UNL A   1     -23.501  -2.252  28.960  0.00  0.00    -0.000 C 
BRANCH   8   9
ATOM      9  C   UNL A   1     -24.090  -3.136  29.120  0.00  0.00    -0.005 C 
ATOM     10  C   UNL A   1     -24.066  -4.525  28.636  0.00  0.00    -0.026 C 
ATOM     11  C   UNL A   1     -24.965  -5.611  28.919  0.00  0.00    +0.031 C 
ENDBRANCH   8   9
ENDBRANCH   3   7
TORSDOF 2
ENDMDL
ENDMDL
