REMARK  Name = outputs/IAG933/test6/raw/output_3899_IAG933_linker_design_.xyz
REMARK  14 active torsions:
REMARK  status: ('A' for Active; 'I' for Inactive)
REMARK    1  A    between atoms: C_1  and  C_2
REMARK    2  A    between atoms: C_1  and  C_8
REMARK    3  A    between atoms: C_9  and  C_32
REMARK    4  A    between atoms: C_13  and  C_35
REMARK    5  A    between atoms: C_14  and  C_15
REMARK    6  A    between atoms: C_21  and  O_22
REMARK    7  A    between atoms: O_22  and  C_23
REMARK    8  A    between atoms: C_23  and  C_24
REMARK    9  A    between atoms: O_28  and  C_40
REMARK   10  A    between atoms: C_29  and  C_44
REMARK   11  A    between atoms: C_31  and  C_42
REMARK   12  A    between atoms: C_32  and  C_33
REMARK   13  A    between atoms: C_32  and  C_42
REMARK   14  A    between atoms: C_36  and  N_43
REMARK                            x       y       z     vdW  Elec       q    Type
REMARK                         _______ _______ _______ _____ _____    ______ ____
ROOT
ATOM      1  C   UNL A   1     -24.359   1.651  26.569  0.00  0.00    +0.008 C 
ATOM      2  C   UNL A   1     -23.699   1.651  27.709  0.00  0.00    +0.148 C 
ATOM      3  C   UNL A   1     -22.271   1.971  25.237  0.00  0.00    +0.235 C 
ATOM      4  C   UNL A   1     -23.675   1.858  25.331  0.00  0.00    +0.019 C 
ATOM      5  C   UNL A   1     -22.315   1.649  27.600  0.00  0.00    +0.310 C 
ATOM      6  O   UNL A   1     -21.636   1.876  26.492  0.00  0.00    -0.442 OA
ENDROOT
BRANCH   1   7
ATOM      7  C   UNL A   1     -25.688   1.614  26.461  0.00  0.00    +0.094 C 
ATOM      8  C   UNL A   1     -26.250   2.920  26.395  0.00  0.00    +0.059 C 
ATOM      9  C   UNL A   1     -27.438   3.091  25.645  0.00  0.00    +0.102 C 
ATOM     10  N   UNL A   1     -28.075   2.089  25.003  0.00  0.00    -0.212 NA
ATOM     11  C   UNL A   1     -27.543   0.849  25.079  0.00  0.00    +0.234 C 
ATOM     12  C   UNL A   1     -26.354   0.576  25.777  0.00  0.00    +0.244 C 
ATOM     13  F   UNL A   1     -25.860  -0.681  25.795  0.00  0.00    -0.227 F 
BRANCH   8  14
ATOM     14  C   UNL A   1     -25.642   4.093  27.123  0.00  0.00    +0.263 C 
ATOM     15  N   UNL A   1     -25.614   5.252  26.449  0.00  0.00    -0.200 NA
ATOM     16  C   UNL A   1     -25.026   6.479  26.963  0.00  0.00    +0.139 C 
ATOM     17  O   UNL A   1     -25.143   3.966  28.243  0.00  0.00    -0.269 OA
ENDBRANCH   8  14
BRANCH  11  18
ATOM     18  O   UNL A   1     -28.193  -0.208  24.477  0.00  0.00    -0.459 OA
BRANCH  18  19
ATOM     19  C   UNL A   1     -29.460   0.005  23.866  0.00  0.00    +0.242 C 
BRANCH  19  20
ATOM     20  C   UNL A   1     -30.065  -1.377  23.573  0.00  0.00    +0.229 C 
ATOM     21  O   UNL A   1     -30.729  -1.878  24.721  0.00  0.00    -0.216 OA
ENDBRANCH  19  20
ENDBRANCH  18  19
ENDBRANCH  11  18
ENDBRANCH   1   7
BRANCH   5  22
ATOM     22  O   UNL A   1     -21.564   1.290  28.733  0.00  0.00    -0.443 OA
ATOM     23  C   UNL A   1     -22.113   0.465  29.815  0.00  0.00    +0.256 C 
ENDBRANCH   5  22
BRANCH   2  25
ATOM     24  C   UNL A   1     -25.708   2.110  29.831  0.00  0.00    +0.073 C 
ATOM     25  N   UNL A   1     -24.409   1.642  29.109  0.00  0.00    -0.242 NA
BRANCH  24  26
ATOM     26  C   UNL A   1     -26.156   1.881  31.303  0.00  0.00    +0.048 C 
BRANCH  26  28
ATOM     27  C   UNL A   1     -25.387  -0.679  31.571  0.00  0.00    +0.077 C 
ATOM     28  C   UNL A   1     -25.189   0.773  32.028  0.00  0.00    +0.024 C 
ATOM     29  C   UNL A   1     -25.336   0.684  33.544  0.00  0.00    +0.021 C 
ATOM     30  C   UNL A   1     -24.829  -0.715  33.905  0.00  0.00    +0.089 C 
ATOM     31  N   UNL A   1     -24.758  -1.481  32.646  0.00  0.00    -0.219 NA
BRANCH  27  32
ATOM     32  C   UNL A   1     -24.855  -1.012  30.143  0.00  0.00    +0.044 C 
BRANCH  32  33
ATOM     33  C   UNL A   1     -24.973  -2.505  29.788  0.00  0.00    -0.021 C 
ATOM     34  C   UNL A   1     -23.906  -3.173  29.146  0.00  0.00    -0.004 C 
ATOM     35  C   UNL A   1     -23.989  -4.549  28.853  0.00  0.00    -0.000 C 
ATOM     36  C   UNL A   1     -25.137  -5.280  29.205  0.00  0.00    -0.000 C 
ATOM     37  C   UNL A   1     -26.232  -4.611  29.784  0.00  0.00    -0.000 C 
ATOM     38  C   UNL A   1     -26.155  -3.232  30.065  0.00  0.00    -0.004 C 
ENDBRANCH  32  33
ENDBRANCH  27  32
ENDBRANCH  26  28
BRANCH  26  39
ATOM     39  C   UNL A   1     -26.142   3.242  32.141  0.00  0.00    +0.040 C 
BRANCH  39  41
ATOM     40  C   UNL A   1     -28.635   6.374  33.608  0.00  0.00    +0.035 C 
ATOM     41  C   UNL A   1     -27.203   4.236  32.243  0.00  0.00    +0.015 C 
ATOM     42  C   UNL A   1     -27.885   5.239  32.842  0.00  0.00    -0.108 C 
BRANCH  40  44
ATOM     43  N   UNL A   1     -28.389   8.594  34.981  0.00  0.00    -0.126 NA
ATOM     44  C   UNL A   1     -27.896   7.222  34.701  0.00  0.00    +0.143 C 
ENDBRANCH  40  44
ENDBRANCH  39  41
ENDBRANCH  26  39
ENDBRANCH  24  26
ENDBRANCH   2  25
TORSDOF 14
