MODEL 389
MODEL 1
REMARK VINA RESULT:    -7.137      0.000      0.000
REMARK INTER + INTRA:          -8.897
REMARK INTER:                  -8.389
REMARK INTRA:                  -0.508
REMARK UNBOUND:                -0.508
REMARK  Name = No_389-gen_results/8p0m/2024-11-27-11-27-31/
REMARK  3 active torsions:
REMARK  status: ('A' for Active; 'I' for Inactive)
REMARK    1  A    between atoms: C_2  and  C_7
REMARK    2  A    between atoms: C_6  and  CA_13
REMARK    3  A    between atoms: CA_13  and  C_15
REMARK                            x       y       z     vdW  Elec       q    Type
REMARK                         _______ _______ _______ _____ _____    ______ ____
ROOT
ATOM      1  C   UNL A   1     -24.117  -0.189  28.197  0.00  0.00    -0.003 A 
ATOM      2  C   UNL A   1     -23.714  -1.174  28.772  0.00  0.00    -0.000 A 
ATOM      3  C   UNL A   1     -22.388  -1.276  29.177  0.00  0.00    -0.000 A 
ATOM      4  C   UNL A   1     -21.440  -0.232  28.883  0.00  0.00    -0.000 A 
ATOM      5  C   UNL A   1     -21.986   0.859  28.194  0.00  0.00    -0.003 A 
ATOM      6  C   UNL A   1     -23.244   0.900  27.819  0.00  0.00    -0.002 A 
ENDROOT
BRANCH   2   7
ATOM      7  C   UNL A   1     -24.542  -2.356  29.133  0.00  0.00    -0.000 A 
ATOM      8  C   UNL A   1     -25.670  -2.412  29.597  0.00  0.00    -0.000 A 
ATOM      9  C   UNL A   1     -26.448  -3.641  29.803  0.00  0.00    -0.000 A 
ATOM     10  C   UNL A   1     -25.816  -4.854  29.461  0.00  0.00    +0.000 A 
ATOM     11  C   UNL A   1     -23.961  -3.669  28.761  0.00  0.00    -0.000 A 
ATOM     12  C   UNL A   1     -24.590  -4.812  28.941  0.00  0.00    -0.000 A 
ENDBRANCH   2   7
BRANCH   6  13
ATOM     13  CA  UNL A   1     -23.650   2.081  27.023  0.00  0.00    +0.147 C 
ATOM     14  N   UNL A   1     -24.148   3.180  27.557  0.00  0.00    -0.125 NA
BRANCH  13  15
ATOM     15  C   UNL A   1     -23.536   2.037  25.599  0.00  0.00    +0.205 C 
ATOM     16  O   UNL A   1     -22.651   2.533  24.984  0.00  0.00    -0.218 OA
ENDBRANCH  13  15
ENDBRANCH   6  13
TORSDOF 3
ENDMDL
ENDMDL
