MODEL 38
MODEL 1
REMARK VINA RESULT:    -6.595      0.000      0.000
REMARK INTER + INTRA:          -9.056
REMARK INTER:                  -8.137
REMARK INTRA:                  -0.920
REMARK UNBOUND:                -0.920
REMARK  Name = No_38-gen_results/8p0m/2024-11-27-11-27-31/
REMARK  4 active torsions:
REMARK  status: ('A' for Active; 'I' for Inactive)
REMARK    1  A    between atoms: C_3  and  C_8
REMARK    2  A    between atoms: C_6  and  O_7
REMARK    3  A    between atoms: O_7  and  C_14
REMARK    4  A    between atoms: C_14  and  C_15
REMARK                            x       y       z     vdW  Elec       q    Type
REMARK                         _______ _______ _______ _____ _____    ______ ____
ROOT
ATOM      1  C   UNL A   1     -25.737   2.356  26.073  0.00  0.00    +0.037 A 
ATOM      2  C   UNL A   1     -26.777   2.041  25.544  0.00  0.00    +0.003 A 
ATOM      3  C   UNL A   1     -26.904   0.830  24.873  0.00  0.00    +0.000 A 
ATOM      4  C   UNL A   1     -25.785  -0.068  24.746  0.00  0.00    +0.003 A 
ATOM      5  C   UNL A   1     -24.614   0.385  25.367  0.00  0.00    +0.037 A 
ATOM      6  C   UNL A   1     -24.541   1.547  25.976  0.00  0.00    +0.139 A 
ENDROOT
BRANCH   3   7
ATOM      7  C   UNL A   1     -28.148   0.322  24.185  0.00  0.00    +0.000 A 
ATOM      8  C   UNL A   1     -28.455  -0.916  24.015  0.00  0.00    +0.000 A 
ATOM      9  C   UNL A   1     -29.719  -1.307  23.415  0.00  0.00    +0.000 A 
ATOM     10  C   UNL A   1     -30.722  -0.335  23.273  0.00  0.00    +0.000 A 
ATOM     11  C   UNL A   1     -29.236   1.280  24.029  0.00  0.00    +0.000 A 
ATOM     12  C   UNL A   1     -30.458   0.920  23.550  0.00  0.00    +0.000 A 
ENDBRANCH   3   7
BRANCH   6  13
ATOM     13  O   UNL A   1     -23.354   1.930  26.520  0.00  0.00    -0.471 OA
BRANCH  13  14
ATOM     14  C   UNL A   1     -22.753   1.206  27.482  0.00  0.00    +0.234 C 
BRANCH  14  15
ATOM     15  C   UNL A   1     -23.060   1.113  28.527  0.00  0.00    +0.049 A 
ATOM     16  C   UNL A   1     -23.608   1.509  29.409  0.00  0.00    +0.002 A 
ATOM     17  C   UNL A   1     -23.862   1.098  30.838  0.00  0.00    -0.000 A 
ATOM     18  C   UNL A   1     -23.147  -0.052  31.198  0.00  0.00    +0.002 A 
ATOM     19  C   UNL A   1     -22.449  -0.740  30.268  0.00  0.00    +0.029 A 
ATOM     20  C   UNL A   1     -22.340  -0.291  29.015  0.00  0.00    +0.140 A 
ATOM     21  F   UNL A   1     -23.239  -1.310  28.514  0.00  0.00    -0.204 F 
ENDBRANCH  14  15
ENDBRANCH  13  14
ENDBRANCH   6  13
TORSDOF 4
ENDMDL
ENDMDL
