REMARK  Name = No_390-gen_results/8p0m/2024-11-27-11-27-31/
REMARK  1 active torsions:
REMARK  status: ('A' for Active; 'I' for Inactive)
REMARK    1  A    between atoms: C_2  and  C_3
REMARK                            x       y       z     vdW  Elec       q    Type
REMARK                         _______ _______ _______ _____ _____    ______ ____
ROOT
ATOM      1  O   UNL A   1     -28.123  -1.335  28.487  0.00  0.00    -0.270 OA
ATOM      2  C   UNL A   1     -27.481  -0.404  28.709  0.00  0.00    +0.249 C 
ATOM      3  N   UNL A   1     -26.687  -0.000  27.442  0.00  0.00    -0.276 N 
ATOM      4  C   UNL A   1     -26.888  -0.429  26.260  0.00  0.00    +0.094 C 
ATOM      5  C   UNL A   1     -26.021   0.408  25.314  0.00  0.00    +0.022 C 
ATOM      6  C   UNL A   1     -24.901   1.073  25.741  0.00  0.00    +0.004 C 
ATOM      7  C   UNL A   1     -24.690   1.264  27.031  0.00  0.00    +0.022 C 
ATOM      8  C   UNL A   1     -25.571   0.767  27.938  0.00  0.00    +0.094 C 
ENDROOT
BRANCH   2   9
ATOM      9  C   UNL A   1     -27.190   0.246  29.527  0.00  0.00    +0.054 A 
ATOM     10  C   UNL A   1     -27.651   0.126  30.880  0.00  0.00    +0.004 A 
ATOM     11  C   UNL A   1     -26.131   1.429  29.575  0.00  0.00    +0.004 A 
ATOM     12  C   UNL A   1     -25.797   2.123  30.626  0.00  0.00    +0.000 A 
ATOM     13  C   UNL A   1     -27.347   0.895  32.068  0.00  0.00    +0.000 A 
ATOM     14  C   UNL A   1     -26.402   1.901  31.924  0.00  0.00    +0.000 A 
ENDBRANCH   2   9
TORSDOF 1
