REMARK  Name = No_3900-gen_results/8p0m/2024-11-27-11-27-31/
REMARK  9 active torsions:
REMARK  status: ('A' for Active; 'I' for Inactive)
REMARK    1  A    between atoms: C_1  and  C_2
REMARK    2  A    between atoms: C_1  and  O_8
REMARK    3  A    between atoms: C_3  and  C_19
REMARK    4  A    between atoms: C_5  and  C_9
REMARK    5  A    between atoms: O_8  and  C_12
REMARK    6  A    between atoms: C_15  and  C_16
REMARK    7  A    between atoms: N_20  and  C_22
REMARK    8  A    between atoms: C_22  and  C_23
REMARK    9  A    between atoms: C_23  and  C_24
REMARK                            x       y       z     vdW  Elec       q    Type
REMARK                         _______ _______ _______ _____ _____    ______ ____
ROOT
ATOM      1  C   UNL A   1     -27.064  -0.119  28.608  0.00  0.00    +0.012 A 
ATOM      2  C   UNL A   1     -27.001   0.691  27.491  0.00  0.00    +0.054 A 
ATOM      3  C   UNL A   1     -25.855   1.482  27.083  0.00  0.00    +0.009 A 
ATOM      4  C   UNL A   1     -24.690   1.453  27.881  0.00  0.00    +0.057 A 
ATOM      5  C   UNL A   1     -24.738   0.601  29.042  0.00  0.00    +0.004 A 
ATOM      6  C   UNL A   1     -25.823  -0.169  29.389  0.00  0.00    -0.002 A 
ENDROOT
BRANCH   4   7
ATOM      7  C   UNL A   1     -23.512   2.194  27.572  0.00  0.00    +0.284 C 
ATOM      8  N   UNL A   1     -22.976   2.248  26.305  0.00  0.00    -0.084 NA
ATOM      9  O   UNL A   1     -22.651   2.521  28.489  0.00  0.00    -0.267 OA
ENDBRANCH   4   7
BRANCH   2  10
ATOM     10  C   UNL A   1     -28.141   0.761  26.600  0.00  0.00    +0.265 C 
ATOM     11  N   UNL A   1     -27.972   0.574  25.400  0.00  0.00    -0.201 NA
ATOM     12  O   UNL A   1     -29.291   0.849  27.058  0.00  0.00    -0.268 OA
BRANCH  11  13
ATOM     13  C   UNL A   1     -29.014   0.486  24.368  0.00  0.00    +0.120 C 
BRANCH  13  14
ATOM     14  C   UNL A   1     -29.468  -0.775  24.244  0.00  0.00    +0.050 C 
BRANCH  14  15
ATOM     15  C   UNL A   1     -30.679  -1.096  24.911  0.00  0.00    -0.020 A 
ATOM     16  C   UNL A   1     -31.572  -1.453  24.588  0.00  0.00    -0.004 A 
ATOM     17  C   UNL A   1     -32.805  -1.577  25.155  0.00  0.00    -0.000 A 
ATOM     18  C   UNL A   1     -32.858  -1.397  26.549  0.00  0.00    -0.000 A 
ATOM     19  C   UNL A   1     -31.655  -0.971  27.132  0.00  0.00    -0.000 A 
ATOM     20  C   UNL A   1     -30.588  -0.744  26.400  0.00  0.00    -0.004 A 
ENDBRANCH  14  15
ENDBRANCH  13  14
ENDBRANCH  11  13
ENDBRANCH   2  10
BRANCH   1  21
ATOM     21  C   UNL A   1     -28.016  -0.814  28.878  0.00  0.00    +0.169 C 
BRANCH  21  22
ATOM     22  O   UNL A   1     -28.664  -0.545  29.983  0.00  0.00    -0.347 OA
BRANCH  22  23
ATOM     23  C   UNL A   1     -29.630  -1.323  30.507  0.00  0.00    +0.145 C 
ATOM     24  C   UNL A   1     -30.127  -1.070  31.859  0.00  0.00    -0.001 C 
ATOM     25  C   UNL A   1     -30.884  -1.887  32.437  0.00  0.00    -0.028 C 
ATOM     26  C   UNL A   1     -29.790  -2.663  30.858  0.00  0.00    +0.101 C 
ATOM     27  C   UNL A   1     -30.401  -3.157  31.888  0.00  0.00    +0.036 C 
BRANCH  26  28
ATOM     28  C   UNL A   1     -29.234  -3.555  29.737  0.00  0.00    +0.210 C 
ATOM     29  O   UNL A   1     -29.650  -4.785  29.751  0.00  0.00    -0.288 OA
ENDBRANCH  26  28
ENDBRANCH  22  23
ENDBRANCH  21  22
ENDBRANCH   1  21
TORSDOF 9
