MODEL 3900
MODEL 1
REMARK VINA RESULT:    -6.830      0.000      0.000
REMARK INTER + INTRA:         -12.272
REMARK INTER:                 -10.423
REMARK INTRA:                  -1.849
REMARK UNBOUND:                -1.849
REMARK  Name = No_3900-gen_results/8p0m/2024-11-27-11-27-31/
REMARK  9 active torsions:
REMARK  status: ('A' for Active; 'I' for Inactive)
REMARK    1  A    between atoms: C_1  and  C_2
REMARK    2  A    between atoms: C_1  and  O_8
REMARK    3  A    between atoms: C_3  and  C_19
REMARK    4  A    between atoms: C_5  and  C_9
REMARK    5  A    between atoms: O_8  and  C_12
REMARK    6  A    between atoms: C_15  and  C_16
REMARK    7  A    between atoms: N_20  and  C_22
REMARK    8  A    between atoms: C_22  and  C_23
REMARK    9  A    between atoms: C_23  and  C_24
REMARK                            x       y       z     vdW  Elec       q    Type
REMARK                         _______ _______ _______ _____ _____    ______ ____
ROOT
ATOM      1  C   UNL A   1     -26.065   0.312  26.270  0.00  0.00    +0.012 A 
ATOM      2  C   UNL A   1     -27.340   0.427  26.789  0.00  0.00    +0.054 A 
ATOM      3  C   UNL A   1     -28.549   0.653  26.020  0.00  0.00    +0.009 A 
ATOM      4  C   UNL A   1     -28.449   0.782  24.617  0.00  0.00    +0.057 A 
ATOM      5  C   UNL A   1     -27.126   0.650  24.062  0.00  0.00    +0.004 A 
ATOM      6  C   UNL A   1     -25.998   0.399  24.807  0.00  0.00    -0.002 A 
ENDROOT
BRANCH   4   7
ATOM      7  C   UNL A   1     -29.573   1.008  23.770  0.00  0.00    +0.284 C 
ATOM      8  N   UNL A   1     -30.114   2.258  23.567  0.00  0.00    -0.084 NA
ATOM      9  O   UNL A   1     -30.401   0.054  23.465  0.00  0.00    -0.267 OA
ENDBRANCH   4   7
BRANCH   2  10
ATOM     10  C   UNL A   1     -27.541   0.281  28.216  0.00  0.00    +0.265 C 
ATOM     11  N   UNL A   1     -27.428  -0.829  28.724  0.00  0.00    -0.201 NA
ATOM     12  O   UNL A   1     -27.666   1.283  28.938  0.00  0.00    -0.268 OA
BRANCH  11  13
ATOM     13  C   UNL A   1     -27.475  -1.151  30.157  0.00  0.00    +0.120 C 
BRANCH  13  14
ATOM     14  C   UNL A   1     -26.315  -1.692  30.570  0.00  0.00    +0.050 C 
BRANCH  14  15
ATOM     15  C   UNL A   1     -25.905  -2.901  29.949  0.00  0.00    -0.020 A 
ATOM     16  C   UNL A   1     -26.337  -3.815  29.865  0.00  0.00    -0.004 A 
ATOM     17  C   UNL A   1     -25.895  -5.040  29.463  0.00  0.00    -0.000 A 
ATOM     18  C   UNL A   1     -24.653  -5.054  28.803  0.00  0.00    -0.000 A 
ATOM     19  C   UNL A   1     -23.983  -3.822  28.785  0.00  0.00    -0.000 A 
ATOM     20  C   UNL A   1     -24.493  -2.762  29.371  0.00  0.00    -0.004 A 
ENDBRANCH  14  15
ENDBRANCH  13  14
ENDBRANCH  11  13
ENDBRANCH   2  10
BRANCH   1  21
ATOM     21  C   UNL A   1     -25.090   0.058  26.939  0.00  0.00    +0.169 C 
BRANCH  21  22
ATOM     22  O   UNL A   1     -24.381   1.067  27.377  0.00  0.00    -0.347 OA
BRANCH  22  23
ATOM     23  C   UNL A   1     -23.439   0.976  28.335  0.00  0.00    +0.145 C 
ATOM     24  C   UNL A   1     -22.390  -0.040  28.241  0.00  0.00    -0.001 C 
ATOM     25  C   UNL A   1     -21.619  -0.268  29.204  0.00  0.00    -0.028 C 
ATOM     26  C   UNL A   1     -23.387   0.692  29.699  0.00  0.00    +0.101 C 
ATOM     27  C   UNL A   1     -22.501  -0.000  30.343  0.00  0.00    +0.036 C 
BRANCH  26  28
ATOM     28  C   UNL A   1     -24.505   1.458  30.423  0.00  0.00    +0.210 C 
ATOM     29  O   UNL A   1     -24.142   2.577  30.973  0.00  0.00    -0.288 OA
ENDBRANCH  26  28
ENDBRANCH  22  23
ENDBRANCH  21  22
ENDBRANCH   1  21
TORSDOF 9
ENDMDL
ENDMDL
