REMARK  Name = outputs/IAG933/test6/raw/output_3901_IAG933_linker_design_.xyz
REMARK  11 active torsions:
REMARK  status: ('A' for Active; 'I' for Inactive)
REMARK    1  A    between atoms: C_1  and  C_2
REMARK    2  A    between atoms: C_1  and  C_8
REMARK    3  A    between atoms: C_1  and  C_28
REMARK    4  A    between atoms: C_13  and  N_33
REMARK    5  A    between atoms: C_14  and  C_15
REMARK    6  A    between atoms: C_21  and  O_22
REMARK    7  A    between atoms: O_22  and  C_23
REMARK    8  A    between atoms: C_23  and  C_24
REMARK    9  A    between atoms: C_28  and  N_31
REMARK   10  A    between atoms: C_28  and  C_41
REMARK   11  A    between atoms: C_29  and  N_33
REMARK                            x       y       z     vdW  Elec       q    Type
REMARK                         _______ _______ _______ _____ _____    ______ ____
ROOT
ATOM      1  C   UNL A   1     -23.577   1.173  27.427  0.00  0.00    +0.114 C 
ATOM      2 CL   UNL A   1     -22.784   2.933  25.423  0.00  0.00    -0.041 Cl
ATOM      3  C   UNL A   1     -21.268   0.482  28.060  0.00  0.00    +0.146 C 
ATOM      4  C   UNL A   1     -22.561   1.754  26.674  0.00  0.00    +0.218 C 
ATOM      5  O   UNL A   1     -21.300   1.353  26.962  0.00  0.00    -0.441 OA
ATOM      6  C   UNL A   1     -23.498   0.394  28.496  0.00  0.00    +0.022 C 
ATOM      7  C   UNL A   1     -20.025  -0.027  28.295  0.00  0.00    +0.041 C 
ATOM      8  C   UNL A   1     -22.272   0.022  28.925  0.00  0.00    +0.037 C 
ENDROOT
BRANCH   6   9
ATOM      9  C   UNL A   1     -24.736   0.108  29.184  0.00  0.00    +0.131 C 
BRANCH   9  11
ATOM     10  C   UNL A   1     -29.704   1.600  28.270  0.00  0.00    +0.006 C 
ATOM     11  N   UNL A   1     -25.939   0.989  29.013  0.00  0.00    -0.276 NA
ATOM     12  C   UNL A   1     -29.913   0.227  27.750  0.00  0.00    +0.001 C 
ATOM     13  C   UNL A   1     -27.355   0.637  28.681  0.00  0.00    +0.032 C 
ATOM     14  C   UNL A   1     -28.332   1.819  28.789  0.00  0.00    +0.041 C 
ATOM     15  C   UNL A   1     -27.886  -0.777  28.772  0.00  0.00    +0.041 C 
ATOM     16  C   UNL A   1     -29.398  -0.833  28.706  0.00  0.00    +0.006 C 
ENDBRANCH   9  11
BRANCH   9  17
ATOM     17  C   UNL A   1     -24.855  -1.012  30.143  0.00  0.00    +0.065 C 
BRANCH  17  18
ATOM     18  C   UNL A   1     -24.973  -2.505  29.788  0.00  0.00    -0.019 C 
ATOM     19  C   UNL A   1     -23.906  -3.173  29.146  0.00  0.00    -0.004 C 
ATOM     20  C   UNL A   1     -23.989  -4.549  28.853  0.00  0.00    -0.000 C 
ATOM     21  C   UNL A   1     -25.137  -5.280  29.205  0.00  0.00    -0.000 C 
ATOM     22  C   UNL A   1     -26.232  -4.611  29.784  0.00  0.00    -0.000 C 
ATOM     23  C   UNL A   1     -26.155  -3.232  30.065  0.00  0.00    -0.004 C 
ENDBRANCH  17  18
BRANCH  17  24
ATOM     24  C   UNL A   1     -25.387  -0.679  31.571  0.00  0.00    +0.079 C 
ATOM     25  C   UNL A   1     -25.189   0.773  32.028  0.00  0.00    +0.019 C 
ATOM     26  C   UNL A   1     -25.336   0.684  33.544  0.00  0.00    +0.020 C 
ATOM     27  C   UNL A   1     -24.829  -0.715  33.905  0.00  0.00    +0.089 C 
ATOM     28  N   UNL A   1     -24.758  -1.481  32.646  0.00  0.00    -0.219 NA
ENDBRANCH  17  24
ENDBRANCH   9  17
ENDBRANCH   6   9
BRANCH   1  29
ATOM     29  N   UNL A   1     -24.489   1.370  27.190  0.00  0.00    -0.206 NA
BRANCH  29  30
ATOM     30  C   UNL A   1     -25.688   1.614  26.461  0.00  0.00    +0.108 C 
ATOM     31  C   UNL A   1     -26.250   2.920  26.395  0.00  0.00    +0.092 C 
ATOM     32  C   UNL A   1     -27.438   3.091  25.645  0.00  0.00    +0.108 C 
ATOM     33  N   UNL A   1     -28.075   2.089  25.003  0.00  0.00    -0.208 NA
ATOM     34  C   UNL A   1     -27.543   0.849  25.079  0.00  0.00    +0.255 C 
ATOM     35  C   UNL A   1     -26.354   0.576  25.777  0.00  0.00    +0.208 C 
ATOM     36  F   UNL A   1     -25.860  -0.681  25.795  0.00  0.00    -0.198 F 
BRANCH  31  37
ATOM     37  C   UNL A   1     -25.642   4.093  27.123  0.00  0.00    +0.268 C 
ATOM     38  N   UNL A   1     -25.614   5.252  26.449  0.00  0.00    -0.200 NA
ATOM     39  C   UNL A   1     -25.026   6.479  26.963  0.00  0.00    +0.139 C 
ATOM     40  O   UNL A   1     -25.143   3.966  28.243  0.00  0.00    -0.268 OA
ENDBRANCH  31  37
BRANCH  34  41
ATOM     41  O   UNL A   1     -28.193  -0.208  24.477  0.00  0.00    -0.456 OA
BRANCH  41  42
ATOM     42  C   UNL A   1     -29.460   0.005  23.866  0.00  0.00    +0.243 C 
BRANCH  42  43
ATOM     43  C   UNL A   1     -30.065  -1.377  23.573  0.00  0.00    +0.229 C 
ATOM     44  O   UNL A   1     -30.729  -1.878  24.721  0.00  0.00    -0.216 OA
ENDBRANCH  42  43
ENDBRANCH  41  42
ENDBRANCH  34  41
ENDBRANCH  29  30
ENDBRANCH   1  29
TORSDOF 11
