MODEL 3902
MODEL 1
REMARK VINA RESULT:    -4.816      0.000      0.000
REMARK INTER + INTRA:          -5.418
REMARK INTER:                  -5.379
REMARK INTRA:                  -0.039
REMARK UNBOUND:                -0.039
REMARK  Name = No_3902-gen_results/8p0m/2024-11-27-11-27-31/
REMARK  2 active torsions:
REMARK  status: ('A' for Active; 'I' for Inactive)
REMARK    1  A    between atoms: C_3  and  C_7
REMARK    2  A    between atoms: C_7  and  C_8
REMARK                            x       y       z     vdW  Elec       q    Type
REMARK                         _______ _______ _______ _____ _____    ______ ____
ROOT
ATOM      1  C   UNL A   1     -24.870  -5.125  28.997  0.00  0.00    -0.000 A 
ATOM      2  C   UNL A   1     -24.141  -4.212  28.685  0.00  0.00    -0.004 A 
ATOM      3  C   UNL A   1     -24.423  -2.873  28.954  0.00  0.00    -0.016 A 
ATOM      4  C   UNL A   1     -25.680  -2.530  29.591  0.00  0.00    -0.004 A 
ATOM      5  C   UNL A   1     -26.498  -3.612  29.916  0.00  0.00    -0.000 A 
ATOM      6  C   UNL A   1     -26.158  -4.849  29.613  0.00  0.00    -0.000 A 
ENDROOT
BRANCH   3   7
ATOM      7  C   UNL A   1     -23.575  -1.688  28.608  0.00  0.00    +0.075 C 
BRANCH   7   8
ATOM      8  C   UNL A   1     -22.726  -1.134  29.462  0.00  0.00    +0.100 C 
ATOM      9  N   UNL A   1     -21.456  -0.890  29.016  0.00  0.00    -0.151 NA
ENDBRANCH   7   8
ENDBRANCH   3   7
TORSDOF 2
ENDMDL
ENDMDL
