MODEL 3903
MODEL 1
REMARK VINA RESULT:    -8.052      0.000      0.000
REMARK INTER + INTRA:         -12.327
REMARK INTER:                 -10.876
REMARK INTRA:                  -1.452
REMARK UNBOUND:                -1.452
REMARK  Name = No_3903-gen_results/8p0m/2024-11-27-11-27-31/
REMARK  6 active torsions:
REMARK  status: ('A' for Active; 'I' for Inactive)
REMARK    1  A    between atoms: C_1  and  N_18
REMARK    2  A    between atoms: C_3  and  C_7
REMARK    3  A    between atoms: C_5  and  C_13
REMARK    4  A    between atoms: C_11  and  O_16
REMARK    5  A    between atoms: O_16  and  C_17
REMARK    6  A    between atoms: C_17  and  C_24
REMARK                            x       y       z     vdW  Elec       q    Type
REMARK                         _______ _______ _______ _____ _____    ______ ____
ROOT
ATOM      1  C   UNL A   1      -8.551   0.323  35.461  0.00  0.00    +0.048 A 
ATOM      2  C   UNL A   1      -9.083  -0.426  36.246  0.00  0.00    +0.015 A 
ATOM      3  C   UNL A   1     -10.342  -0.244  36.794  0.00  0.00    +0.002 A 
ATOM      4  C   UNL A   1     -11.073   0.905  36.371  0.00  0.00    +0.007 A 
ATOM      5  C   UNL A   1     -10.527   1.633  35.383  0.00  0.00    +0.081 A 
ATOM      6  C   UNL A   1      -9.352   1.360  34.895  0.00  0.00    +0.021 A 
ENDROOT
BRANCH   3   7
ATOM      7  C   UNL A   1     -10.903  -1.131  37.874  0.00  0.00    +0.003 A 
ATOM      8  C   UNL A   1     -11.784  -1.918  37.895  0.00  0.00    +0.000 A 
ATOM      9  C   UNL A   1     -12.209  -2.713  39.067  0.00  0.00    +0.003 A 
ATOM     10  C   UNL A   1     -11.633  -2.394  40.312  0.00  0.00    +0.037 A 
ATOM     11  C   UNL A   1     -10.731  -1.316  40.371  0.00  0.00    +0.139 A 
ATOM     12  C   UNL A   1     -10.319  -0.666  39.228  0.00  0.00    +0.037 A 
BRANCH  11  13
ATOM     13  O   UNL A   1     -10.243  -1.051  41.608  0.00  0.00    -0.471 OA
BRANCH  13  14
ATOM     14  C   UNL A   1     -10.170  -2.142  42.436  0.00  0.00    +0.232 C 
BRANCH  14  15
ATOM     15  C   UNL A   1      -8.982  -2.764  42.608  0.00  0.00    +0.021 A 
ATOM     16  C   UNL A   1      -8.750  -4.206  42.531  0.00  0.00    -0.001 A 
ATOM     17  C   UNL A   1      -7.478  -4.725  42.839  0.00  0.00    -0.000 A 
ATOM     18  C   UNL A   1      -6.515  -4.289  42.535  0.00  0.00    -0.000 A 
ATOM     19  C   UNL A   1      -6.461  -2.776  42.247  0.00  0.00    -0.000 A 
ATOM     20  C   UNL A   1      -7.644  -2.096  42.247  0.00  0.00    -0.001 A 
ENDBRANCH  14  15
ENDBRANCH  13  14
ENDBRANCH  11  13
ENDBRANCH   3   7
BRANCH   1  21
ATOM     21  N   UNL A   1      -7.285   0.076  34.910  0.00  0.00    -0.307 N 
ATOM     22  C   UNL A   1      -6.194   0.554  35.115  0.00  0.00    +0.091 C 
ATOM     23  C   UNL A   1      -7.275  -1.298  34.327  0.00  0.00    +0.091 C 
ATOM     24  C   UNL A   1      -6.188  -2.147  34.611  0.00  0.00    +0.021 C 
ATOM     25  C   UNL A   1      -4.986  -0.215  35.303  0.00  0.00    +0.021 C 
ATOM     26  C   UNL A   1      -4.903  -1.518  34.813  0.00  0.00    +0.004 C 
ENDBRANCH   1  21
BRANCH   5  27
ATOM     27  C   UNL A   1     -11.344   2.770  34.890  0.00  0.00    +0.388 C 
ATOM     28  O   UNL A   1     -10.944   3.517  34.229  0.00  0.00    -0.241 OA
ATOM     29  O   UNL A   1     -12.680   2.516  34.880  0.00  0.00    -0.241 OA
ENDBRANCH   5  27
TORSDOF 6
ENDMDL
ENDMDL
