REMARK  Name = outputs/IAG933/test6/raw/output_3903_IAG933_linker_design_.xyz
REMARK  19 active torsions:
REMARK  status: ('A' for Active; 'I' for Inactive)
REMARK    1  A    between atoms: C_1  and  C_2
REMARK    2  A    between atoms: C_1  and  C_8
REMARK    3  A    between atoms: C_1  and  C_36
REMARK    4  A    between atoms: C_13  and  S_30
REMARK    5  A    between atoms: C_14  and  C_15
REMARK    6  A    between atoms: C_21  and  O_22
REMARK    7  A    between atoms: O_22  and  C_23
REMARK    8  A    between atoms: C_23  and  C_24
REMARK    9  A    between atoms: C_28  and  S_30
REMARK   10  A    between atoms: C_28  and  C_31
REMARK   11  A    between atoms: C_28  and  C_36
REMARK   12  A    between atoms: N_29  and  C_36
REMARK   13  A    between atoms: C_32  and  C_41
REMARK   14  A    between atoms: C_33  and  C_37
REMARK   15  A    between atoms: C_33  and  N_43
REMARK   16  A    between atoms: N_38  and  C_41
REMARK   17  A    between atoms: N_38  and  C_42
REMARK   18  A    between atoms: C_39  and  C_42
REMARK   19  A    between atoms: C_39  and  N_43
REMARK                            x       y       z     vdW  Elec       q    Type
REMARK                         _______ _______ _______ _____ _____    ______ ____
ROOT
ATOM      1  C   UNL A   1     -24.985   0.031  28.981  0.00  0.00    +0.111 C 
ENDROOT
BRANCH   1   2
ATOM      2  N   UNL A   1     -26.056   0.921  29.343  0.00  0.00    -0.205 NA
ATOM      3  C   UNL A   1     -27.290   0.474  29.132  0.00  0.00    +0.257 C 
ATOM      4  O   UNL A   1     -27.624  -0.737  28.880  0.00  0.00    -0.272 OA
BRANCH   3   6
ATOM      5  C   UNL A   1     -28.009   2.401  30.413  0.00  0.00    +0.029 C 
ATOM      6  C   UNL A   1     -28.247   1.449  29.316  0.00  0.00    +0.150 C 
BRANCH   6   7
ATOM      7  N   UNL A   1     -29.326   1.537  28.451  0.00  0.00    -0.209 NA
BRANCH   7   8
ATOM      8  C   UNL A   1     -29.741   0.262  27.859  0.00  0.00    +0.108 C 
BRANCH   8   9
ATOM      9  C   UNL A   1     -30.869   0.436  26.844  0.00  0.00    +0.107 C 
BRANCH   9  10
ATOM     10  N   UNL A   1     -31.748   1.505  27.174  0.00  0.00    -0.215 NA
BRANCH  10  11
ATOM     11  C   UNL A   1     -32.200   1.594  28.376  0.00  0.00    +0.109 C 
BRANCH  11  12
ATOM     12  C   UNL A   1     -32.957   2.700  28.284  0.00  0.00    +0.128 C 
ATOM     13  N   UNL A   1     -32.216   3.781  27.690  0.00  0.00    -0.130 NA
ENDBRANCH  11  12
ENDBRANCH  10  11
ENDBRANCH   9  10
ENDBRANCH   8   9
ENDBRANCH   7   8
ENDBRANCH   6   7
ENDBRANCH   3   6
ENDBRANCH   1   2
BRANCH   1  14
ATOM     14  C   UNL A   1     -24.855  -1.012  30.143  0.00  0.00    +0.059 C 
BRANCH  14  15
ATOM     15  C   UNL A   1     -24.973  -2.505  29.788  0.00  0.00    -0.019 C 
ATOM     16  C   UNL A   1     -23.906  -3.173  29.146  0.00  0.00    -0.004 C 
ATOM     17  C   UNL A   1     -23.989  -4.549  28.853  0.00  0.00    -0.000 C 
ATOM     18  C   UNL A   1     -25.137  -5.280  29.205  0.00  0.00    -0.000 C 
ATOM     19  C   UNL A   1     -26.232  -4.611  29.784  0.00  0.00    -0.000 C 
ATOM     20  C   UNL A   1     -26.155  -3.232  30.065  0.00  0.00    -0.004 C 
ENDBRANCH  14  15
BRANCH  14  21
ATOM     21  C   UNL A   1     -25.387  -0.679  31.571  0.00  0.00    +0.079 C 
ATOM     22  C   UNL A   1     -25.189   0.773  32.028  0.00  0.00    +0.019 C 
ATOM     23  C   UNL A   1     -25.336   0.684  33.544  0.00  0.00    +0.020 C 
ATOM     24  C   UNL A   1     -24.829  -0.715  33.905  0.00  0.00    +0.089 C 
ATOM     25  N   UNL A   1     -24.758  -1.481  32.646  0.00  0.00    -0.219 NA
ENDBRANCH  14  21
ENDBRANCH   1  14
BRANCH   1  26
ATOM     26  C   UNL A   1     -23.902   0.936  28.343  0.00  0.00    +0.068 C 
BRANCH  26  27
ATOM     27  C   UNL A   1     -22.505   0.459  28.760  0.00  0.00    +0.013 C 
ATOM     28  C   UNL A   1     -21.465   1.265  27.926  0.00  0.00    +0.001 C 
ENDBRANCH  26  27
BRANCH  26  29
ATOM     29  S   UNL A   1     -23.983   1.335  26.564  0.00  0.00    -0.132 S 
BRANCH  29  30
ATOM     30  C   UNL A   1     -25.688   1.614  26.461  0.00  0.00    +0.117 C 
ATOM     31  C   UNL A   1     -26.250   2.920  26.395  0.00  0.00    +0.065 C 
ATOM     32  C   UNL A   1     -27.438   3.091  25.645  0.00  0.00    +0.103 C 
ATOM     33  N   UNL A   1     -28.075   2.089  25.003  0.00  0.00    -0.212 NA
ATOM     34  C   UNL A   1     -27.543   0.849  25.079  0.00  0.00    +0.235 C 
ATOM     35  C   UNL A   1     -26.354   0.576  25.777  0.00  0.00    +0.250 C 
ATOM     36  F   UNL A   1     -25.860  -0.681  25.795  0.00  0.00    -0.226 F 
BRANCH  31  37
ATOM     37  C   UNL A   1     -25.642   4.093  27.123  0.00  0.00    +0.263 C 
ATOM     38  N   UNL A   1     -25.614   5.252  26.449  0.00  0.00    -0.200 NA
ATOM     39  C   UNL A   1     -25.026   6.479  26.963  0.00  0.00    +0.139 C 
ATOM     40  O   UNL A   1     -25.143   3.966  28.243  0.00  0.00    -0.269 OA
ENDBRANCH  31  37
BRANCH  34  41
ATOM     41  O   UNL A   1     -28.193  -0.208  24.477  0.00  0.00    -0.459 OA
BRANCH  41  42
ATOM     42  C   UNL A   1     -29.460   0.005  23.866  0.00  0.00    +0.242 C 
BRANCH  42  43
ATOM     43  C   UNL A   1     -30.065  -1.377  23.573  0.00  0.00    +0.229 C 
ATOM     44  O   UNL A   1     -30.729  -1.878  24.721  0.00  0.00    -0.216 OA
ENDBRANCH  42  43
ENDBRANCH  41  42
ENDBRANCH  34  41
ENDBRANCH  29  30
ENDBRANCH  26  29
ENDBRANCH   1  26
TORSDOF 19
