REMARK  Name = outputs/IAG933/test6/raw/output_3904_IAG933_linker_design_.xyz
REMARK  13 active torsions:
REMARK  status: ('A' for Active; 'I' for Inactive)
REMARK    1  A    between atoms: C_1  and  C_2
REMARK    2  A    between atoms: C_1  and  C_8
REMARK    3  A    between atoms: C_1  and  N_39
REMARK    4  A    between atoms: C_13  and  C_41
REMARK    5  A    between atoms: C_14  and  C_15
REMARK    6  A    between atoms: C_21  and  O_22
REMARK    7  A    between atoms: O_22  and  C_23
REMARK    8  A    between atoms: C_23  and  C_24
REMARK    9  A    between atoms: C_30  and  N_39
REMARK   10  A    between atoms: C_30  and  C_46
REMARK   11  A    between atoms: C_31  and  N_39
REMARK   12  A    between atoms: C_37  and  C_44
REMARK   13  A    between atoms: C_42  and  C_46
REMARK                            x       y       z     vdW  Elec       q    Type
REMARK                         _______ _______ _______ _____ _____    ______ ____
ROOT
ATOM      1  C   UNL A   1     -21.782   1.113  27.540  0.00  0.00    +0.011 C 
ATOM      2  C   UNL A   1     -24.135   0.600  28.067  0.00  0.00    +0.058 C 
ATOM      3  C   UNL A   1     -22.077   1.799  26.389  0.00  0.00    +0.001 C 
ATOM      4  C   UNL A   1     -23.415   1.961  26.046  0.00  0.00    +0.001 C 
ATOM      5  C   UNL A   1     -24.405   1.374  26.885  0.00  0.00    +0.017 C 
ATOM      6  C   UNL A   1     -22.802   0.507  28.281  0.00  0.00    +0.082 C 
ENDROOT
BRANCH   5   7
ATOM      7  C   UNL A   1     -25.688   1.614  26.461  0.00  0.00    +0.039 C 
ATOM      8  C   UNL A   1     -26.250   2.920  26.395  0.00  0.00    +0.077 C 
ATOM      9  C   UNL A   1     -27.438   3.091  25.645  0.00  0.00    +0.107 C 
ATOM     10  N   UNL A   1     -28.075   2.089  25.003  0.00  0.00    -0.208 NA
ATOM     11  C   UNL A   1     -27.543   0.849  25.079  0.00  0.00    +0.253 C 
ATOM     12  C   UNL A   1     -26.354   0.576  25.777  0.00  0.00    +0.193 C 
ATOM     13  F   UNL A   1     -25.860  -0.681  25.795  0.00  0.00    -0.199 F 
BRANCH   8  14
ATOM     14  C   UNL A   1     -25.642   4.093  27.123  0.00  0.00    +0.266 C 
ATOM     15  N   UNL A   1     -25.614   5.252  26.449  0.00  0.00    -0.200 NA
ATOM     16  C   UNL A   1     -25.026   6.479  26.963  0.00  0.00    +0.139 C 
ATOM     17  O   UNL A   1     -25.143   3.966  28.243  0.00  0.00    -0.268 OA
ENDBRANCH   8  14
BRANCH  11  18
ATOM     18  O   UNL A   1     -28.193  -0.208  24.477  0.00  0.00    -0.456 OA
BRANCH  18  19
ATOM     19  C   UNL A   1     -29.460   0.005  23.866  0.00  0.00    +0.243 C 
BRANCH  19  20
ATOM     20  C   UNL A   1     -30.065  -1.377  23.573  0.00  0.00    +0.229 C 
ATOM     21  O   UNL A   1     -30.729  -1.878  24.721  0.00  0.00    -0.216 OA
ENDBRANCH  19  20
ENDBRANCH  18  19
ENDBRANCH  11  18
ENDBRANCH   5   7
BRANCH   6  22
ATOM     22  C   UNL A   1     -22.285  -0.207  29.351  0.00  0.00    +0.102 C 
ATOM     23  N   UNL A   1     -21.865  -0.776  30.038  0.00  0.00    -0.191 NA
ENDBRANCH   6  22
BRANCH   2  24
ATOM     24  N   UNL A   1     -25.220  -0.005  28.954  0.00  0.00    -0.301 N 
BRANCH  24  25
ATOM     25  C   UNL A   1     -24.855  -1.012  30.143  0.00  0.00    +0.111 C 
BRANCH  25  26
ATOM     26  C   UNL A   1     -24.973  -2.505  29.788  0.00  0.00    -0.003 C 
ATOM     27  C   UNL A   1     -23.906  -3.173  29.146  0.00  0.00    -0.003 C 
ATOM     28  C   UNL A   1     -23.989  -4.549  28.853  0.00  0.00    -0.000 C 
ATOM     29  C   UNL A   1     -25.137  -5.280  29.205  0.00  0.00    -0.000 C 
ATOM     30  C   UNL A   1     -26.232  -4.611  29.784  0.00  0.00    -0.000 C 
ATOM     31  C   UNL A   1     -26.155  -3.232  30.065  0.00  0.00    -0.003 C 
ENDBRANCH  25  26
BRANCH  25  32
ATOM     32  C   UNL A   1     -25.387  -0.679  31.571  0.00  0.00    +0.095 C 
ATOM     33  C   UNL A   1     -25.189   0.773  32.028  0.00  0.00    +0.021 C 
ATOM     34  C   UNL A   1     -25.336   0.684  33.544  0.00  0.00    +0.020 C 
ATOM     35  C   UNL A   1     -24.829  -0.715  33.905  0.00  0.00    +0.089 C 
ATOM     36  N   UNL A   1     -24.758  -1.481  32.646  0.00  0.00    -0.217 NA
ENDBRANCH  25  32
ENDBRANCH  24  25
BRANCH  24  37
ATOM     37  C   UNL A   1     -26.683  -0.230  28.488  0.00  0.00    +0.134 C 
BRANCH  37  39
ATOM     38  O   UNL A   1     -27.769   1.800  29.265  0.00  0.00    -0.211 OA
ATOM     39  C   UNL A   1     -27.898   0.369  29.226  0.00  0.00    +0.247 C 
BRANCH  39  45
ATOM     40  O   UNL A   1     -29.360  -1.517  28.838  0.00  0.00    -0.272 OA
ATOM     41  C   UNL A   1     -31.687   2.275  28.686  0.00  0.00    +0.023 C 
ATOM     42  N   UNL A   1     -30.185   0.483  28.253  0.00  0.00    -0.277 N 
ATOM     43  C   UNL A   1     -31.291   2.260  27.234  0.00  0.00    +0.023 C 
ATOM     44  C   UNL A   1     -30.923   1.135  29.339  0.00  0.00    +0.093 C 
ATOM     45  C   UNL A   1     -29.216  -0.260  28.712  0.00  0.00    +0.258 C 
ATOM     46  C   UNL A   1     -30.814   0.836  26.963  0.00  0.00    +0.093 C 
ENDBRANCH  39  45
ENDBRANCH  37  39
ENDBRANCH  24  37
ENDBRANCH   2  24
TORSDOF 13
