MODEL 3905
MODEL 1
REMARK VINA RESULT:    -5.518      0.000      0.000
REMARK INTER + INTRA:          -6.492
REMARK INTER:                  -6.163
REMARK INTRA:                  -0.328
REMARK UNBOUND:                -0.328
REMARK  Name = No_3905-gen_results/8p0m/2024-11-27-11-27-31/
REMARK  2 active torsions:
REMARK  status: ('A' for Active; 'I' for Inactive)
REMARK    1  A    between atoms: C_1  and  C_8
REMARK    2  A    between atoms: C_5  and  C_12
REMARK                            x       y       z     vdW  Elec       q    Type
REMARK                         _______ _______ _______ _____ _____    ______ ____
ROOT
ATOM      1  C   UNL A   1     -23.929   1.958  27.072  0.00  0.00    +0.067 C 
ATOM      2  C   UNL A   1     -23.952   0.834  27.519  0.00  0.00    -0.040 C 
ATOM      3  C   UNL A   1     -22.918   0.283  28.274  0.00  0.00    +0.022 C 
ATOM      4  C   UNL A   1     -22.858  -1.076  28.846  0.00  0.00    +0.012 C 
ATOM      5  C   UNL A   1     -24.070  -1.829  28.787  0.00  0.00    +0.066 C 
ATOM      6  C   UNL A   1     -25.150  -1.293  28.078  0.00  0.00    +0.012 C 
ATOM      7  C   UNL A   1     -25.046  -0.087  27.258  0.00  0.00    +0.022 C 
ENDROOT
BRANCH   1   8
ATOM      8  C   UNL A   1     -23.158   2.075  25.788  0.00  0.00    +0.418 C 
ATOM      9  F   UNL A   1     -23.228   3.327  25.286  0.00  0.00    -0.166 F 
ATOM     10  F   UNL A   1     -23.583   1.339  24.737  0.00  0.00    -0.166 F 
ATOM     11  F   UNL A   1     -21.866   2.196  25.911  0.00  0.00    -0.166 F 
ENDBRANCH   1   8
BRANCH   5  12
ATOM     12  C   UNL A   1     -24.060  -3.147  29.357  0.00  0.00    +0.207 C 
ATOM     13  O   UNL A   1     -23.723  -4.098  28.635  0.00  0.00    -0.288 OA
ENDBRANCH   5  12
TORSDOF 2
ENDMDL
ENDMDL
