MODEL 3906
MODEL 1
REMARK VINA RESULT:    -4.267      0.000      0.000
REMARK INTER + INTRA:          -4.267
REMARK INTER:                  -4.267
REMARK INTRA:                   0.000
REMARK UNBOUND:                 0.000
REMARK  Name = No_3906-gen_results/8p0m/2024-11-27-11-27-31/
REMARK  0 active torsions:
REMARK  status: ('A' for Active; 'I' for Inactive)
REMARK                            x       y       z     vdW  Elec       q    Type
REMARK                         _______ _______ _______ _____ _____    ______ ____
ROOT
ATOM      1  C   UNL A   1     -26.077  -4.801  29.666  0.00  0.00    +0.000 A 
ATOM      2  C   UNL A   1     -26.208  -3.599  29.713  0.00  0.00    +0.000 A 
ATOM      3  C   UNL A   1     -25.234  -2.708  29.308  0.00  0.00    +0.000 A 
ATOM      4  C   UNL A   1     -24.027  -3.237  28.771  0.00  0.00    +0.000 A 
ATOM      5  C   UNL A   1     -23.997  -4.577  28.581  0.00  0.00    +0.000 A 
ATOM      6  C   UNL A   1     -24.995  -5.351  28.962  0.00  0.00    +0.000 A 
ENDROOT
TORSDOF 0
ENDMDL
ENDMDL
