REMARK  Name = No_3907-gen_results/8p0m/2024-11-27-11-27-31/
REMARK  5 active torsions:
REMARK  status: ('A' for Active; 'I' for Inactive)
REMARK    1  A    between atoms: C_2  and  C_3
REMARK    2  A    between atoms: C_5  and  C_13
REMARK    3  A    between atoms: N_15  and  C_16
REMARK    4  A    between atoms: C_18  and  C_19
REMARK    5  A    between atoms: C_20  and  C_21
REMARK                            x       y       z     vdW  Elec       q    Type
REMARK                         _______ _______ _______ _____ _____    ______ ____
ROOT
ATOM      1  C   UNL A   1     -28.016  -0.814  28.878  0.00  0.00    +0.004 A 
ATOM      2  C   UNL A   1     -27.064  -0.119  28.608  0.00  0.00    +0.000 A 
ATOM      3  C   UNL A   1     -28.059  -1.396  30.214  0.00  0.00    +0.054 A 
ATOM      4  C   UNL A   1     -26.895  -1.608  30.918  0.00  0.00    +0.004 A 
ATOM      5  C   UNL A   1     -25.784  -0.225  29.376  0.00  0.00    +0.000 A 
ATOM      6  C   UNL A   1     -25.752  -0.958  30.532  0.00  0.00    +0.000 A 
ENDROOT
BRANCH   2   7
ATOM      7  C   UNL A   1     -27.001   0.691  27.491  0.00  0.00    +0.000 A 
ATOM      8  C   UNL A   1     -27.178   1.904  27.563  0.00  0.00    +0.000 A 
ATOM      9  C   UNL A   1     -27.117   2.795  26.362  0.00  0.00    +0.000 A 
ATOM     10  C   UNL A   1     -26.851   2.209  25.124  0.00  0.00    +0.000 A 
ATOM     11  C   UNL A   1     -26.668   0.169  26.164  0.00  0.00    +0.000 A 
ATOM     12  C   UNL A   1     -26.611   0.919  25.036  0.00  0.00    +0.000 A 
ENDBRANCH   2   7
BRANCH   3  13
ATOM     13  C   UNL A   1     -29.290  -2.178  30.643  0.00  0.00    +0.260 C 
ATOM     14  O   UNL A   1     -30.250  -1.725  30.811  0.00  0.00    -0.269 OA
ATOM     15  N   UNL A   1     -29.096  -3.561  30.790  0.00  0.00    -0.213 N 
ATOM     16  C   UNL A   1     -27.854  -4.299  30.520  0.00  0.00    +0.131 C 
BRANCH  15  17
ATOM     17  C   UNL A   1     -30.208  -4.438  31.074  0.00  0.00    +0.011 C 
ATOM     18  C   UNL A   1     -30.675  -5.333  31.280  0.00  0.00    -0.044 C 
BRANCH  18  19
ATOM     19  C   UNL A   1     -29.932  -6.390  31.972  0.00  0.00    +0.051 C 
ATOM     20  C   UNL A   1     -30.475  -7.798  32.057  0.00  0.00    +0.009 C 
BRANCH  20  21
ATOM     21  C   UNL A   1     -31.616  -8.024  31.342  0.00  0.00    +0.001 C 
ATOM     22  C   UNL A   1     -32.293  -7.050  30.623  0.00  0.00    +0.000 C 
ENDBRANCH  20  21
ENDBRANCH  18  19
ENDBRANCH  15  17
ENDBRANCH   3  13
TORSDOF 5
