MODEL 3908
MODEL 1
REMARK VINA RESULT:    -7.339      0.000      0.000
REMARK INTER + INTRA:          -9.145
REMARK INTER:                  -8.627
REMARK INTRA:                  -0.518
REMARK UNBOUND:                -0.518
REMARK  Name = No_3908-gen_results/8p0m/2024-11-27-11-27-31/
REMARK  3 active torsions:
REMARK  status: ('A' for Active; 'I' for Inactive)
REMARK    1  A    between atoms: C_3  and  C_7
REMARK    2  A    between atoms: C_5  and  C_13
REMARK    3  A    between atoms: C_11  and  O_21
REMARK                            x       y       z     vdW  Elec       q    Type
REMARK                         _______ _______ _______ _____ _____    ______ ____
ROOT
ATOM      1  C   UNL A   1     -22.363   2.231  26.480  0.00  0.00    +0.000 A 
ATOM      2  C   UNL A   1     -23.456   2.084  25.984  0.00  0.00    +0.000 A 
ATOM      3  C   UNL A   1     -24.368   1.106  26.341  0.00  0.00    +0.000 A 
ATOM      4  C   UNL A   1     -23.994   0.225  27.398  0.00  0.00    +0.004 A 
ATOM      5  C   UNL A   1     -22.847   0.508  28.037  0.00  0.00    +0.054 A 
ATOM      6  C   UNL A   1     -22.069   1.481  27.658  0.00  0.00    +0.004 A 
ENDROOT
BRANCH   5   7
ATOM      7  C   UNL A   1     -22.519  -0.361  29.194  0.00  0.00    +0.249 C 
ATOM      8  N   UNL A   1     -23.130  -0.111  30.352  0.00  0.00    -0.276 N 
ATOM      9  O   UNL A   1     -21.967  -1.442  29.089  0.00  0.00    -0.270 OA
ATOM     10  C   UNL A   1     -23.930   0.986  30.640  0.00  0.00    +0.094 C 
ATOM     11  C   UNL A   1     -25.045   0.564  31.632  0.00  0.00    +0.022 C 
ATOM     12  C   UNL A   1     -24.624  -0.013  32.739  0.00  0.00    +0.004 C 
ATOM     13  C   UNL A   1     -23.457  -0.967  32.617  0.00  0.00    +0.022 C 
ATOM     14  C   UNL A   1     -22.907  -1.007  31.389  0.00  0.00    +0.094 C 
ENDBRANCH   5   7
BRANCH   3  15
ATOM     15  C   UNL A   1     -25.659   0.876  25.598  0.00  0.00    +0.003 A 
ATOM     16  C   UNL A   1     -26.075  -0.031  24.966  0.00  0.00    +0.000 A 
ATOM     17  C   UNL A   1     -27.388  -0.086  24.290  0.00  0.00    +0.003 A 
ATOM     18  C   UNL A   1     -28.147   1.100  24.247  0.00  0.00    +0.037 A 
ATOM     19  C   UNL A   1     -27.592   2.266  24.805  0.00  0.00    +0.139 A 
ATOM     20  C   UNL A   1     -26.396   2.230  25.489  0.00  0.00    +0.037 A 
BRANCH  19  21
ATOM     21  O   UNL A   1     -28.365   3.372  24.700  0.00  0.00    -0.471 OA
ATOM     22  C   UNL A   1     -28.310   4.107  25.883  0.00  0.00    +0.253 C 
ENDBRANCH  19  21
ENDBRANCH   3  15
TORSDOF 3
ENDMDL
ENDMDL
