MODEL 3909
MODEL 1
REMARK VINA RESULT:    -5.046      0.000      0.000
REMARK INTER + INTRA:          -5.046
REMARK INTER:                  -5.046
REMARK INTRA:                   0.000
REMARK UNBOUND:                 0.000
REMARK  Name = No_3909-gen_results/8p0m/2024-11-27-11-27-31/
REMARK  0 active torsions:
REMARK  status: ('A' for Active; 'I' for Inactive)
REMARK                            x       y       z     vdW  Elec       q    Type
REMARK                         _______ _______ _______ _____ _____    ______ ____
ROOT
ATOM      1  C   UNL A   1      -9.140  -9.162  20.180  0.00  0.00    +0.053 A 
ATOM      2  C   UNL A   1      -8.166  -9.865  20.040  0.00  0.00    +0.061 A 
ATOM      3  C   UNL A   1      -8.020 -10.675  18.919  0.00  0.00    +0.012 A 
ATOM      4  C   UNL A   1      -9.047 -10.737  17.911  0.00  0.00    +0.004 A 
ATOM      5  C   UNL A   1     -10.149  -9.911  18.164  0.00  0.00    +0.042 A 
ATOM      6  C   UNL A   1     -10.247  -9.176  19.249  0.00  0.00    +0.197 A 
ATOM      7 CL   UNL A   1      -6.873  -9.952  21.160  0.00  0.00    -0.082 Cl
ATOM      8  O   UNL A   1     -11.375  -8.422  19.429  0.00  0.00    -0.286 OA
ENDROOT
TORSDOF 0
ENDMDL
ENDMDL
