MODEL 390
MODEL 1
REMARK VINA RESULT:    -6.127      0.000      0.000
REMARK INTER + INTRA:          -5.694
REMARK INTER:                  -6.486
REMARK INTRA:                   0.791
REMARK UNBOUND:                 0.791
REMARK  Name = No_390-gen_results/8p0m/2024-11-27-11-27-31/
REMARK  1 active torsions:
REMARK  status: ('A' for Active; 'I' for Inactive)
REMARK    1  A    between atoms: C_2  and  C_3
REMARK                            x       y       z     vdW  Elec       q    Type
REMARK                         _______ _______ _______ _____ _____    ______ ____
ROOT
ATOM      1  O   UNL A   1     -23.385  -0.540  30.710  0.00  0.00    -0.270 OA
ATOM      2  C   UNL A   1     -23.894  -1.134  29.864  0.00  0.00    +0.249 C 
ATOM      3  N   UNL A   1     -23.975  -0.262  28.586  0.00  0.00    -0.276 N 
ATOM      4  C   UNL A   1     -23.353   0.830  28.381  0.00  0.00    +0.094 C 
ATOM      5  C   UNL A   1     -23.567   1.211  26.912  0.00  0.00    +0.022 C 
ATOM      6  C   UNL A   1     -24.632   0.751  26.183  0.00  0.00    +0.004 C 
ATOM      7  C   UNL A   1     -25.350  -0.268  26.621  0.00  0.00    +0.022 C 
ATOM      8  C   UNL A   1     -25.050  -0.838  27.817  0.00  0.00    +0.094 C 
ENDROOT
BRANCH   2   9
ATOM      9  C   UNL A   1     -24.400  -2.075  29.678  0.00  0.00    +0.054 A 
ATOM     10  C   UNL A   1     -23.812  -3.214  29.035  0.00  0.00    +0.004 A 
ATOM     11  C   UNL A   1     -25.845  -2.570  30.113  0.00  0.00    +0.004 A 
ATOM     12  C   UNL A   1     -26.354  -3.750  29.898  0.00  0.00    +0.000 A 
ATOM     13  C   UNL A   1     -24.346  -4.526  28.733  0.00  0.00    +0.000 A 
ATOM     14  C   UNL A   1     -25.634  -4.784  29.181  0.00  0.00    +0.000 A 
ENDBRANCH   2   9
TORSDOF 1
ENDMDL
ENDMDL
