MODEL 3910
MODEL 1
REMARK VINA RESULT:    -7.634      0.000      0.000
REMARK INTER + INTRA:          -9.357
REMARK INTER:                  -8.527
REMARK INTRA:                  -0.831
REMARK UNBOUND:                -0.831
REMARK  Name = No_3910-gen_results/8p0m/2024-11-27-11-27-31/
REMARK  2 active torsions:
REMARK  status: ('A' for Active; 'I' for Inactive)
REMARK    1  A    between atoms: C_6  and  C_8
REMARK    2  A    between atoms: C_14  and  C_18
REMARK                            x       y       z     vdW  Elec       q    Type
REMARK                         _______ _______ _______ _____ _____    ______ ____
ROOT
ATOM      1  C   UNL A   1     -27.096   0.781  25.767  0.00  0.00    +0.000 A 
ATOM      2  C   UNL A   1     -26.956   0.271  26.702  0.00  0.00    +0.000 A 
ATOM      3  C   UNL A   1     -25.774   0.204  27.547  0.00  0.00    +0.000 A 
ATOM      4  C   UNL A   1     -25.765   1.262  25.282  0.00  0.00    +0.000 A 
ATOM      5  C   UNL A   1     -24.621   1.286  25.897  0.00  0.00    +0.000 A 
ATOM      6  C   UNL A   1     -24.631   0.708  27.124  0.00  0.00    +0.000 A 
ATOM      7  C   UNL A   1     -23.394   0.641  27.948  0.00  0.00    +0.000 A 
ATOM      8  C   UNL A   1     -22.409   1.425  27.629  0.00  0.00    +0.000 A 
ATOM      9  C   UNL A   1     -22.374   1.979  26.301  0.00  0.00    +0.000 A 
ATOM     10  C   UNL A   1     -23.461   2.046  25.468  0.00  0.00    +0.000 A 
ENDROOT
BRANCH   1  16
ATOM     11  C   UNL A   1     -29.472   2.378  23.312  0.00  0.00    +0.011 A 
ATOM     12  C   UNL A   1     -30.215   1.459  23.057  0.00  0.00    +0.058 A 
ATOM     13  C   UNL A   1     -30.080   0.209  23.570  0.00  0.00    +0.011 A 
ATOM     14  C   UNL A   1     -29.012  -0.039  24.452  0.00  0.00    +0.001 A 
ATOM     15  C   UNL A   1     -28.416   2.220  24.280  0.00  0.00    +0.001 A 
ATOM     16  C   UNL A   1     -28.220   0.977  24.801  0.00  0.00    +0.000 A 
ATOM     17 CL   UNL A   1     -31.574   1.663  21.986  0.00  0.00    -0.082 Cl
ENDBRANCH   1  16
BRANCH   7  18
ATOM     18  C   UNL A   1     -23.454   0.005  29.221  0.00  0.00    +0.000 A 
ATOM     19  C   UNL A   1     -23.555   0.733  30.346  0.00  0.00    +0.000 A 
ATOM     20  C   UNL A   1     -23.680   0.117  31.602  0.00  0.00    +0.000 A 
ATOM     21  C   UNL A   1     -23.497  -1.384  29.225  0.00  0.00    +0.000 A 
ATOM     22  C   UNL A   1     -23.574  -2.042  30.478  0.00  0.00    +0.000 A 
ATOM     23  C   UNL A   1     -23.616  -1.251  31.638  0.00  0.00    +0.000 A 
ENDBRANCH   7  18
TORSDOF 2
ENDMDL
ENDMDL
