REMARK  Name = outputs/IAG933/test6/raw/output_3911_IAG933_linker_design_.xyz
REMARK  14 active torsions:
REMARK  status: ('A' for Active; 'I' for Inactive)
REMARK    1  A    between atoms: C_1  and  C_2
REMARK    2  A    between atoms: C_1  and  C_8
REMARK    3  A    between atoms: C_1  and  N_44
REMARK    4  A    between atoms: C_13  and  C_38
REMARK    5  A    between atoms: C_14  and  C_15
REMARK    6  A    between atoms: C_21  and  O_22
REMARK    7  A    between atoms: O_22  and  C_23
REMARK    8  A    between atoms: C_23  and  C_24
REMARK    9  A    between atoms: C_28  and  C_33
REMARK   10  A    between atoms: C_28  and  C_45
REMARK   11  A    between atoms: C_33  and  N_44
REMARK   12  A    between atoms: C_35  and  N_43
REMARK   13  A    between atoms: C_39  and  N_44
REMARK   14  A    between atoms: C_42  and  C_45
REMARK                            x       y       z     vdW  Elec       q    Type
REMARK                         _______ _______ _______ _____ _____    ______ ____
ROOT
ATOM      1  C   UNL A   1     -21.957   1.946  26.661  0.00  0.00    +0.002 C 
ATOM      2  C   UNL A   1     -22.726   0.711  28.591  0.00  0.00    +0.124 C 
ATOM      3  C   UNL A   1     -23.310   1.954  26.231  0.00  0.00    +0.001 C 
ATOM      4  C   UNL A   1     -21.660   1.255  27.852  0.00  0.00    +0.023 C 
ATOM      5  C   UNL A   1     -24.350   1.432  27.010  0.00  0.00    +0.017 C 
ATOM      6  C   UNL A   1     -24.120   0.733  28.222  0.00  0.00    +0.068 C 
ENDROOT
BRANCH   5   7
ATOM      7  C   UNL A   1     -25.688   1.614  26.461  0.00  0.00    +0.039 C 
ATOM      8  C   UNL A   1     -26.250   2.920  26.395  0.00  0.00    +0.077 C 
ATOM      9  C   UNL A   1     -27.438   3.091  25.645  0.00  0.00    +0.107 C 
ATOM     10  N   UNL A   1     -28.075   2.089  25.003  0.00  0.00    -0.208 NA
ATOM     11  C   UNL A   1     -27.543   0.849  25.079  0.00  0.00    +0.253 C 
ATOM     12  C   UNL A   1     -26.354   0.576  25.777  0.00  0.00    +0.193 C 
ATOM     13  F   UNL A   1     -25.860  -0.681  25.795  0.00  0.00    -0.199 F 
BRANCH   8  14
ATOM     14  C   UNL A   1     -25.642   4.093  27.123  0.00  0.00    +0.266 C 
ATOM     15  N   UNL A   1     -25.614   5.252  26.449  0.00  0.00    -0.200 NA
ATOM     16  C   UNL A   1     -25.026   6.479  26.963  0.00  0.00    +0.139 C 
ATOM     17  O   UNL A   1     -25.143   3.966  28.243  0.00  0.00    -0.268 OA
ENDBRANCH   8  14
BRANCH  11  18
ATOM     18  O   UNL A   1     -28.193  -0.208  24.477  0.00  0.00    -0.456 OA
BRANCH  18  19
ATOM     19  C   UNL A   1     -29.460   0.005  23.866  0.00  0.00    +0.243 C 
BRANCH  19  20
ATOM     20  C   UNL A   1     -30.065  -1.377  23.573  0.00  0.00    +0.229 C 
ATOM     21  O   UNL A   1     -30.729  -1.878  24.721  0.00  0.00    -0.216 OA
ENDBRANCH  19  20
ENDBRANCH  18  19
ENDBRANCH  11  18
ENDBRANCH   5   7
BRANCH   2  23
ATOM     22  O   UNL A   1     -22.524  -0.466  30.537  0.00  0.00    -0.060 OA
ATOM     23  N   UNL A   1     -22.651   0.118  29.515  0.00  0.00    -0.095 NA
ENDBRANCH   2  23
BRANCH   6  24
ATOM     24  N   UNL A   1     -25.242   0.068  29.063  0.00  0.00    -0.303 N 
BRANCH  24  25
ATOM     25  C   UNL A   1     -24.855  -1.012  30.143  0.00  0.00    +0.111 C 
BRANCH  25  26
ATOM     26  C   UNL A   1     -24.973  -2.505  29.788  0.00  0.00    -0.003 C 
ATOM     27  C   UNL A   1     -23.906  -3.173  29.146  0.00  0.00    -0.003 C 
ATOM     28  C   UNL A   1     -23.989  -4.549  28.853  0.00  0.00    -0.000 C 
ATOM     29  C   UNL A   1     -25.137  -5.280  29.205  0.00  0.00    -0.000 C 
ATOM     30  C   UNL A   1     -26.232  -4.611  29.784  0.00  0.00    -0.000 C 
ATOM     31  C   UNL A   1     -26.155  -3.232  30.065  0.00  0.00    -0.003 C 
ENDBRANCH  25  26
BRANCH  25  32
ATOM     32  C   UNL A   1     -25.387  -0.679  31.571  0.00  0.00    +0.095 C 
ATOM     33  C   UNL A   1     -25.189   0.773  32.028  0.00  0.00    +0.021 C 
ATOM     34  C   UNL A   1     -25.336   0.684  33.544  0.00  0.00    +0.020 C 
ATOM     35  C   UNL A   1     -24.829  -0.715  33.905  0.00  0.00    +0.089 C 
ATOM     36  N   UNL A   1     -24.758  -1.481  32.646  0.00  0.00    -0.217 NA
ENDBRANCH  25  32
ENDBRANCH  24  25
BRANCH  24  37
ATOM     37  C   UNL A   1     -26.842  -0.008  28.638  0.00  0.00    +0.091 C 
BRANCH  37  38
ATOM     38  C   UNL A   1     -28.082   0.609  29.009  0.00  0.00    +0.021 C 
BRANCH  38  39
ATOM     39  C   UNL A   1     -27.799   1.850  29.799  0.00  0.00    +0.002 C 
BRANCH  39  45
ATOM     40  C   UNL A   1     -30.215   3.248  30.212  0.00  0.00    +0.032 C 
ATOM     41  C   UNL A   1     -27.931   4.151  30.240  0.00  0.00    +0.032 C 
ATOM     42  C   UNL A   1     -30.282   4.501  31.111  0.00  0.00    +0.142 C 
ATOM     43  C   UNL A   1     -28.540   5.491  29.898  0.00  0.00    +0.142 C 
ATOM     44  O   UNL A   1     -29.914   5.581  30.276  0.00  0.00    -0.354 OA
ATOM     45  C   UNL A   1     -28.779   3.050  29.619  0.00  0.00    +0.005 C 
ENDBRANCH  39  45
ENDBRANCH  38  39
ENDBRANCH  37  38
ENDBRANCH  24  37
ENDBRANCH   6  24
TORSDOF 14
