MODEL 3911
MODEL 1
REMARK VINA RESULT:    -4.263      0.000      0.000
REMARK INTER + INTRA:          -4.263
REMARK INTER:                  -4.263
REMARK INTRA:                   0.000
REMARK UNBOUND:                 0.000
REMARK  Name = No_3911-gen_results/8p0m/2024-11-27-11-27-31/
REMARK  0 active torsions:
REMARK  status: ('A' for Active; 'I' for Inactive)
REMARK                            x       y       z     vdW  Elec       q    Type
REMARK                         _______ _______ _______ _____ _____    ______ ____
ROOT
ATOM      1  C   UNL A   1     -26.371  -3.787  29.792  0.00  0.00    +0.000 A 
ATOM      2  C   UNL A   1     -26.104  -4.793  29.628  0.00  0.00    +0.000 A 
ATOM      3  C   UNL A   1     -25.359  -2.773  29.456  0.00  0.00    +0.000 A 
ATOM      4  C   UNL A   1     -24.144  -3.147  28.810  0.00  0.00    +0.000 A 
ATOM      5  C   UNL A   1     -24.956  -5.434  28.931  0.00  0.00    +0.000 A 
ATOM      6  C   UNL A   1     -23.990  -4.526  28.612  0.00  0.00    +0.000 A 
ENDROOT
TORSDOF 0
ENDMDL
ENDMDL
