MODEL 3912
MODEL 1
REMARK VINA RESULT:    -4.749      0.000      0.000
REMARK INTER + INTRA:          -4.749
REMARK INTER:                  -4.749
REMARK INTRA:                   0.000
REMARK UNBOUND:                 0.000
REMARK  Name = No_3912-gen_results/8p0m/2024-11-27-11-27-31/
REMARK  0 active torsions:
REMARK  status: ('A' for Active; 'I' for Inactive)
REMARK                            x       y       z     vdW  Elec       q    Type
REMARK                         _______ _______ _______ _____ _____    ______ ____
ROOT
ATOM      1  C   UNL A   1     -24.068  -2.862  29.365  0.00  0.00    +0.010 C 
ATOM      2  C   UNL A   1     -23.429  -2.150  28.923  0.00  0.00    +0.012 C 
ATOM      3  C   UNL A   1     -25.439  -2.467  29.529  0.00  0.00    +0.031 C 
ATOM      4  C   UNL A   1     -26.466  -3.444  29.941  0.00  0.00    +0.005 C 
ATOM      5  C   UNL A   1     -26.301  -4.798  29.595  0.00  0.00    +0.001 C 
ATOM      6  C   UNL A   1     -25.076  -5.214  29.034  0.00  0.00    +0.005 C 
ATOM      7  C   UNL A   1     -24.086  -4.331  28.810  0.00  0.00    +0.031 C 
ATOM      8  N   UNL A   1     -23.372  -0.923  29.064  0.00  0.00    -0.096 NA
ENDROOT
TORSDOF 0
ENDMDL
ENDMDL
