MODEL 3913
MODEL 1
REMARK VINA RESULT:    -6.524      0.000      0.000
REMARK INTER + INTRA:          -6.524
REMARK INTER:                  -6.524
REMARK INTRA:                   0.000
REMARK UNBOUND:                 0.000
REMARK  Name = No_3913-gen_results/8p0m/2024-11-27-11-27-31/
REMARK  0 active torsions:
REMARK  status: ('A' for Active; 'I' for Inactive)
REMARK                            x       y       z     vdW  Elec       q    Type
REMARK                         _______ _______ _______ _____ _____    ______ ____
ROOT
ATOM      1  C   UNL A   1     -27.280   0.512  31.240  0.00  0.00    +0.021 A 
ATOM      2  C   UNL A   1     -26.528  -0.393  30.960  0.00  0.00    +0.099 A 
ATOM      3  C   UNL A   1     -26.968  -1.712  30.935  0.00  0.00    +0.161 A 
ATOM      4  C   UNL A   1     -28.324  -2.046  31.288  0.00  0.00    +0.039 A 
ATOM      5  C   UNL A   1     -29.119  -0.942  31.622  0.00  0.00    +0.003 A 
ATOM      6  C   UNL A   1     -28.649   0.284  31.647  0.00  0.00    +0.002 A 
ATOM      7  N   UNL A   1     -25.178  -0.245  30.630  0.00  0.00    -0.302 N 
ATOM      8  C   UNL A   1     -24.464   0.469  30.749  0.00  0.00    +0.080 A 
ATOM      9  C   UNL A   1     -23.125   0.498  30.151  0.00  0.00    +0.021 A 
ATOM     10  C   UNL A   1     -23.026  -0.666  29.327  0.00  0.00    +0.019 A 
ATOM     11  C   UNL A   1     -24.357  -1.331  29.657  0.00  0.00    +0.067 A 
ATOM     12  C   UNL A   1     -24.821  -2.519  29.149  0.00  0.00    +0.051 A 
ATOM     13  C   UNL A   1     -23.792  -3.415  28.723  0.00  0.00    +0.004 A 
ATOM     14  C   UNL A   1     -24.178  -4.803  28.576  0.00  0.00    +0.000 A 
ATOM     15  C   UNL A   1     -25.342  -5.284  29.197  0.00  0.00    +0.003 A 
ATOM     16  C   UNL A   1     -26.304  -4.395  29.709  0.00  0.00    +0.037 A 
ATOM     17  C   UNL A   1     -26.038  -3.090  29.713  0.00  0.00    +0.147 A 
ATOM     18  O   UNL A   1     -27.028  -2.372  29.734  0.00  0.00    -0.452 OA
ENDROOT
TORSDOF 0
ENDMDL
ENDMDL
