REMARK  Name = No_3913-gen_results/8p0m/2024-11-27-11-27-31/
REMARK  0 active torsions:
REMARK  status: ('A' for Active; 'I' for Inactive)
REMARK                            x       y       z     vdW  Elec       q    Type
REMARK                         _______ _______ _______ _____ _____    ______ ____
ROOT
ATOM      1  C   UNL A   1     -28.016  -0.814  28.878  0.00  0.00    +0.021 A 
ATOM      2  C   UNL A   1     -27.064  -0.119  28.608  0.00  0.00    +0.099 A 
ATOM      3  C   UNL A   1     -25.792  -0.430  29.076  0.00  0.00    +0.161 A 
ATOM      4  C   UNL A   1     -25.576  -1.565  29.936  0.00  0.00    +0.039 A 
ATOM      5  C   UNL A   1     -26.735  -2.300  30.217  0.00  0.00    +0.003 A 
ATOM      6  C   UNL A   1     -27.918  -1.954  29.763  0.00  0.00    +0.002 A 
ATOM      7  N   UNL A   1     -27.106   1.034  27.819  0.00  0.00    -0.302 N 
ATOM      8  C   UNL A   1     -27.821   1.684  27.502  0.00  0.00    +0.080 A 
ATOM      9  C   UNL A   1     -27.676   2.750  26.505  0.00  0.00    +0.021 A 
ATOM     10  C   UNL A   1     -26.330   2.676  26.029  0.00  0.00    +0.019 A 
ATOM     11  C   UNL A   1     -25.790   1.585  26.946  0.00  0.00    +0.067 A 
ATOM     12  C   UNL A   1     -24.512   1.085  26.951  0.00  0.00    +0.051 A 
ATOM     13  C   UNL A   1     -23.526   1.994  26.454  0.00  0.00    +0.004 A 
ATOM     14  C   UNL A   1     -22.153   1.701  26.811  0.00  0.00    +0.000 A 
ATOM     15  C   UNL A   1     -21.869   0.846  27.888  0.00  0.00    +0.003 A 
ATOM     16  C   UNL A   1     -22.871   0.029  28.442  0.00  0.00    +0.037 A 
ATOM     17  C   UNL A   1     -24.125   0.169  28.017  0.00  0.00    +0.147 A 
ATOM     18  O   UNL A   1     -24.828  -0.818  28.180  0.00  0.00    -0.452 OA
ENDROOT
TORSDOF 0
