MODEL 3914
MODEL 1
REMARK VINA RESULT:    -5.777      0.000      0.000
REMARK INTER + INTRA:          -6.142
REMARK INTER:                  -6.115
REMARK INTRA:                  -0.027
REMARK UNBOUND:                -0.027
REMARK  Name = No_3914-gen_results/8p0m/2024-11-27-11-27-31/
REMARK  1 active torsions:
REMARK  status: ('A' for Active; 'I' for Inactive)
REMARK    1  A    between atoms: C_9  and  C_11
REMARK                            x       y       z     vdW  Elec       q    Type
REMARK                         _______ _______ _______ _____ _____    ______ ____
ROOT
ATOM      1  C   UNL A   1     -26.638  -3.486  29.923  0.00  0.00    +0.000 A 
ATOM      2  C   UNL A   1     -26.421  -4.513  29.829  0.00  0.00    +0.000 A 
ATOM      3  C   UNL A   1     -25.568  -2.549  29.545  0.00  0.00    +0.000 A 
ATOM      4  C   UNL A   1     -25.561  -1.105  29.719  0.00  0.00    +0.001 A 
ATOM      5  C   UNL A   1     -25.292  -5.225  29.185  0.00  0.00    +0.000 A 
ATOM      6  C   UNL A   1     -24.239  -4.406  28.792  0.00  0.00    +0.000 A 
ATOM      7  C   UNL A   1     -24.330  -3.037  28.926  0.00  0.00    +0.001 A 
ATOM      8  C   UNL A   1     -24.341  -0.400  29.902  0.00  0.00    +0.010 A 
ATOM      9  C   UNL A   1     -23.189  -0.922  29.251  0.00  0.00    +0.068 A 
ATOM     10  C   UNL A   1     -23.155  -2.216  28.847  0.00  0.00    +0.010 A 
ENDROOT
BRANCH   9  11
ATOM     11  C   UNL A   1     -21.977  -0.058  29.187  0.00  0.00    +0.100 C 
ATOM     12  N   UNL A   1     -20.951   0.239  28.506  0.00  0.00    -0.191 NA
ENDBRANCH   9  11
TORSDOF 1
ENDMDL
ENDMDL
