REMARK  Name = outputs/IAG933/test6/raw/output_3914_IAG933_linker_design_.xyz
REMARK  10 active torsions:
REMARK  status: ('A' for Active; 'I' for Inactive)
REMARK    1  A    between atoms: C_1  and  C_2
REMARK    2  A    between atoms: C_1  and  C_8
REMARK    3  A    between atoms: C_9  and  O_28
REMARK    4  A    between atoms: C_21  and  O_22
REMARK    5  A    between atoms: O_22  and  C_23
REMARK    6  A    between atoms: C_23  and  C_24
REMARK    7  A    between atoms: O_28  and  C_39
REMARK    8  A    between atoms: C_34  and  C_39
REMARK    9  A    between atoms: C_37  and  C_38
REMARK   10  A    between atoms: C_39  and  C_40
REMARK                            x       y       z     vdW  Elec       q    Type
REMARK                         _______ _______ _______ _____ _____    ______ ____
ROOT
ATOM      1  C   UNL A   1     -25.688   1.614  26.461  0.00  0.00    +0.071 C 
ATOM      2  C   UNL A   1     -26.250   2.920  26.395  0.00  0.00    +0.053 C 
ATOM      3  C   UNL A   1     -25.642   4.093  27.123  0.00  0.00    +0.218 C 
ATOM      4  N   UNL A   1     -25.614   5.252  26.449  0.00  0.00    -0.236 NA
ATOM      5  C   UNL A   1     -25.026   6.479  26.963  0.00  0.00    +0.155 C 
ATOM      6  O   UNL A   1     -25.143   3.966  28.243  0.00  0.00    -0.454 OA
ATOM      7  C   UNL A   1     -27.438   3.091  25.645  0.00  0.00    +0.102 C 
ATOM      8  N   UNL A   1     -28.075   2.089  25.003  0.00  0.00    -0.212 NA
ATOM      9  C   UNL A   1     -27.543   0.849  25.079  0.00  0.00    +0.234 C 
ATOM     10  C   UNL A   1     -26.354   0.576  25.777  0.00  0.00    +0.240 C 
ATOM     11  F   UNL A   1     -25.860  -0.681  25.795  0.00  0.00    -0.227 F 
ATOM     12  O   UNL A   1     -23.201   1.639  29.995  0.00  0.00    -0.292 OA
ATOM     13  C   UNL A   1     -23.780   2.213  29.024  0.00  0.00    +0.196 C 
ATOM     14  C   UNL A   1     -25.039   3.023  29.371  0.00  0.00    +0.259 C 
ATOM     15  C   UNL A   1     -24.446   1.324  26.773  0.00  0.00    +0.018 C 
ATOM     16  C   UNL A   1     -23.424   2.158  27.688  0.00  0.00    +0.094 C 
ENDROOT
BRANCH  16  19
ATOM     17  F   UNL A   1     -21.562   2.222  26.033  0.00  0.00    -0.237 F 
ATOM     18  C   UNL A   1     -21.579   0.542  27.731  0.00  0.00    +0.038 C 
ATOM     19  C   UNL A   1     -21.929   1.981  27.389  0.00  0.00    +0.168 C 
ENDBRANCH  16  19
BRANCH  14  20
ATOM     20  C   UNL A   1     -25.235   3.307  30.973  0.00  0.00    +0.229 C 
ATOM     21  C   UNL A   1     -24.481   3.841  32.267  0.00  0.00    +0.046 C 
BRANCH  20  24
ATOM     22  O   UNL A   1     -25.800   5.632  30.689  0.00  0.00    -0.243 OA
ATOM     23  O   UNL A   1     -27.416   4.143  30.439  0.00  0.00    -0.243 OA
ATOM     24  C   UNL A   1     -26.258   4.484  30.703  0.00  0.00    +0.393 C 
ENDBRANCH  20  24
BRANCH  20  25
ATOM     25  O   UNL A   1     -25.824   2.015  31.434  0.00  0.00    -0.345 OA
BRANCH  25  27
ATOM     26  C   UNL A   1     -25.387  -0.679  31.571  0.00  0.00    +0.104 C 
ATOM     27  C   UNL A   1     -25.189   0.773  32.028  0.00  0.00    +0.134 C 
ATOM     28  C   UNL A   1     -25.336   0.684  33.544  0.00  0.00    +0.050 C 
ATOM     29  C   UNL A   1     -24.829  -0.715  33.905  0.00  0.00    +0.091 C 
ATOM     30  N   UNL A   1     -24.758  -1.481  32.646  0.00  0.00    -0.217 NA
BRANCH  26  31
ATOM     31  C   UNL A   1     -24.855  -1.012  30.143  0.00  0.00    +0.046 C 
BRANCH  31  32
ATOM     32  C   UNL A   1     -24.973  -2.505  29.788  0.00  0.00    -0.021 C 
ATOM     33  C   UNL A   1     -23.906  -3.173  29.146  0.00  0.00    -0.004 C 
ATOM     34  C   UNL A   1     -23.989  -4.549  28.853  0.00  0.00    -0.000 C 
ATOM     35  C   UNL A   1     -25.137  -5.280  29.205  0.00  0.00    -0.000 C 
ATOM     36  C   UNL A   1     -26.232  -4.611  29.784  0.00  0.00    -0.000 C 
ATOM     37  C   UNL A   1     -26.155  -3.232  30.065  0.00  0.00    -0.004 C 
ENDBRANCH  31  32
ENDBRANCH  26  31
ENDBRANCH  25  27
ENDBRANCH  20  25
ENDBRANCH  14  20
BRANCH   9  38
ATOM     38  O   UNL A   1     -28.193  -0.208  24.477  0.00  0.00    -0.459 OA
BRANCH  38  39
ATOM     39  C   UNL A   1     -29.460   0.005  23.866  0.00  0.00    +0.242 C 
BRANCH  39  40
ATOM     40  C   UNL A   1     -30.065  -1.377  23.573  0.00  0.00    +0.229 C 
ATOM     41  O   UNL A   1     -30.729  -1.878  24.721  0.00  0.00    -0.216 OA
ENDBRANCH  39  40
ENDBRANCH  38  39
ENDBRANCH   9  38
TORSDOF 10
