MODEL 3915
MODEL 1
REMARK VINA RESULT:    -7.952      0.000      0.000
REMARK INTER + INTRA:         -11.536
REMARK INTER:                  -9.812
REMARK INTRA:                  -1.724
REMARK UNBOUND:                -1.724
REMARK  Name = No_3915-gen_results/8p0m/2024-11-27-11-27-31/
REMARK  4 active torsions:
REMARK  status: ('A' for Active; 'I' for Inactive)
REMARK    1  A    between atoms: C_2  and  C_23
REMARK    2  A    between atoms: C_3  and  C_7
REMARK    3  A    between atoms: N_8  and  C_9
REMARK    4  A    between atoms: C_10  and  C_11
REMARK                            x       y       z     vdW  Elec       q    Type
REMARK                         _______ _______ _______ _____ _____    ______ ____
ROOT
ATOM      1  C   UNL A   1     -23.469  -0.427  28.590  0.00  0.00    +0.047 C 
ATOM      2  C   UNL A   1     -24.516  -0.997  28.206  0.00  0.00    -0.011 C 
ATOM      3  C   UNL A   1     -23.084   0.768  27.777  0.00  0.00    +0.038 C 
ATOM      4  C   UNL A   1     -22.187   1.487  27.789  0.00  0.00    +0.006 C 
ATOM      5  C   UNL A   1     -24.168   0.812  26.666  0.00  0.00    +0.010 C 
ATOM      6  C   UNL A   1     -25.077  -0.361  26.972  0.00  0.00    +0.028 C 
ENDROOT
BRANCH   2   7
ATOM      7  C   UNL A   1     -25.126  -2.124  28.735  0.00  0.00    -0.001 A 
ATOM      8  C   UNL A   1     -26.267  -2.038  29.561  0.00  0.00    -0.000 A 
ATOM      9  C   UNL A   1     -24.581  -3.422  28.576  0.00  0.00    +0.029 A 
ATOM     10  C   UNL A   1     -25.159  -4.537  29.158  0.00  0.00    +0.140 A 
ATOM     11  C   UNL A   1     -26.914  -3.154  30.097  0.00  0.00    +0.002 A 
ATOM     12  C   UNL A   1     -26.361  -4.353  29.909  0.00  0.00    +0.030 A 
ATOM     13  F   UNL A   1     -24.662  -5.685  29.015  0.00  0.00    -0.204 F 
ENDBRANCH   2   7
BRANCH   1  15
ATOM     14  C   UNL A   1     -23.169  -0.607  30.966  0.00  0.00    +0.269 C 
ATOM     15  N   UNL A   1     -22.712  -0.608  29.675  0.00  0.00    -0.180 NA
ATOM     16  O   UNL A   1     -23.094  -1.638  31.628  0.00  0.00    -0.268 OA
BRANCH  14  19
ATOM     17  C   UNL A   1     -24.908   0.056  32.499  0.00  0.00    +0.011 A 
ATOM     18  C   UNL A   1     -25.443   0.789  33.035  0.00  0.00    +0.080 A 
ATOM     19  C   UNL A   1     -23.982   0.540  31.515  0.00  0.00    +0.056 A 
ATOM     20  C   UNL A   1     -23.903   1.826  31.159  0.00  0.00    +0.005 A 
ATOM     21  C   UNL A   1     -25.529   2.225  32.808  0.00  0.00    +0.007 A 
ATOM     22  C   UNL A   1     -24.695   2.686  31.885  0.00  0.00    +0.000 A 
BRANCH  18  23
ATOM     23  C   UNL A   1     -26.504   0.401  34.246  0.00  0.00    +0.388 C 
ATOM     24  O   UNL A   1     -27.482   0.986  34.215  0.00  0.00    -0.241 OA
ATOM     25  O   UNL A   1     -26.116  -0.405  35.145  0.00  0.00    -0.241 OA
ENDBRANCH  18  23
ENDBRANCH  14  19
ENDBRANCH   1  15
TORSDOF 4
ENDMDL
ENDMDL
