REMARK  Name = No_3915-gen_results/8p0m/2024-11-27-11-27-31/
REMARK  4 active torsions:
REMARK  status: ('A' for Active; 'I' for Inactive)
REMARK    1  A    between atoms: C_2  and  C_23
REMARK    2  A    between atoms: C_3  and  C_7
REMARK    3  A    between atoms: N_8  and  C_9
REMARK    4  A    between atoms: C_10  and  C_11
REMARK                            x       y       z     vdW  Elec       q    Type
REMARK                         _______ _______ _______ _____ _____    ______ ____
ROOT
ATOM      1  C   UNL A   1     -25.226   1.133  27.489  0.00  0.00    +0.047 C 
ATOM      2  C   UNL A   1     -24.321   1.022  28.348  0.00  0.00    -0.011 C 
ATOM      3  C   UNL A   1     -25.384   2.513  26.934  0.00  0.00    +0.038 C 
ATOM      4  C   UNL A   1     -26.120   2.998  26.196  0.00  0.00    +0.006 C 
ATOM      5  C   UNL A   1     -24.337   3.341  27.727  0.00  0.00    +0.010 C 
ATOM      6  C   UNL A   1     -23.672   2.337  28.647  0.00  0.00    +0.028 C 
ENDROOT
BRANCH   2   7
ATOM      7  C   UNL A   1     -23.936  -0.109  29.050  0.00  0.00    -0.001 A 
ATOM      8  C   UNL A   1     -22.833  -0.103  29.932  0.00  0.00    -0.000 A 
ATOM      9  C   UNL A   1     -24.550  -1.370  28.846  0.00  0.00    +0.029 A 
ATOM     10  C   UNL A   1     -24.121  -2.510  29.504  0.00  0.00    +0.140 A 
ATOM     11  C   UNL A   1     -22.429  -1.220  30.666  0.00  0.00    +0.002 A 
ATOM     12  C   UNL A   1     -23.048  -2.380  30.439  0.00  0.00    +0.030 A 
ATOM     13  F   UNL A   1     -24.670  -3.626  29.310  0.00  0.00    -0.204 F 
ENDBRANCH   2   7
BRANCH   1  15
ATOM     14  C   UNL A   1     -27.348   0.233  26.812  0.00  0.00    +0.269 C 
ATOM     15  N   UNL A   1     -25.980   0.216  26.877  0.00  0.00    -0.180 NA
ATOM     16  O   UNL A   1     -27.893   0.361  25.719  0.00  0.00    -0.268 OA
BRANCH  14  19
ATOM     17  C   UNL A   1     -28.016  -0.814  28.878  0.00  0.00    +0.011 A 
ATOM     18  C   UNL A   1     -28.469  -0.785  29.829  0.00  0.00    +0.080 A 
ATOM     19  C   UNL A   1     -28.196   0.348  28.055  0.00  0.00    +0.056 A 
ATOM     20  C   UNL A   1     -29.019   1.350  28.378  0.00  0.00    +0.005 A 
ATOM     21  C   UNL A   1     -29.411   0.180  30.378  0.00  0.00    +0.007 A 
ATOM     22  C   UNL A   1     -29.606   1.250  29.619  0.00  0.00    +0.000 A 
BRANCH  18  23
ATOM     23  C   UNL A   1     -28.307  -2.017  30.924  0.00  0.00    +0.388 C 
ATOM     24  O   UNL A   1     -27.274  -2.499  30.936  0.00  0.00    -0.241 OA
ATOM     25  O   UNL A   1     -29.338  -2.389  31.563  0.00  0.00    -0.241 OA
ENDBRANCH  18  23
ENDBRANCH  14  19
ENDBRANCH   1  15
TORSDOF 4
