REMARK  Name = outputs/IAG933/test6/raw/output_3916_IAG933_linker_design_.xyz
REMARK  16 active torsions:
REMARK  status: ('A' for Active; 'I' for Inactive)
REMARK    1  A    between atoms: C_1  and  C_2
REMARK    2  A    between atoms: C_1  and  C_8
REMARK    3  A    between atoms: C_9  and  C_32
REMARK    4  A    between atoms: C_14  and  C_15
REMARK    5  A    between atoms: C_15  and  O_18
REMARK    6  A    between atoms: O_18  and  C_48
REMARK    7  A    between atoms: C_21  and  O_22
REMARK    8  A    between atoms: O_22  and  C_23
REMARK    9  A    between atoms: C_23  and  C_24
REMARK   10  A    between atoms: C_28  and  C_37
REMARK   11  A    between atoms: C_28  and  C_38
REMARK   12  A    between atoms: C_29  and  C_38
REMARK   13  A    between atoms: C_34  and  O_42
REMARK   14  A    between atoms: C_37  and  C_39
REMARK   15  A    between atoms: C_40  and  O_43
REMARK   16  A    between atoms: C_40  and  C_46
REMARK                            x       y       z     vdW  Elec       q    Type
REMARK                         _______ _______ _______ _____ _____    ______ ____
ROOT
ATOM      1  O   UNL A   1     -26.531   4.675  29.852  0.00  0.00    -0.295 OA
ATOM      2  C   UNL A   1     -25.841   2.034  31.542  0.00  0.00    +0.007 C 
ATOM      3  C   UNL A   1     -25.497   3.191  32.510  0.00  0.00    +0.000 C 
ATOM      4  C   UNL A   1     -27.203   4.895  31.089  0.00  0.00    +0.238 C 
ATOM      5  C   UNL A   1     -26.648   3.375  33.454  0.00  0.00    +0.003 C 
ATOM      6  C   UNL A   1     -25.170   2.549  30.167  0.00  0.00    +0.070 C 
ATOM      7  C   UNL A   1     -27.517   4.337  33.240  0.00  0.00    +0.035 C 
ATOM      8  C   UNL A   1     -28.059   4.324  32.074  0.00  0.00    +0.064 C 
ATOM      9  C   UNL A   1     -25.695   3.735  29.396  0.00  0.00    +0.291 C 
ENDROOT
BRANCH   2  11
ATOM     10  C   UNL A   1     -25.387  -0.679  31.571  0.00  0.00    +0.077 C 
ATOM     11  C   UNL A   1     -25.189   0.773  32.028  0.00  0.00    +0.018 C 
ATOM     12  C   UNL A   1     -25.336   0.684  33.544  0.00  0.00    +0.020 C 
ATOM     13  C   UNL A   1     -24.829  -0.715  33.905  0.00  0.00    +0.089 C 
ATOM     14  N   UNL A   1     -24.758  -1.481  32.646  0.00  0.00    -0.219 NA
BRANCH  10  15
ATOM     15  C   UNL A   1     -24.855  -1.012  30.143  0.00  0.00    +0.044 C 
BRANCH  15  16
ATOM     16  C   UNL A   1     -24.973  -2.505  29.788  0.00  0.00    -0.021 C 
ATOM     17  C   UNL A   1     -23.906  -3.173  29.146  0.00  0.00    -0.004 C 
ATOM     18  C   UNL A   1     -23.989  -4.549  28.853  0.00  0.00    -0.000 C 
ATOM     19  C   UNL A   1     -25.137  -5.280  29.205  0.00  0.00    -0.000 C 
ATOM     20  C   UNL A   1     -26.232  -4.611  29.784  0.00  0.00    -0.000 C 
ATOM     21  C   UNL A   1     -26.155  -3.232  30.065  0.00  0.00    -0.004 C 
ENDBRANCH  15  16
ENDBRANCH  10  15
ENDBRANCH   2  11
BRANCH   4  22
ATOM     22  O   UNL A   1     -26.752   5.952  31.551  0.00  0.00    -0.328 OA
ATOM     23  C   UNL A   1     -27.922   6.712  31.615  0.00  0.00    +0.177 C 
ENDBRANCH   4  22
BRANCH   9  24
ATOM     24  O   UNL A   1     -25.143   3.966  28.243  0.00  0.00    -0.436 OA
BRANCH  24  25
ATOM     25  C   UNL A   1     -25.642   4.093  27.123  0.00  0.00    +0.224 C 
ATOM     26  N   UNL A   1     -25.614   5.252  26.449  0.00  0.00    -0.236 NA
ATOM     27  C   UNL A   1     -25.026   6.479  26.963  0.00  0.00    +0.155 C 
BRANCH  25  29
ATOM     28  C   UNL A   1     -25.688   1.614  26.461  0.00  0.00    +0.041 C 
ATOM     29  C   UNL A   1     -26.250   2.920  26.395  0.00  0.00    +0.074 C 
ATOM     30  C   UNL A   1     -27.438   3.091  25.645  0.00  0.00    +0.107 C 
ATOM     31  N   UNL A   1     -28.075   2.089  25.003  0.00  0.00    -0.208 NA
ATOM     32  C   UNL A   1     -27.543   0.849  25.079  0.00  0.00    +0.253 C 
ATOM     33  C   UNL A   1     -26.354   0.576  25.777  0.00  0.00    +0.193 C 
ATOM     34  F   UNL A   1     -25.860  -0.681  25.795  0.00  0.00    -0.199 F 
BRANCH  32  35
ATOM     35  O   UNL A   1     -28.193  -0.208  24.477  0.00  0.00    -0.456 OA
BRANCH  35  36
ATOM     36  C   UNL A   1     -29.460   0.005  23.866  0.00  0.00    +0.243 C 
BRANCH  36  37
ATOM     37  C   UNL A   1     -30.065  -1.377  23.573  0.00  0.00    +0.229 C 
ATOM     38  O   UNL A   1     -30.729  -1.878  24.721  0.00  0.00    -0.216 OA
ENDBRANCH  36  37
ENDBRANCH  35  36
ENDBRANCH  32  35
ENDBRANCH  25  29
ENDBRANCH  24  25
ENDBRANCH   9  24
BRANCH   6  39
ATOM     39  C   UNL A   1     -24.503   1.556  29.544  0.00  0.00    +0.010 C 
BRANCH  39  40
ATOM     40  C   UNL A   1     -23.030   1.465  29.101  0.00  0.00    +0.045 C 
BRANCH  40  42
ATOM     41  C   UNL A   1     -20.994   1.436  27.730  0.00  0.00    +0.049 C 
ATOM     42  C   UNL A   1     -22.534   1.537  27.665  0.00  0.00    +0.204 C 
ATOM     43  O   UNL A   1     -23.151   0.268  27.630  0.00  0.00    -0.210 OA
BRANCH  42  44
ATOM     44  C   UNL A   1     -22.797   2.231  26.277  0.00  0.00    +0.102 C 
ATOM     45  N   UNL A   1     -22.909   2.732  25.254  0.00  0.00    -0.193 NA
ENDBRANCH  42  44
ENDBRANCH  40  42
ENDBRANCH  39  40
ENDBRANCH   6  39
BRANCH   7  46
ATOM     46  C   UNL A   1     -27.480   5.397  34.175  0.00  0.00    +0.142 C 
BRANCH  46  48
ATOM     47  C   UNL A   1     -24.823   5.168  34.708  0.00  0.00    +0.174 C 
ATOM     48  O   UNL A   1     -26.018   5.750  34.181  0.00  0.00    -0.351 OA
ENDBRANCH  46  48
ENDBRANCH   7  46
TORSDOF 16
