MODEL 3916
MODEL 1
REMARK VINA RESULT:    -6.329      0.000      0.000
REMARK INTER + INTRA:          -6.329
REMARK INTER:                  -6.329
REMARK INTRA:                   0.000
REMARK UNBOUND:                 0.000
REMARK  Name = No_3916-gen_results/8p0m/2024-11-27-11-27-31/
REMARK  0 active torsions:
REMARK  status: ('A' for Active; 'I' for Inactive)
REMARK                            x       y       z     vdW  Elec       q    Type
REMARK                         _______ _______ _______ _____ _____    ______ ____
ROOT
ATOM      1 CL   UNL A   1     -26.889  -0.381  28.601  0.00  0.00    -0.079 Cl
ATOM      2  C   UNL A   1     -25.537  -0.350  28.761  0.00  0.00    +0.091 A 
ATOM      3  C   UNL A   1     -24.873  -1.433  29.248  0.00  0.00    +0.015 A 
ATOM      4  C   UNL A   1     -23.411  -1.508  29.364  0.00  0.00    +0.001 A 
ATOM      5  C   UNL A   1     -22.681  -0.392  28.849  0.00  0.00    +0.003 A 
ATOM      6  C   UNL A   1     -23.355   0.640  28.276  0.00  0.00    +0.031 A 
ATOM      7  C   UNL A   1     -24.713   0.668  28.194  0.00  0.00    +0.148 A 
ATOM      8  O   UNL A   1     -25.289   1.717  27.613  0.00  0.00    -0.478 OA
ATOM      9  C   UNL A   1     -25.035   1.917  26.327  0.00  0.00    +0.166 C 
ATOM     10  C   UNL A   1     -21.187  -0.457  28.894  0.00  0.00    +0.000 A 
ATOM     11  C   UNL A   1     -20.496   0.464  28.177  0.00  0.00    -0.000 A 
ATOM     12  C   UNL A   1     -21.245   1.501  27.455  0.00  0.00    -0.004 A 
ATOM     13  C   UNL A   1     -22.621   1.606  27.504  0.00  0.00    -0.019 A 
ATOM     14  C   UNL A   1     -25.838   1.166  25.472  0.00  0.00    +0.047 C 
ATOM     15  C   UNL A   1     -24.182   2.858  25.908  0.00  0.00    +0.048 C 
ATOM     16  C   UNL A   1     -23.079   2.245  26.233  0.00  0.00    +0.030 C 
ENDROOT
TORSDOF 0
ENDMDL
ENDMDL
