MODEL 3918
MODEL 1
REMARK VINA RESULT:    -6.218      0.000      0.000
REMARK INTER + INTRA:         -13.238
REMARK INTER:                  -9.126
REMARK INTRA:                  -4.112
REMARK UNBOUND:                -4.112
REMARK  Name = No_3918-gen_results/8p0m/2024-11-27-11-27-31/
REMARK  8 active torsions:
REMARK  status: ('A' for Active; 'I' for Inactive)
REMARK    1  A    between atoms: C_4  and  C_11
REMARK    2  A    between atoms: C_15  and  O_18
REMARK    3  A    between atoms: O_18  and  C_19
REMARK    4  A    between atoms: C_19  and  C_20
REMARK    5  A    between atoms: C_20  and  C_22
REMARK    6  A    between atoms: C_21  and  C_23
REMARK    7  A    between atoms: C_24  and  C_25
REMARK    8  A    between atoms: C_28  and  C_29
REMARK                            x       y       z     vdW  Elec       q    Type
REMARK                         _______ _______ _______ _____ _____    ______ ____
ROOT
ATOM      1  C   UNL A   1     -25.754   0.768  26.016  0.00  0.00    -0.024 C 
ATOM      2  C   UNL A   1     -25.744   0.085  24.806  0.00  0.00    -0.030 C 
ATOM      3  C   UNL A   1     -26.950   0.052  24.065  0.00  0.00    +0.026 C 
ATOM      4  C   UNL A   1     -26.178   2.200  25.607  0.00  0.00    +0.056 C 
ATOM      5  C   UNL A   1     -27.507   2.460  26.058  0.00  0.00    +0.120 C 
ATOM      6  C   UNL A   1     -28.505   2.137  24.904  0.00  0.00    +0.030 C 
ATOM      7  C   UNL A   1     -28.405   0.694  24.458  0.00  0.00    +0.007 C 
ENDROOT
BRANCH   1  11
ATOM      8  C   UNL A   1     -24.832  -2.396  28.751  0.00  0.00    -0.000 A 
ATOM      9  C   UNL A   1     -25.090  -1.507  27.973  0.00  0.00    -0.000 A 
ATOM     10  C   UNL A   1     -24.259  -0.410  27.752  0.00  0.00    -0.000 A 
ATOM     11  C   UNL A   1     -24.499   0.721  26.835  0.00  0.00    -0.004 A 
ATOM     12  C   UNL A   1     -23.636   1.861  26.662  0.00  0.00    -0.000 A 
ATOM     13  C   UNL A   1     -22.388   1.750  27.283  0.00  0.00    -0.000 A 
ATOM     14  C   UNL A   1     -23.628  -2.215  29.632  0.00  0.00    -0.000 A 
ATOM     15  C   UNL A   1     -22.707  -1.214  29.424  0.00  0.00    -0.000 A 
ATOM     16  C   UNL A   1     -22.988  -0.223  28.500  0.00  0.00    -0.000 A 
ATOM     17  C   UNL A   1     -22.086   0.808  28.244  0.00  0.00    -0.000 A 
ENDBRANCH   1  11
BRANCH   5  18
ATOM     18  O   UNL A   1     -27.792   3.848  26.263  0.00  0.00    -0.351 OA
BRANCH  18  19
ATOM     19  C   UNL A   1     -27.915   4.215  27.537  0.00  0.00    +0.169 C 
BRANCH  19  20
ATOM     20  C   UNL A   1     -26.892   4.499  28.225  0.00  0.00    +0.007 C 
ATOM     21  C   UNL A   1     -26.504   3.757  29.277  0.00  0.00    -0.002 C 
BRANCH  20  22
ATOM     22  C   UNL A   1     -26.086   5.752  28.020  0.00  0.00    -0.005 C 
ATOM     23  C   UNL A   1     -25.035   5.616  27.151  0.00  0.00    -0.009 C 
BRANCH  23  24
ATOM     24  C   UNL A   1     -24.522   6.958  26.735  0.00  0.00    +0.121 C 
ATOM     25 CL   UNL A   1     -23.947   7.876  26.931  0.00  0.00    -0.108 Cl
ENDBRANCH  23  24
ENDBRANCH  20  22
BRANCH  21  26
ATOM     26  C   UNL A   1     -25.612   3.356  29.634  0.00  0.00    -0.000 C 
ATOM     27  C   UNL A   1     -25.298   1.976  30.161  0.00  0.00    -0.000 C 
BRANCH  27  28
ATOM     28  C   UNL A   1     -26.430   1.169  30.379  0.00  0.00    -0.005 C 
ATOM     29  C   UNL A   1     -26.209   0.009  31.193  0.00  0.00    -0.026 C 
ATOM     30  C   UNL A   1     -27.276  -0.940  31.274  0.00  0.00    +0.031 C 
ENDBRANCH  27  28
ENDBRANCH  21  26
ENDBRANCH  19  20
ENDBRANCH  18  19
ENDBRANCH   5  18
TORSDOF 8
ENDMDL
ENDMDL
