REMARK  Name = outputs/IAG933/test6/raw/output_3918_IAG933_linker_design_.xyz
REMARK  16 active torsions:
REMARK  status: ('A' for Active; 'I' for Inactive)
REMARK    1  A    between atoms: C_1  and  C_2
REMARK    2  A    between atoms: C_1  and  C_8
REMARK    3  A    between atoms: C_1  and  C_35
REMARK    4  A    between atoms: C_13  and  C_37
REMARK    5  A    between atoms: C_14  and  C_15
REMARK    6  A    between atoms: C_21  and  O_22
REMARK    7  A    between atoms: O_22  and  C_23
REMARK    8  A    between atoms: C_23  and  C_24
REMARK    9  A    between atoms: N_31  and  C_35
REMARK   10  A    between atoms: N_31  and  C_48
REMARK   11  A    between atoms: C_32  and  N_33
REMARK   12  A    between atoms: C_32  and  C_39
REMARK   13  A    between atoms: N_33  and  C_45
REMARK   14  A    between atoms: C_35  and  S_46
REMARK   15  A    between atoms: C_39  and  C_41
REMARK   16  A    between atoms: C_41  and  S_46
REMARK                            x       y       z     vdW  Elec       q    Type
REMARK                         _______ _______ _______ _____ _____    ______ ____
ROOT
ATOM      1  C   UNL A   1     -25.399   0.041  29.223  0.00  0.00    +0.145 C 
ENDROOT
BRANCH   1   2
ATOM      2  C   UNL A   1     -24.855  -1.012  30.143  0.00  0.00    +0.069 C 
BRANCH   2   3
ATOM      3  C   UNL A   1     -24.973  -2.505  29.788  0.00  0.00    -0.019 C 
ATOM      4  C   UNL A   1     -23.906  -3.173  29.146  0.00  0.00    -0.004 C 
ATOM      5  C   UNL A   1     -23.989  -4.549  28.853  0.00  0.00    -0.000 C 
ATOM      6  C   UNL A   1     -25.137  -5.280  29.205  0.00  0.00    -0.000 C 
ATOM      7  C   UNL A   1     -26.232  -4.611  29.784  0.00  0.00    -0.000 C 
ATOM      8  C   UNL A   1     -26.155  -3.232  30.065  0.00  0.00    -0.004 C 
ENDBRANCH   2   3
BRANCH   2   9
ATOM      9  C   UNL A   1     -25.387  -0.679  31.571  0.00  0.00    +0.079 C 
ATOM     10  C   UNL A   1     -25.189   0.773  32.028  0.00  0.00    +0.019 C 
ATOM     11  C   UNL A   1     -25.336   0.684  33.544  0.00  0.00    +0.020 C 
ATOM     12  C   UNL A   1     -24.829  -0.715  33.905  0.00  0.00    +0.089 C 
ATOM     13  N   UNL A   1     -24.758  -1.481  32.646  0.00  0.00    -0.219 NA
ENDBRANCH   2   9
ENDBRANCH   1   2
BRANCH   1  14
ATOM     14  N   UNL A   1     -24.739   1.045  28.647  0.00  0.00    -0.226 NA
BRANCH  14  21
ATOM     15  C   UNL A   1     -22.523   0.925  28.337  0.00  0.00    +0.155 C 
ATOM     16  C   UNL A   1     -24.358   1.595  26.891  0.00  0.00    +0.002 C 
ATOM     17  F   UNL A   1     -22.149   0.269  29.448  0.00  0.00    -0.203 F 
ATOM     18  C   UNL A   1     -21.952   2.053  26.308  0.00  0.00    +0.002 C 
ATOM     19  C   UNL A   1     -21.541   1.390  27.500  0.00  0.00    +0.031 C 
ATOM     20  C   UNL A   1     -23.289   2.112  25.953  0.00  0.00    -0.002 C 
ATOM     21  C   UNL A   1     -23.852   1.212  28.021  0.00  0.00    +0.090 C 
BRANCH  16  22
ATOM     22  C   UNL A   1     -25.688   1.614  26.461  0.00  0.00    +0.094 C 
ATOM     23  C   UNL A   1     -26.250   2.920  26.395  0.00  0.00    +0.059 C 
ATOM     24  C   UNL A   1     -27.438   3.091  25.645  0.00  0.00    +0.102 C 
ATOM     25  N   UNL A   1     -28.075   2.089  25.003  0.00  0.00    -0.212 NA
ATOM     26  C   UNL A   1     -27.543   0.849  25.079  0.00  0.00    +0.234 C 
ATOM     27  C   UNL A   1     -26.354   0.576  25.777  0.00  0.00    +0.244 C 
ATOM     28  F   UNL A   1     -25.860  -0.681  25.795  0.00  0.00    -0.227 F 
BRANCH  23  29
ATOM     29  C   UNL A   1     -25.642   4.093  27.123  0.00  0.00    +0.263 C 
ATOM     30  N   UNL A   1     -25.614   5.252  26.449  0.00  0.00    -0.200 NA
ATOM     31  C   UNL A   1     -25.026   6.479  26.963  0.00  0.00    +0.139 C 
ATOM     32  O   UNL A   1     -25.143   3.966  28.243  0.00  0.00    -0.269 OA
ENDBRANCH  23  29
BRANCH  26  33
ATOM     33  O   UNL A   1     -28.193  -0.208  24.477  0.00  0.00    -0.459 OA
BRANCH  33  34
ATOM     34  C   UNL A   1     -29.460   0.005  23.866  0.00  0.00    +0.242 C 
BRANCH  34  35
ATOM     35  C   UNL A   1     -30.065  -1.377  23.573  0.00  0.00    +0.229 C 
ATOM     36  O   UNL A   1     -30.729  -1.878  24.721  0.00  0.00    -0.216 OA
ENDBRANCH  34  35
ENDBRANCH  33  34
ENDBRANCH  26  33
ENDBRANCH  16  22
ENDBRANCH  14  21
ENDBRANCH   1  14
BRANCH   1  37
ATOM     37  S   UNL A   1     -26.974  -0.107  28.862  0.00  0.00    -0.119 S 
BRANCH  37  38
ATOM     38  C   UNL A   1     -27.586   0.990  30.000  0.00  0.00    +0.061 C 
BRANCH  38  39
ATOM     39  C   UNL A   1     -27.873   2.455  30.192  0.00  0.00    +0.030 C 
BRANCH  39  40
ATOM     40  C   UNL A   1     -28.993   2.448  31.024  0.00  0.00    +0.090 C 
BRANCH  40  41
ATOM     41  N   UNL A   1     -28.911   3.441  32.097  0.00  0.00    -0.211 NA
BRANCH  41  48
ATOM     42  C   UNL A   1     -26.655   4.400  33.151  0.00  0.00    -0.005 C 
ATOM     43  C   UNL A   1     -24.749   5.872  32.026  0.00  0.00    -0.000 C 
ATOM     44  C   UNL A   1     -26.082   6.026  31.658  0.00  0.00    -0.003 C 
ATOM     45  C   UNL A   1     -26.970   5.034  32.322  0.00  0.00    -0.005 C 
ATOM     46  C   UNL A   1     -25.241   4.207  33.641  0.00  0.00    -0.003 C 
ATOM     47  C   UNL A   1     -24.314   4.912  32.894  0.00  0.00    -0.000 C 
ATOM     48  C   UNL A   1     -27.649   4.319  32.492  0.00  0.00    +0.117 C 
ENDBRANCH  41  48
ENDBRANCH  40  41
ENDBRANCH  39  40
ENDBRANCH  38  39
ENDBRANCH  37  38
ENDBRANCH   1  37
TORSDOF 16
