REMARK  Name = No_3919-gen_results/8p0m/2024-11-27-11-27-31/
REMARK  3 active torsions:
REMARK  status: ('A' for Active; 'I' for Inactive)
REMARK    1  A    between atoms: C_4  and  C_8
REMARK    2  A    between atoms: C_6  and  C_15
REMARK    3  A    between atoms: C_8  and  C_9
REMARK                            x       y       z     vdW  Elec       q    Type
REMARK                         _______ _______ _______ _____ _____    ______ ____
ROOT
ATOM      1  O   UNL A   1     -28.123  -1.335  28.487  0.00  0.00    -0.296 OA
ATOM      2  C   UNL A   1     -27.064  -0.824  28.869  0.00  0.00    +0.151 C 
ATOM      3  C   UNL A   1     -25.946  -1.040  28.849  0.00  0.00    +0.065 C 
ATOM      4  C   UNL A   1     -24.760  -0.156  29.164  0.00  0.00    +0.012 C 
ATOM      5  C   UNL A   1     -25.092   1.079  29.649  0.00  0.00    +0.013 C 
ATOM      6  C   UNL A   1     -26.409   1.438  29.707  0.00  0.00    +0.111 C 
ATOM      7  C   UNL A   1     -27.369   0.659  29.415  0.00  0.00    +0.076 C 
ENDROOT
BRANCH   6   8
ATOM      8  C   UNL A   1     -26.700   2.835  30.292  0.00  0.00    +0.365 C 
ATOM      9  O   UNL A   1     -25.921   3.536  30.238  0.00  0.00    -0.246 OA
ATOM     10  O   UNL A   1     -27.878   3.001  30.737  0.00  0.00    -0.246 OA
ENDBRANCH   6   8
BRANCH   4  11
ATOM     11  C   UNL A   1     -23.356  -0.564  29.121  0.00  0.00    +0.028 C 
BRANCH  11  12
ATOM     12  C   UNL A   1     -22.432   0.242  28.455  0.00  0.00    -0.003 A 
ATOM     13  C   UNL A   1     -21.050  -0.062  28.452  0.00  0.00    +0.095 A 
ATOM     14  C   UNL A   1     -22.838   1.399  27.736  0.00  0.00    -0.001 A 
ATOM     15  C   UNL A   1     -21.845   2.098  26.954  0.00  0.00    +0.020 A 
ATOM     16  N   UNL A   1     -20.146   0.741  27.905  0.00  0.00    -0.243 NA
ATOM     17  C   UNL A   1     -20.570   1.859  27.204  0.00  0.00    +0.099 A 
ENDBRANCH  11  12
ENDBRANCH   4  11
TORSDOF 3
