MODEL 391
MODEL 1
REMARK VINA RESULT:    -5.162      0.000      0.000
REMARK INTER + INTRA:          -6.116
REMARK INTER:                  -5.765
REMARK INTRA:                  -0.351
REMARK UNBOUND:                -0.351
REMARK  Name = No_391-gen_results/8p0m/2024-11-27-11-27-31/
REMARK  2 active torsions:
REMARK  status: ('A' for Active; 'I' for Inactive)
REMARK    1  A    between atoms: C_2  and  C_4
REMARK    2  A    between atoms: C_4  and  C_5
REMARK                            x       y       z     vdW  Elec       q    Type
REMARK                         _______ _______ _______ _____ _____    ______ ____
ROOT
ATOM      1  C   UNL A   1     -24.221   0.347  27.659  0.00  0.00    +0.023 A 
ATOM      2  C   UNL A   1     -22.927   0.839  27.776  0.00  0.00    +0.056 A 
ATOM      3  C   UNL A   1     -21.956   0.199  28.623  0.00  0.00    +0.015 A 
ATOM      4  C   UNL A   1     -22.284  -1.028  29.225  0.00  0.00    +0.045 A 
ATOM      5  C   UNL A   1     -23.501  -1.630  29.028  0.00  0.00    +0.223 A 
ATOM      6  C   UNL A   1     -24.501  -0.970  28.203  0.00  0.00    +0.176 A 
ATOM      7  F   UNL A   1     -25.591  -1.561  28.028  0.00  0.00    -0.201 F 
ATOM      8 CL   UNL A   1     -22.500   2.306  27.062  0.00  0.00    -0.083 Cl
ATOM      9  O   UNL A   1     -23.902  -2.728  29.671  0.00  0.00    -0.284 OA
ENDROOT
BRANCH   1  10
ATOM     10  C   UNL A   1     -25.138   0.831  26.711  0.00  0.00    +0.082 C 
BRANCH  10  12
ATOM     11 CL   UNL A   1     -25.819  -0.675  24.820  0.00  0.00    -0.076 Cl
ATOM     12  C   UNL A   1     -24.960   0.344  25.372  0.00  0.00    +0.244 C 
ATOM     13  F   UNL A   1     -24.100   0.708  24.712  0.00  0.00    -0.219 F 
ENDBRANCH  10  12
ENDBRANCH   1  10
TORSDOF 2
ENDMDL
ENDMDL
