REMARK  Name = No_3920-gen_results/8p0m/2024-11-27-11-27-31/
REMARK  9 active torsions:
REMARK  status: ('A' for Active; 'I' for Inactive)
REMARK    1  A    between atoms: C_1  and  O_17
REMARK    2  A    between atoms: C_3  and  C_4
REMARK    3  A    between atoms: C_12  and  O_14
REMARK    4  A    between atoms: O_17  and  C_18
REMARK    5  A    between atoms: C_18  and  C_19
REMARK    6  A    between atoms: C_19  and  O_20
REMARK    7  A    between atoms: O_20  and  C_22
REMARK    8  A    between atoms: C_22  and  C_23
REMARK    9  A    between atoms: C_24  and  C_25
REMARK                            x       y       z     vdW  Elec       q    Type
REMARK                         _______ _______ _______ _____ _____    ______ ____
ROOT
ATOM      1  C   UNL A   1     -28.016  -0.814  28.878  0.00  0.00    +0.196 A 
ATOM      2  C   UNL A   1     -27.064  -0.119  28.608  0.00  0.00    +0.176 A 
ATOM      3  C   UNL A   1     -25.792  -0.430  29.076  0.00  0.00    +0.031 A 
ATOM      4  C   UNL A   1     -27.905  -1.898  29.873  0.00  0.00    +0.176 A 
ATOM      5  C   UNL A   1     -26.680  -2.314  30.318  0.00  0.00    +0.033 A 
ATOM      6  C   UNL A   1     -25.520  -1.556  29.977  0.00  0.00    +0.005 A 
ATOM      7  F   UNL A   1     -28.946  -2.644  30.208  0.00  0.00    -0.201 F 
ATOM      8  F   UNL A   1     -27.153   0.912  27.740  0.00  0.00    -0.201 F 
ENDROOT
BRANCH   3   9
ATOM      9  C   UNL A   1     -24.546   0.349  28.823  0.00  0.00    +0.005 A 
ATOM     10  C   UNL A   1     -23.241   0.022  29.332  0.00  0.00    +0.000 A 
ATOM     11  C   UNL A   1     -22.136   0.769  29.006  0.00  0.00    +0.003 A 
ATOM     12  C   UNL A   1     -22.116   1.734  28.026  0.00  0.00    +0.037 A 
ATOM     13  C   UNL A   1     -24.522   1.391  27.791  0.00  0.00    +0.037 A 
ATOM     14  C   UNL A   1     -23.325   2.052  27.447  0.00  0.00    +0.139 A 
BRANCH  14  15
ATOM     15  O   UNL A   1     -23.416   2.989  26.488  0.00  0.00    -0.471 OA
ATOM     16  C   UNL A   1     -24.748   3.444  26.200  0.00  0.00    +0.253 C 
ENDBRANCH  14  15
ENDBRANCH   3   9
BRANCH   1  17
ATOM     17  O   UNL A   1     -29.284  -0.594  28.522  0.00  0.00    -0.444 OA
BRANCH  17  18
ATOM     18  C   UNL A   1     -29.516   0.324  27.579  0.00  0.00    +0.348 C 
ATOM     19  O   UNL A   1     -30.119  -0.394  26.465  0.00  0.00    -0.172 OA
BRANCH  18  20
ATOM     20  C   UNL A   1     -30.402   1.262  28.100  0.00  0.00    +0.221 C 
BRANCH  20  21
ATOM     21  O   UNL A   1     -30.953   1.159  29.139  0.00  0.00    -0.342 OA
BRANCH  21  22
ATOM     22  C   UNL A   1     -31.496   2.160  29.805  0.00  0.00    +0.169 C 
BRANCH  22  23
ATOM     23  C   UNL A   1     -31.885   1.976  31.133  0.00  0.00    +0.006 C 
ATOM     24  C   UNL A   1     -31.517   0.870  31.778  0.00  0.00    -0.002 C 
BRANCH  24  25
ATOM     25  C   UNL A   1     -32.092   0.516  32.880  0.00  0.00    -0.005 C 
ATOM     26  C   UNL A   1     -31.642  -0.660  33.608  0.00  0.00    -0.026 C 
ATOM     27  C   UNL A   1     -32.147  -1.159  34.730  0.00  0.00    +0.031 C 
ENDBRANCH  24  25
ENDBRANCH  22  23
ENDBRANCH  21  22
ENDBRANCH  20  21
ENDBRANCH  18  20
ENDBRANCH  17  18
ENDBRANCH   1  17
TORSDOF 9
