MODEL 3920
MODEL 1
REMARK VINA RESULT:    -7.261      0.000      0.000
REMARK INTER + INTRA:         -12.461
REMARK INTER:                 -11.081
REMARK INTRA:                  -1.379
REMARK UNBOUND:                -1.379
REMARK  Name = No_3920-gen_results/8p0m/2024-11-27-11-27-31/
REMARK  9 active torsions:
REMARK  status: ('A' for Active; 'I' for Inactive)
REMARK    1  A    between atoms: C_1  and  O_17
REMARK    2  A    between atoms: C_3  and  C_4
REMARK    3  A    between atoms: C_12  and  O_14
REMARK    4  A    between atoms: O_17  and  C_18
REMARK    5  A    between atoms: C_18  and  C_19
REMARK    6  A    between atoms: C_19  and  O_20
REMARK    7  A    between atoms: O_20  and  C_22
REMARK    8  A    between atoms: C_22  and  C_23
REMARK    9  A    between atoms: C_24  and  C_25
REMARK                            x       y       z     vdW  Elec       q    Type
REMARK                         _______ _______ _______ _____ _____    ______ ____
ROOT
ATOM      1  C   UNL A   1     -23.860   0.879  27.567  0.00  0.00    +0.196 A 
ATOM      2  C   UNL A   1     -24.490  -0.141  27.729  0.00  0.00    +0.176 A 
ATOM      3  C   UNL A   1     -23.998  -1.170  28.523  0.00  0.00    +0.031 A 
ATOM      4  C   UNL A   1     -22.466   0.990  28.036  0.00  0.00    +0.176 A 
ATOM      5  C   UNL A   1     -21.939   0.057  28.886  0.00  0.00    +0.033 A 
ATOM      6  C   UNL A   1     -22.673  -1.137  29.152  0.00  0.00    +0.005 A 
ATOM      7  F   UNL A   1     -21.749   2.085  27.833  0.00  0.00    -0.201 F 
ATOM      8  F   UNL A   1     -25.750  -0.286  27.263  0.00  0.00    -0.201 F 
ENDROOT
BRANCH   3   9
ATOM      9  C   UNL A   1     -24.671  -2.474  28.792  0.00  0.00    +0.005 A 
ATOM     10  C   UNL A   1     -24.083  -3.772  28.593  0.00  0.00    +0.000 A 
ATOM     11  C   UNL A   1     -24.759  -4.922  28.916  0.00  0.00    +0.003 A 
ATOM     12  C   UNL A   1     -25.929  -4.956  29.637  0.00  0.00    +0.037 A 
ATOM     13  C   UNL A   1     -25.928  -2.516  29.546  0.00  0.00    +0.037 A 
ATOM     14  C   UNL A   1     -26.516  -3.742  29.920  0.00  0.00    +0.139 A 
BRANCH  14  15
ATOM     15  O   UNL A   1     -27.667  -3.665  30.610  0.00  0.00    -0.471 OA
ATOM     16  C   UNL A   1     -28.556  -4.781  30.444  0.00  0.00    +0.253 C 
ENDBRANCH  14  15
ENDBRANCH   3   9
BRANCH   1  17
ATOM     17  O   UNL A   1     -24.210   1.912  26.798  0.00  0.00    -0.444 OA
BRANCH  17  18
ATOM     18  C   UNL A   1     -25.100   2.781  27.288  0.00  0.00    +0.348 C 
ATOM     19  O   UNL A   1     -24.360   4.010  27.535  0.00  0.00    -0.172 OA
BRANCH  18  20
ATOM     20  C   UNL A   1     -26.083   2.981  26.324  0.00  0.00    +0.221 C 
BRANCH  20  21
ATOM     21  O   UNL A   1     -26.364   2.203  25.482  0.00  0.00    -0.342 OA
BRANCH  21  22
ATOM     22  C   UNL A   1     -27.529   2.151  24.864  0.00  0.00    +0.169 C 
BRANCH  22  23
ATOM     23  C   UNL A   1     -28.255   0.959  24.857  0.00  0.00    +0.006 C 
ATOM     24  C   UNL A   1     -28.044   0.067  23.889  0.00  0.00    -0.002 C 
BRANCH  24  25
ATOM     25  C   UNL A   1     -28.884  -0.889  23.667  0.00  0.00    -0.005 C 
ATOM     26  C   UNL A   1     -30.317  -0.639  23.689  0.00  0.00    -0.026 C 
ATOM     27  C   UNL A   1     -31.294  -1.520  23.507  0.00  0.00    +0.031 C 
ENDBRANCH  24  25
ENDBRANCH  22  23
ENDBRANCH  21  22
ENDBRANCH  20  21
ENDBRANCH  18  20
ENDBRANCH  17  18
ENDBRANCH   1  17
TORSDOF 9
ENDMDL
ENDMDL
