MODEL 3921
MODEL 1
REMARK VINA RESULT:    -5.389      0.000      0.000
REMARK INTER + INTRA:          -5.741
REMARK INTER:                  -5.704
REMARK INTRA:                  -0.037
REMARK UNBOUND:                -0.037
REMARK  Name = No_3921-gen_results/8p0m/2024-11-27-11-27-31/
REMARK  1 active torsions:
REMARK  status: ('A' for Active; 'I' for Inactive)
REMARK    1  A    between atoms: C_5  and  C_6
REMARK                            x       y       z     vdW  Elec       q    Type
REMARK                         _______ _______ _______ _____ _____    ______ ____
ROOT
ATOM      1  C   UNL A   1     -25.044  -4.883  29.085  0.00  0.00    +0.140 A 
ATOM      2  C   UNL A   1     -26.096  -4.599  29.608  0.00  0.00    +0.030 A 
ATOM      3  C   UNL A   1     -26.407  -3.331  30.062  0.00  0.00    +0.003 A 
ATOM      4  C   UNL A   1     -25.447  -2.299  29.865  0.00  0.00    +0.007 A 
ATOM      5  C   UNL A   1     -24.363  -2.627  29.125  0.00  0.00    +0.082 A 
ATOM      6  C   UNL A   1     -24.195  -3.878  28.715  0.00  0.00    +0.036 A 
ATOM      7  F   UNL A   1     -24.844  -6.170  28.627  0.00  0.00    -0.204 F 
ENDROOT
BRANCH   5   8
ATOM      8  C   UNL A   1     -23.469  -1.578  28.855  0.00  0.00    +0.388 C 
ATOM      9  O   UNL A   1     -22.310  -1.677  29.033  0.00  0.00    -0.241 OA
ATOM     10  O   UNL A   1     -23.946  -0.543  28.071  0.00  0.00    -0.241 OA
ENDBRANCH   5   8
TORSDOF 1
ENDMDL
ENDMDL
