MODEL 3922
MODEL 1
REMARK VINA RESULT:    -5.095      0.000      0.000
REMARK INTER + INTRA:          -5.095
REMARK INTER:                  -5.095
REMARK INTRA:                   0.000
REMARK UNBOUND:                 0.000
REMARK  Name = No_3922-gen_results/8p0m/2024-11-27-11-27-31/
REMARK  0 active torsions:
REMARK  status: ('A' for Active; 'I' for Inactive)
REMARK                            x       y       z     vdW  Elec       q    Type
REMARK                         _______ _______ _______ _____ _____    ______ ____
ROOT
ATOM      1  C   UNL A   1     -10.080 -10.199  17.921  0.00  0.00    +0.196 A 
ATOM      2  C   UNL A   1      -9.079 -10.876  17.894  0.00  0.00    +0.042 A 
ATOM      3  C   UNL A   1      -8.040 -10.741  18.794  0.00  0.00    +0.003 A 
ATOM      4  C   UNL A   1      -8.178  -9.778  19.832  0.00  0.00    +0.000 A 
ATOM      5  C   UNL A   1      -9.383  -9.168  19.922  0.00  0.00    +0.003 A 
ATOM      6  C   UNL A   1     -10.336  -9.389  19.038  0.00  0.00    +0.042 A 
ATOM      7  O   UNL A   1     -11.109 -10.415  17.011  0.00  0.00    -0.287 OA
ENDROOT
TORSDOF 0
ENDMDL
ENDMDL
