MODEL 3923
MODEL 1
REMARK VINA RESULT:    -5.199      0.000      0.000
REMARK INTER + INTRA:          -5.636
REMARK INTER:                  -5.503
REMARK INTRA:                  -0.133
REMARK UNBOUND:                -0.133
REMARK  Name = No_3923-gen_results/8p0m/2024-11-27-11-27-31/
REMARK  1 active torsions:
REMARK  status: ('A' for Active; 'I' for Inactive)
REMARK    1  A    between atoms: C_2  and  C_3
REMARK                            x       y       z     vdW  Elec       q    Type
REMARK                         _______ _______ _______ _____ _____    ______ ____
ROOT
ATOM      1  C   UNL A   1     -24.417  -2.577  29.208  0.00  0.00    +0.043 A 
ATOM      2  C   UNL A   1     -23.849  -3.807  28.875  0.00  0.00    +0.001 A 
ATOM      3  C   UNL A   1     -24.572  -4.945  28.845  0.00  0.00    -0.001 A 
ATOM      4  C   UNL A   1     -25.911  -4.964  29.396  0.00  0.00    -0.004 A 
ATOM      5  C   UNL A   1     -26.517  -3.839  29.859  0.00  0.00    -0.022 A 
ATOM      6  C   UNL A   1     -27.781  -3.810  30.463  0.00  0.00    +0.031 C 
ATOM      7  C   UNL A   1     -25.810  -2.680  29.718  0.00  0.00    -0.003 A 
ENDROOT
BRANCH   1   9
ATOM      8  F   UNL A   1     -24.176  -0.934  27.906  0.00  0.00    -0.193 F 
ATOM      9  C   UNL A   1     -23.856  -1.411  28.897  0.00  0.00    +0.341 C 
ATOM     10  F   UNL A   1     -22.426  -1.574  28.936  0.00  0.00    -0.193 F 
ENDBRANCH   1   9
TORSDOF 1
ENDMDL
ENDMDL
