MODEL 3924
MODEL 1
REMARK VINA RESULT:    -5.319      0.000      0.000
REMARK INTER + INTRA:          -5.693
REMARK INTER:                  -5.630
REMARK INTRA:                  -0.064
REMARK UNBOUND:                -0.064
REMARK  Name = No_3924-gen_results/8p0m/2024-11-27-11-27-31/
REMARK  1 active torsions:
REMARK  status: ('A' for Active; 'I' for Inactive)
REMARK    1  A    between atoms: C_2  and  C_7
REMARK                            x       y       z     vdW  Elec       q    Type
REMARK                         _______ _______ _______ _____ _____    ______ ____
ROOT
ATOM      1  C   UNL A   1     -25.579  -2.568  29.556  0.00  0.00    +0.005 A 
ATOM      2  C   UNL A   1     -24.647  -2.829  29.140  0.00  0.00    +0.055 A 
ATOM      3  C   UNL A   1     -26.503  -3.676  29.848  0.00  0.00    +0.000 A 
ATOM      4  C   UNL A   1     -26.212  -4.829  29.551  0.00  0.00    +0.000 A 
ATOM      5  C   UNL A   1     -24.035  -4.131  28.816  0.00  0.00    +0.005 A 
ATOM      6  C   UNL A   1     -24.907  -5.155  29.022  0.00  0.00    +0.000 A 
ENDROOT
BRANCH   2   7
ATOM      7  C   UNL A   1     -23.558  -1.679  28.868  0.00  0.00    +0.265 C 
ATOM      8  O   UNL A   1     -22.512  -1.825  28.988  0.00  0.00    -0.268 OA
ATOM      9  N   UNL A   1     -24.066  -0.436  28.317  0.00  0.00    -0.200 NA
ATOM     10  C   UNL A   1     -23.118   0.567  27.961  0.00  0.00    +0.139 C 
ENDBRANCH   2   7
TORSDOF 1
ENDMDL
ENDMDL
