REMARK  Name = outputs/IAG933/test6/raw/output_3925_IAG933_linker_design_.xyz
REMARK  9 active torsions:
REMARK  status: ('A' for Active; 'I' for Inactive)
REMARK    1  A    between atoms: C_1  and  C_2
REMARK    2  A    between atoms: C_1  and  C_8
REMARK    3  A    between atoms: C_1  and  N_33
REMARK    4  A    between atoms: C_13  and  C_40
REMARK    5  A    between atoms: C_14  and  C_15
REMARK    6  A    between atoms: C_21  and  O_22
REMARK    7  A    between atoms: O_22  and  C_23
REMARK    8  A    between atoms: C_23  and  C_24
REMARK    9  A    between atoms: C_28  and  C_32
REMARK                            x       y       z     vdW  Elec       q    Type
REMARK                         _______ _______ _______ _____ _____    ______ ____
ROOT
ATOM      1  C   UNL A   1     -22.417  -0.169  29.572  0.00  0.00    +0.213 C 
ATOM      2  C   UNL A   1     -22.095   1.505  27.491  0.00  0.00    +0.253 C 
ATOM      3  C   UNL A   1     -23.329   1.810  26.651  0.00  0.00    +0.197 C 
ATOM      4  N   UNL A   1     -23.867  -0.036  29.765  0.00  0.00    -0.240 N 
ATOM      5  O   UNL A   1     -24.279   2.244  29.544  0.00  0.00    -0.251 OA
ATOM      6  O   UNL A   1     -21.179   1.143  26.877  0.00  0.00    -0.273 OA
ATOM      7  N   UNL A   1     -21.859   1.152  28.864  0.00  0.00    -0.183 NA
ATOM      8  C   UNL A   1     -24.352   1.016  29.158  0.00  0.00    +0.325 C 
ATOM      9  C   UNL A   1     -24.563   1.306  26.901  0.00  0.00    +0.139 C 
ATOM     10  N   UNL A   1     -24.814   0.508  28.034  0.00  0.00    -0.185 NA
ENDROOT
BRANCH   9  11
ATOM     11  C   UNL A   1     -25.688   1.614  26.461  0.00  0.00    +0.036 C 
ATOM     12  C   UNL A   1     -26.250   2.920  26.395  0.00  0.00    +0.074 C 
ATOM     13  C   UNL A   1     -27.438   3.091  25.645  0.00  0.00    +0.106 C 
ATOM     14  N   UNL A   1     -28.075   2.089  25.003  0.00  0.00    -0.208 NA
ATOM     15  C   UNL A   1     -27.543   0.849  25.079  0.00  0.00    +0.253 C 
ATOM     16  C   UNL A   1     -26.354   0.576  25.777  0.00  0.00    +0.191 C 
ATOM     17  F   UNL A   1     -25.860  -0.681  25.795  0.00  0.00    -0.200 F 
BRANCH  12  18
ATOM     18  C   UNL A   1     -25.642   4.093  27.123  0.00  0.00    +0.266 C 
ATOM     19  N   UNL A   1     -25.614   5.252  26.449  0.00  0.00    -0.200 NA
ATOM     20  C   UNL A   1     -25.026   6.479  26.963  0.00  0.00    +0.139 C 
ATOM     21  O   UNL A   1     -25.143   3.966  28.243  0.00  0.00    -0.268 OA
ENDBRANCH  12  18
BRANCH  15  22
ATOM     22  O   UNL A   1     -28.193  -0.208  24.477  0.00  0.00    -0.456 OA
BRANCH  22  23
ATOM     23  C   UNL A   1     -29.460   0.005  23.866  0.00  0.00    +0.243 C 
BRANCH  23  24
ATOM     24  C   UNL A   1     -30.065  -1.377  23.573  0.00  0.00    +0.229 C 
ATOM     25  O   UNL A   1     -30.729  -1.878  24.721  0.00  0.00    -0.216 OA
ENDBRANCH  23  24
ENDBRANCH  22  23
ENDBRANCH  15  22
ENDBRANCH   9  11
BRANCH   3  26
ATOM     26  C   UNL A   1     -23.085   2.236  25.241  0.00  0.00    +0.408 C 
ATOM     27  F   UNL A   1     -23.355   1.289  24.310  0.00  0.00    -0.169 F 
ATOM     28  F   UNL A   1     -21.859   2.615  24.964  0.00  0.00    -0.169 F 
ATOM     29  F   UNL A   1     -23.793   3.264  24.934  0.00  0.00    -0.169 F 
ENDBRANCH   3  26
BRANCH   4  30
ATOM     30  C   UNL A   1     -24.855  -1.012  30.143  0.00  0.00    +0.117 C 
BRANCH  30  31
ATOM     31  C   UNL A   1     -24.973  -2.505  29.788  0.00  0.00    -0.003 C 
ATOM     32  C   UNL A   1     -23.906  -3.173  29.146  0.00  0.00    -0.003 C 
ATOM     33  C   UNL A   1     -23.989  -4.549  28.853  0.00  0.00    -0.000 C 
ATOM     34  C   UNL A   1     -25.137  -5.280  29.205  0.00  0.00    -0.000 C 
ATOM     35  C   UNL A   1     -26.232  -4.611  29.784  0.00  0.00    -0.000 C 
ATOM     36  C   UNL A   1     -26.155  -3.232  30.065  0.00  0.00    -0.003 C 
ENDBRANCH  30  31
BRANCH  30  37
ATOM     37  C   UNL A   1     -25.387  -0.679  31.571  0.00  0.00    +0.095 C 
ATOM     38  C   UNL A   1     -25.189   0.773  32.028  0.00  0.00    +0.021 C 
ATOM     39  C   UNL A   1     -25.336   0.684  33.544  0.00  0.00    +0.020 C 
ATOM     40  C   UNL A   1     -24.829  -0.715  33.905  0.00  0.00    +0.089 C 
ATOM     41  N   UNL A   1     -24.758  -1.481  32.646  0.00  0.00    -0.217 NA
ENDBRANCH  30  37
ENDBRANCH   4  30
TORSDOF 9
