MODEL 3926
MODEL 1
REMARK VINA RESULT:    -4.465      0.000      0.000
REMARK INTER + INTRA:          -4.465
REMARK INTER:                  -4.465
REMARK INTRA:                   0.000
REMARK UNBOUND:                 0.000
REMARK  Name = No_3926-gen_results/8p0m/2024-11-27-11-27-31/
REMARK  0 active torsions:
REMARK  status: ('A' for Active; 'I' for Inactive)
REMARK                            x       y       z     vdW  Elec       q    Type
REMARK                         _______ _______ _______ _____ _____    ______ ____
ROOT
ATOM      1  C   UNL A   1      -9.208  -9.221  19.995  0.00  0.00    +0.011 A 
ATOM      2  C   UNL A   1      -8.356  -9.795  19.760  0.00  0.00    +0.058 A 
ATOM      3  C   UNL A   1     -10.309  -9.244  19.019  0.00  0.00    +0.001 A 
ATOM      4  C   UNL A   1     -10.261 -10.116  17.892  0.00  0.00    +0.000 A 
ATOM      5  C   UNL A   1      -8.080 -10.811  18.707  0.00  0.00    +0.011 A 
ATOM      6  C   UNL A   1      -9.075 -10.854  17.777  0.00  0.00    +0.001 A 
ATOM      7 CL   UNL A   1      -6.995  -9.790  20.958  0.00  0.00    -0.082 Cl
ENDROOT
TORSDOF 0
ENDMDL
ENDMDL
