MODEL 3928
MODEL 1
REMARK VINA RESULT:    -5.378      0.000      0.000
REMARK INTER + INTRA:          -6.325
REMARK INTER:                  -6.007
REMARK INTRA:                  -0.318
REMARK UNBOUND:                -0.318
REMARK  Name = No_3928-gen_results/8p0m/2024-11-27-11-27-31/
REMARK  2 active torsions:
REMARK  status: ('A' for Active; 'I' for Inactive)
REMARK    1  A    between atoms: C_7  and  C_9
REMARK    2  A    between atoms: C_9  and  N_10
REMARK                            x       y       z     vdW  Elec       q    Type
REMARK                         _______ _______ _______ _____ _____    ______ ____
ROOT
ATOM      1 CL   UNL A   1     -26.337  -1.137  30.807  0.00  0.00    -0.083 Cl
ATOM      2  C   UNL A   1     -25.746  -2.285  30.164  0.00  0.00    +0.055 A 
ATOM      3  C   UNL A   1     -26.169  -3.364  29.996  0.00  0.00    +0.013 A 
ATOM      4  C   UNL A   1     -25.544  -4.515  29.315  0.00  0.00    +0.030 A 
ATOM      5  C   UNL A   1     -24.284  -4.257  28.731  0.00  0.00    +0.140 A 
ATOM      6  C   UNL A   1     -23.767  -3.014  28.887  0.00  0.00    +0.028 A 
ATOM      7  C   UNL A   1     -24.421  -2.041  29.516  0.00  0.00    +0.005 A 
ATOM      8  F   UNL A   1     -23.663  -5.253  28.157  0.00  0.00    -0.204 F 
ENDROOT
BRANCH   7   9
ATOM      9  C   UNL A   1     -23.782  -0.693  29.569  0.00  0.00    +0.081 C 
ATOM     10  C   UNL A   1     -22.806  -0.678  30.672  0.00  0.00    +0.022 C 
BRANCH   9  11
ATOM     11  N   UNL A   1     -23.347  -0.192  28.526  0.00  0.00    -0.268 NA
ATOM     12  C   UNL A   1     -24.090   0.440  27.643  0.00  0.00    +0.090 C 
ATOM     13  C   UNL A   1     -21.979   0.369  28.513  0.00  0.00    +0.090 C 
ENDBRANCH   9  11
ENDBRANCH   7   9
TORSDOF 2
ENDMDL
ENDMDL
