MODEL 3929
MODEL 1
REMARK VINA RESULT:    -5.107      0.000      0.000
REMARK INTER + INTRA:          -5.540
REMARK INTER:                  -5.405
REMARK INTRA:                  -0.135
REMARK UNBOUND:                -0.135
REMARK  Name = No_3929-gen_results/8p0m/2024-11-27-11-27-31/
REMARK  1 active torsions:
REMARK  status: ('A' for Active; 'I' for Inactive)
REMARK    1  A    between atoms: C_4  and  C_8
REMARK                            x       y       z     vdW  Elec       q    Type
REMARK                         _______ _______ _______ _____ _____    ______ ____
ROOT
ATOM      1  C   UNL A   1     -23.967  -4.480  28.580  0.00  0.00    +0.030 A 
ATOM      2  C   UNL A   1     -24.872  -4.960  28.826  0.00  0.00    +0.140 A 
ATOM      3  C   UNL A   1     -23.900  -3.007  28.919  0.00  0.00    +0.006 A 
ATOM      4  C   UNL A   1     -24.954  -2.418  29.649  0.00  0.00    +0.072 A 
ATOM      5  C   UNL A   1     -26.081  -4.597  29.599  0.00  0.00    +0.030 A 
ATOM      6  C   UNL A   1     -26.052  -3.250  29.934  0.00  0.00    +0.006 A 
ATOM      7  F   UNL A   1     -24.925  -6.376  28.510  0.00  0.00    -0.204 F 
ENDROOT
BRANCH   4   8
ATOM      8  C   UNL A   1     -24.935  -1.023  29.971  0.00  0.00    +0.419 C 
ATOM      9  F   UNL A   1     -24.729  -0.279  29.036  0.00  0.00    -0.166 F 
ATOM     10  F   UNL A   1     -23.928  -0.756  30.913  0.00  0.00    -0.166 F 
ATOM     11  F   UNL A   1     -26.066  -0.625  30.620  0.00  0.00    -0.166 F 
ENDBRANCH   4   8
TORSDOF 1
ENDMDL
ENDMDL
