MODEL 392
MODEL 1
REMARK VINA RESULT:    -5.202      0.000      0.000
REMARK INTER + INTRA:          -5.981
REMARK INTER:                  -5.810
REMARK INTRA:                  -0.171
REMARK UNBOUND:                -0.171
REMARK  Name = No_392-gen_results/8p0m/2024-11-27-11-27-31/
REMARK  2 active torsions:
REMARK  status: ('A' for Active; 'I' for Inactive)
REMARK    1  A    between atoms: C_2  and  C_3
REMARK    2  A    between atoms: C_2  and  C_9
REMARK                            x       y       z     vdW  Elec       q    Type
REMARK                         _______ _______ _______ _____ _____    ______ ____
ROOT
ATOM      1  C   UNL A   1     -24.274  -2.657  29.058  0.00  0.00    +0.015 A 
ATOM      2  C   UNL A   1     -24.003  -4.039  28.663  0.00  0.00    +0.001 A 
ATOM      3  C   UNL A   1     -24.797  -5.154  28.940  0.00  0.00    +0.000 A 
ATOM      4  C   UNL A   1     -26.001  -4.849  29.530  0.00  0.00    +0.000 A 
ATOM      5  C   UNL A   1     -26.353  -3.569  29.826  0.00  0.00    +0.000 A 
ATOM      6  C   UNL A   1     -25.586  -2.532  29.587  0.00  0.00    +0.001 A 
ENDROOT
BRANCH   1   8
ATOM      7  N   UNL A   1     -22.297  -1.484  29.126  0.00  0.00    -0.153 NA
ATOM      8  C   UNL A   1     -23.494  -1.579  28.846  0.00  0.00    +0.081 C 
BRANCH   8   9
ATOM      9  C   UNL A   1     -24.153  -0.319  28.282  0.00  0.00    +0.048 C 
ATOM     10  C   UNL A   1     -23.360   0.614  27.615  0.00  0.00    +0.007 C 
ENDBRANCH   8   9
ENDBRANCH   1   8
TORSDOF 2
ENDMDL
ENDMDL
