REMARK  Name = outputs/IAG933/test6/raw/output_393_IAG933_linker_design_.xyz
REMARK  13 active torsions:
REMARK  status: ('A' for Active; 'I' for Inactive)
REMARK    1  A    between atoms: C_1  and  C_2
REMARK    2  A    between atoms: C_1  and  C_8
REMARK    3  A    between atoms: C_1  and  C_31
REMARK    4  A    between atoms: C_13  and  C_33
REMARK    5  A    between atoms: C_14  and  C_15
REMARK    6  A    between atoms: C_21  and  O_22
REMARK    7  A    between atoms: O_22  and  C_23
REMARK    8  A    between atoms: C_23  and  C_24
REMARK    9  A    between atoms: C_28  and  C_32
REMARK   10  A    between atoms: C_28  and  C_37
REMARK   11  A    between atoms: C_29  and  C_32
REMARK   12  A    between atoms: C_31  and  C_37
REMARK   13  A    between atoms: C_42  and  O_44
REMARK                            x       y       z     vdW  Elec       q    Type
REMARK                         _______ _______ _______ _____ _____    ______ ____
ROOT
ATOM      1  C   UNL A   1     -24.653   0.066  28.811  0.00  0.00    +0.032 C 
ATOM      2  C   UNL A   1     -24.675   1.128  27.400  0.00  0.00    +0.087 C 
ATOM      3  O   UNL A   1     -23.253   2.848  27.809  0.00  0.00    -0.190 OA
ATOM      4  C   UNL A   1     -22.067   0.906  28.089  0.00  0.00    +0.027 C 
ATOM      5  C   UNL A   1     -22.963   0.075  29.012  0.00  0.00    -0.026 C 
ATOM      6  C   UNL A   1     -23.208   1.604  27.227  0.00  0.00    +0.242 C 
ENDROOT
BRANCH   2   7
ATOM      7  C   UNL A   1     -25.688   1.614  26.461  0.00  0.00    +0.021 C 
ATOM      8  C   UNL A   1     -26.250   2.920  26.395  0.00  0.00    +0.073 C 
ATOM      9  C   UNL A   1     -27.438   3.091  25.645  0.00  0.00    +0.106 C 
ATOM     10  N   UNL A   1     -28.075   2.089  25.003  0.00  0.00    -0.208 NA
ATOM     11  C   UNL A   1     -27.543   0.849  25.079  0.00  0.00    +0.253 C 
ATOM     12  C   UNL A   1     -26.354   0.576  25.777  0.00  0.00    +0.189 C 
ATOM     13  F   UNL A   1     -25.860  -0.681  25.795  0.00  0.00    -0.200 F 
BRANCH   8  14
ATOM     14  C   UNL A   1     -25.642   4.093  27.123  0.00  0.00    +0.266 C 
ATOM     15  N   UNL A   1     -25.614   5.252  26.449  0.00  0.00    -0.200 NA
ATOM     16  C   UNL A   1     -25.026   6.479  26.963  0.00  0.00    +0.139 C 
ATOM     17  O   UNL A   1     -25.143   3.966  28.243  0.00  0.00    -0.268 OA
ENDBRANCH   8  14
BRANCH  11  18
ATOM     18  O   UNL A   1     -28.193  -0.208  24.477  0.00  0.00    -0.456 OA
BRANCH  18  19
ATOM     19  C   UNL A   1     -29.460   0.005  23.866  0.00  0.00    +0.243 C 
BRANCH  19  20
ATOM     20  C   UNL A   1     -30.065  -1.377  23.573  0.00  0.00    +0.229 C 
ATOM     21  O   UNL A   1     -30.729  -1.878  24.721  0.00  0.00    -0.216 OA
ENDBRANCH  19  20
ENDBRANCH  18  19
ENDBRANCH  11  18
ENDBRANCH   2   7
BRANCH   6  23
ATOM     22  C   UNL A   1     -21.935   1.574  25.058  0.00  0.00    +0.177 C 
ATOM     23  O   UNL A   1     -23.002   1.304  25.845  0.00  0.00    -0.326 OA
ENDBRANCH   6  23
BRANCH   1  24
ATOM     24  C   UNL A   1     -24.855  -1.012  30.143  0.00  0.00    +0.043 C 
BRANCH  24  25
ATOM     25  C   UNL A   1     -24.973  -2.505  29.788  0.00  0.00    -0.021 C 
ATOM     26  C   UNL A   1     -23.906  -3.173  29.146  0.00  0.00    -0.004 C 
ATOM     27  C   UNL A   1     -23.989  -4.549  28.853  0.00  0.00    -0.000 C 
ATOM     28  C   UNL A   1     -25.137  -5.280  29.205  0.00  0.00    -0.000 C 
ATOM     29  C   UNL A   1     -26.232  -4.611  29.784  0.00  0.00    -0.000 C 
ATOM     30  C   UNL A   1     -26.155  -3.232  30.065  0.00  0.00    -0.004 C 
ENDBRANCH  24  25
BRANCH  24  31
ATOM     31  C   UNL A   1     -25.387  -0.679  31.571  0.00  0.00    +0.077 C 
ATOM     32  C   UNL A   1     -25.189   0.773  32.028  0.00  0.00    +0.019 C 
ATOM     33  C   UNL A   1     -25.336   0.684  33.544  0.00  0.00    +0.020 C 
ATOM     34  C   UNL A   1     -24.829  -0.715  33.905  0.00  0.00    +0.089 C 
ATOM     35  N   UNL A   1     -24.758  -1.481  32.646  0.00  0.00    -0.219 NA
ENDBRANCH  24  31
ENDBRANCH   1  24
BRANCH   1  36
ATOM     36  C   UNL A   1     -26.293   0.226  28.947  0.00  0.00    +0.005 C 
BRANCH  36  37
ATOM     37  C   UNL A   1     -27.043   1.490  29.619  0.00  0.00    +0.005 C 
BRANCH  37  38
ATOM     38  C   UNL A   1     -27.996   2.406  29.720  0.00  0.00    +0.026 C 
BRANCH  38  39
ATOM     39  C   UNL A   1     -27.693   3.889  30.141  0.00  0.00    -0.022 C 
ATOM     40  C   UNL A   1     -28.665   4.896  29.982  0.00  0.00    -0.004 C 
ATOM     41  C   UNL A   1     -26.014   5.486  30.780  0.00  0.00    -0.000 C 
ATOM     42  C   UNL A   1     -26.426   4.178  30.666  0.00  0.00    -0.004 C 
ATOM     43  C   UNL A   1     -26.918   6.497  30.552  0.00  0.00    -0.000 C 
ATOM     44  C   UNL A   1     -28.241   6.207  30.182  0.00  0.00    -0.000 C 
ENDBRANCH  38  39
ENDBRANCH  37  38
ENDBRANCH  36  37
ENDBRANCH   1  36
TORSDOF 13
