REMARK  Name = No_3930-gen_results/8p0m/2024-11-27-11-27-31/
REMARK  2 active torsions:
REMARK  status: ('A' for Active; 'I' for Inactive)
REMARK    1  A    between atoms: C_3  and  C_10
REMARK    2  A    between atoms: C_5  and  C_7
REMARK                            x       y       z     vdW  Elec       q    Type
REMARK                         _______ _______ _______ _____ _____    ______ ____
ROOT
ATOM      1  C   UNL A   1     -28.016  -0.814  28.878  0.00  0.00    +0.000 A 
ATOM      2  C   UNL A   1     -27.064  -0.119  28.608  0.00  0.00    -0.000 A 
ATOM      3  C   UNL A   1     -26.972   0.714  27.506  0.00  0.00    -0.002 A 
ATOM      4  C   UNL A   1     -28.105   0.774  26.642  0.00  0.00    +0.006 A 
ATOM      5  C   UNL A   1     -29.204   0.118  27.048  0.00  0.00    +0.080 A 
ATOM      6  C   UNL A   1     -29.213  -0.609  28.128  0.00  0.00    +0.007 A 
ENDROOT
BRANCH   3   7
ATOM      7  C   UNL A   1     -25.672   1.409  27.115  0.00  0.00    +0.004 C 
ATOM      8  C   UNL A   1     -24.535   1.054  27.718  0.00  0.00    +0.018 C 
ATOM      9  C   UNL A   1     -23.314   1.810  27.357  0.00  0.00    +0.093 C 
ATOM     10  N   UNL A   1     -23.508   2.601  26.271  0.00  0.00    -0.264 NA
ATOM     11  C   UNL A   1     -25.324   2.386  26.105  0.00  0.00    +0.152 C 
ENDBRANCH   3   7
BRANCH   5  12
ATOM     12  C   UNL A   1     -30.480   0.193  26.324  0.00  0.00    +0.388 C 
ATOM     13  O   UNL A   1     -31.205   1.196  26.504  0.00  0.00    -0.241 OA
ATOM     14  O   UNL A   1     -30.723  -0.702  25.403  0.00  0.00    -0.241 OA
ENDBRANCH   5  12
TORSDOF 2
