MODEL 3932
MODEL 1
REMARK VINA RESULT:    -7.348      0.000      0.000
REMARK INTER + INTRA:         -12.386
REMARK INTER:                 -10.784
REMARK INTRA:                  -1.602
REMARK UNBOUND:                -1.602
REMARK  Name = No_3932-gen_results/8p0m/2024-11-27-11-27-31/
REMARK  8 active torsions:
REMARK  status: ('A' for Active; 'I' for Inactive)
REMARK    1  A    between atoms: C_1  and  O_15
REMARK    2  A    between atoms: C_3  and  C_7
REMARK    3  A    between atoms: O_15  and  C_16
REMARK    4  A    between atoms: C_16  and  C_17
REMARK    5  A    between atoms: N_19  and  C_20
REMARK    6  A    between atoms: C_20  and  C_21
REMARK    7  A    between atoms: C_22  and  C_23
REMARK    8  A    between atoms: C_24  and  C_25
REMARK                            x       y       z     vdW  Elec       q    Type
REMARK                         _______ _______ _______ _____ _____    ______ ____
ROOT
ATOM      1  C   UNL A   1     -23.568   0.685  27.892  0.00  0.00    +0.150 A 
ATOM      2  C   UNL A   1     -24.298  -0.238  28.170  0.00  0.00    +0.038 A 
ATOM      3  C   UNL A   1     -23.874  -1.378  28.852  0.00  0.00    +0.003 A 
ATOM      4  C   UNL A   1     -22.474  -1.509  29.205  0.00  0.00    +0.001 A 
ATOM      5  C   UNL A   1     -21.681  -0.398  28.840  0.00  0.00    +0.015 A 
ATOM      6  C   UNL A   1     -22.169   0.630  28.192  0.00  0.00    +0.091 A 
ATOM      7 CL   UNL A   1     -21.097   1.892  27.723  0.00  0.00    -0.079 Cl
ENDROOT
BRANCH   3   8
ATOM      8  C   UNL A   1     -24.714  -2.542  29.237  0.00  0.00    +0.002 A 
ATOM      9  C   UNL A   1     -24.423  -3.758  28.854  0.00  0.00    +0.030 A 
ATOM     10  C   UNL A   1     -25.285  -4.858  29.178  0.00  0.00    +0.140 A 
ATOM     11  C   UNL A   1     -26.501  -4.699  29.760  0.00  0.00    +0.030 A 
ATOM     12  C   UNL A   1     -26.009  -2.338  29.858  0.00  0.00    +0.000 A 
ATOM     13  C   UNL A   1     -26.879  -3.433  30.110  0.00  0.00    +0.002 A 
ATOM     14  F   UNL A   1     -24.852  -6.095  28.828  0.00  0.00    -0.204 F 
ENDBRANCH   3   8
BRANCH   1  15
ATOM     15  O   UNL A   1     -23.979   1.775  27.201  0.00  0.00    -0.465 OA
BRANCH  15  16
ATOM     16  C   UNL A   1     -24.823   2.675  27.738  0.00  0.00    +0.291 C 
BRANCH  16  17
ATOM     17  C   UNL A   1     -25.540   3.318  26.730  0.00  0.00    +0.286 C 
ATOM     18  O   UNL A   1     -25.345   3.288  25.622  0.00  0.00    -0.269 OA
ATOM     19  N   UNL A   1     -26.843   3.789  27.185  0.00  0.00    -0.197 NA
BRANCH  19  20
ATOM     20  C   UNL A   1     -27.755   4.424  26.283  0.00  0.00    +0.141 C 
BRANCH  20  21
ATOM     21  C   UNL A   1     -28.835   3.915  25.993  0.00  0.00    -0.003 C 
ATOM     22  C   UNL A   1     -28.925   3.257  24.788  0.00  0.00    -0.003 C 
BRANCH  22  23
ATOM     23  C   UNL A   1     -29.348   2.454  24.317  0.00  0.00    -0.000 C 
ATOM     24  C   UNL A   1     -28.869   1.197  23.639  0.00  0.00    -0.000 C 
BRANCH  24  25
ATOM     25  C   UNL A   1     -27.498   1.024  23.784  0.00  0.00    -0.005 C 
ATOM     26  C   UNL A   1     -27.038   0.080  24.639  0.00  0.00    -0.026 C 
ATOM     27  C   UNL A   1     -25.641  -0.132  24.804  0.00  0.00    +0.031 C 
ENDBRANCH  24  25
ENDBRANCH  22  23
ENDBRANCH  20  21
ENDBRANCH  19  20
ENDBRANCH  16  17
ENDBRANCH  15  16
ENDBRANCH   1  15
TORSDOF 8
ENDMDL
ENDMDL
