MODEL 3933
MODEL 1
REMARK VINA RESULT:    -7.632      0.000      0.000
REMARK INTER + INTRA:          -9.639
REMARK INTER:                  -8.971
REMARK INTRA:                  -0.668
REMARK UNBOUND:                -0.668
REMARK  Name = No_3933-gen_results/8p0m/2024-11-27-11-27-31/
REMARK  3 active torsions:
REMARK  status: ('A' for Active; 'I' for Inactive)
REMARK    1  A    between atoms: C_2  and  N_7
REMARK    2  A    between atoms: N_7  and  C_8
REMARK    3  A    between atoms: N_7  and  C_14
REMARK                            x       y       z     vdW  Elec       q    Type
REMARK                         _______ _______ _______ _____ _____    ______ ____
ROOT
ATOM      1  N   UNL A   1     -24.418  -1.301  29.759  0.00  0.00    -0.266 N 
ENDROOT
BRANCH   1   3
ATOM      2  C   UNL A   1     -23.810  -3.297  28.788  0.00  0.00    +0.015 A 
ATOM      3  C   UNL A   1     -24.618  -2.663  29.425  0.00  0.00    +0.056 A 
ATOM      4  C   UNL A   1     -25.787  -3.173  29.890  0.00  0.00    +0.015 A 
ATOM      5  C   UNL A   1     -26.082  -4.522  29.617  0.00  0.00    +0.001 A 
ATOM      6  C   UNL A   1     -24.002  -4.706  28.555  0.00  0.00    +0.001 A 
ATOM      7  C   UNL A   1     -25.173  -5.260  28.975  0.00  0.00    +0.000 A 
ENDBRANCH   1   3
BRANCH   1   8
ATOM      8  C   UNL A   1     -23.479  -0.616  29.005  0.00  0.00    +0.056 A 
ATOM      9  C   UNL A   1     -22.112  -0.594  29.401  0.00  0.00    +0.015 A 
ATOM     10  C   UNL A   1     -21.184   0.199  28.612  0.00  0.00    +0.001 A 
ATOM     11  C   UNL A   1     -23.846   0.361  28.094  0.00  0.00    +0.015 A 
ATOM     12  C   UNL A   1     -22.953   1.175  27.438  0.00  0.00    +0.001 A 
ATOM     13  C   UNL A   1     -21.609   1.094  27.757  0.00  0.00    +0.000 A 
ENDBRANCH   1   8
BRANCH   1  14
ATOM     14  C   UNL A   1     -24.910  -0.829  30.975  0.00  0.00    +0.056 A 
ATOM     15  C   UNL A   1     -25.508   0.372  31.060  0.00  0.00    +0.015 A 
ATOM     16  C   UNL A   1     -23.916  -1.144  32.101  0.00  0.00    +0.015 A 
ATOM     17  C   UNL A   1     -24.432  -0.775  33.376  0.00  0.00    +0.001 A 
ATOM     18  C   UNL A   1     -25.970   0.786  32.344  0.00  0.00    +0.001 A 
ATOM     19  C   UNL A   1     -25.282   0.319  33.433  0.00  0.00    +0.000 A 
ENDBRANCH   1  14
TORSDOF 3
ENDMDL
ENDMDL
