REMARK  Name = outputs/IAG933/test6/raw/output_3934_IAG933_linker_design_.xyz
REMARK  11 active torsions:
REMARK  status: ('A' for Active; 'I' for Inactive)
REMARK    1  A    between atoms: C_1  and  C_2
REMARK    2  A    between atoms: C_1  and  C_8
REMARK    3  A    between atoms: C_1  and  N_35
REMARK    4  A    between atoms: C_13  and  C_38
REMARK    5  A    between atoms: C_14  and  C_15
REMARK    6  A    between atoms: C_21  and  O_22
REMARK    7  A    between atoms: O_22  and  C_23
REMARK    8  A    between atoms: C_23  and  C_24
REMARK    9  A    between atoms: C_32  and  N_35
REMARK   10  A    between atoms: N_35  and  C_43
REMARK   11  A    between atoms: C_39  and  C_43
REMARK                            x       y       z     vdW  Elec       q    Type
REMARK                         _______ _______ _______ _____ _____    ______ ____
ROOT
ATOM      1  F   UNL A   1     -20.775   1.199  28.031  0.00  0.00    -0.200 F 
ATOM      2  C   UNL A   1     -22.371   1.613  26.648  0.00  0.00    +0.250 C 
ATOM      3  C   UNL A   1     -23.028   0.360  28.615  0.00  0.00    +0.050 C 
ATOM      4  C   UNL A   1     -24.412   0.438  28.296  0.00  0.00    +0.069 C 
ATOM      5  C   UNL A   1     -22.105   1.020  27.792  0.00  0.00    +0.187 C 
ATOM      6  C   UNL A   1     -24.616   1.208  27.087  0.00  0.00    +0.100 C 
ATOM      7  N   UNL A   1     -23.609   1.585  26.241  0.00  0.00    -0.215 NA
ATOM      8  F   UNL A   1     -21.465   2.310  25.926  0.00  0.00    -0.181 F 
ENDROOT
BRANCH   6   9
ATOM      9  C   UNL A   1     -25.688   1.614  26.461  0.00  0.00    +0.057 C 
ATOM     10  C   UNL A   1     -26.250   2.920  26.395  0.00  0.00    +0.078 C 
ATOM     11  C   UNL A   1     -27.438   3.091  25.645  0.00  0.00    +0.107 C 
ATOM     12  N   UNL A   1     -28.075   2.089  25.003  0.00  0.00    -0.208 NA
ATOM     13  C   UNL A   1     -27.543   0.849  25.079  0.00  0.00    +0.253 C 
ATOM     14  C   UNL A   1     -26.354   0.576  25.777  0.00  0.00    +0.195 C 
ATOM     15  F   UNL A   1     -25.860  -0.681  25.795  0.00  0.00    -0.199 F 
BRANCH  10  16
ATOM     16  C   UNL A   1     -25.642   4.093  27.123  0.00  0.00    +0.267 C 
ATOM     17  N   UNL A   1     -25.614   5.252  26.449  0.00  0.00    -0.200 NA
ATOM     18  C   UNL A   1     -25.026   6.479  26.963  0.00  0.00    +0.139 C 
ATOM     19  O   UNL A   1     -25.143   3.966  28.243  0.00  0.00    -0.268 OA
ENDBRANCH  10  16
BRANCH  13  20
ATOM     20  O   UNL A   1     -28.193  -0.208  24.477  0.00  0.00    -0.456 OA
BRANCH  20  21
ATOM     21  C   UNL A   1     -29.460   0.005  23.866  0.00  0.00    +0.243 C 
BRANCH  21  22
ATOM     22  C   UNL A   1     -30.065  -1.377  23.573  0.00  0.00    +0.229 C 
ATOM     23  O   UNL A   1     -30.729  -1.878  24.721  0.00  0.00    -0.216 OA
ENDBRANCH  21  22
ENDBRANCH  20  21
ENDBRANCH  13  20
ENDBRANCH   6   9
BRANCH   4  24
ATOM     24  N   UNL A   1     -25.357  -0.197  29.082  0.00  0.00    -0.302 N 
BRANCH  24  25
ATOM     25  C   UNL A   1     -24.855  -1.012  30.143  0.00  0.00    +0.111 C 
BRANCH  25  26
ATOM     26  C   UNL A   1     -24.973  -2.505  29.788  0.00  0.00    -0.003 C 
ATOM     27  C   UNL A   1     -23.906  -3.173  29.146  0.00  0.00    -0.003 C 
ATOM     28  C   UNL A   1     -23.989  -4.549  28.853  0.00  0.00    -0.000 C 
ATOM     29  C   UNL A   1     -25.137  -5.280  29.205  0.00  0.00    -0.000 C 
ATOM     30  C   UNL A   1     -26.232  -4.611  29.784  0.00  0.00    -0.000 C 
ATOM     31  C   UNL A   1     -26.155  -3.232  30.065  0.00  0.00    -0.003 C 
ENDBRANCH  25  26
BRANCH  25  32
ATOM     32  C   UNL A   1     -25.387  -0.679  31.571  0.00  0.00    +0.095 C 
ATOM     33  C   UNL A   1     -25.189   0.773  32.028  0.00  0.00    +0.021 C 
ATOM     34  C   UNL A   1     -25.336   0.684  33.544  0.00  0.00    +0.020 C 
ATOM     35  C   UNL A   1     -24.829  -0.715  33.905  0.00  0.00    +0.089 C 
ATOM     36  N   UNL A   1     -24.758  -1.481  32.646  0.00  0.00    -0.217 NA
ENDBRANCH  25  32
ENDBRANCH  24  25
BRANCH  24  37
ATOM     37  C   UNL A   1     -26.820  -0.279  28.866  0.00  0.00    +0.098 C 
BRANCH  37  42
ATOM     38  C   UNL A   1     -29.915   1.482  29.459  0.00  0.00    +0.095 C 
ATOM     39  C   UNL A   1     -28.870   0.643  29.245  0.00  0.00    -0.002 C 
ATOM     40  C   UNL A   1     -30.933   3.598  29.760  0.00  0.00    +0.159 C 
ATOM     41  O   UNL A   1     -28.494   3.223  29.293  0.00  0.00    -0.257 OA
ATOM     42  C   UNL A   1     -27.591   1.057  28.762  0.00  0.00    +0.076 C 
ATOM     43  N   UNL A   1     -29.779   2.820  29.467  0.00  0.00    -0.236 N 
ATOM     44  C   UNL A   1     -27.526   2.430  29.869  0.00  0.00    +0.180 C 
ENDBRANCH  37  42
ENDBRANCH  24  37
ENDBRANCH   4  24
TORSDOF 11
