MODEL 3934
MODEL 1
REMARK VINA RESULT:    -6.831      0.000      0.000
REMARK INTER + INTRA:          -8.225
REMARK INTER:                  -7.629
REMARK INTRA:                  -0.595
REMARK UNBOUND:                -0.595
REMARK  Name = No_3934-gen_results/8p0m/2024-11-27-11-27-31/
REMARK  2 active torsions:
REMARK  status: ('A' for Active; 'I' for Inactive)
REMARK    1  A    between atoms: C_2  and  C_8
REMARK    2  A    between atoms: C_8  and  C_9
REMARK                            x       y       z     vdW  Elec       q    Type
REMARK                         _______ _______ _______ _____ _____    ______ ____
ROOT
ATOM      1  C   UNL A   1     -24.762  -0.825  29.056  0.00  0.00    +0.052 C 
ENDROOT
BRANCH   1   3
ATOM      2  C   UNL A   1     -23.885  -3.020  28.493  0.00  0.00    -0.002 A 
ATOM      3  C   UNL A   1     -24.745  -2.384  29.058  0.00  0.00    -0.018 A 
ATOM      4  C   UNL A   1     -25.868  -2.953  29.626  0.00  0.00    -0.002 A 
ATOM      5  C   UNL A   1     -25.996  -4.370  29.574  0.00  0.00    +0.029 A 
ATOM      6  C   UNL A   1     -24.931  -5.047  29.086  0.00  0.00    +0.140 A 
ATOM      7  C   UNL A   1     -23.878  -4.419  28.599  0.00  0.00    +0.029 A 
ATOM      8  F   UNL A   1     -25.011  -6.371  29.073  0.00  0.00    -0.204 F 
ENDBRANCH   1   3
BRANCH   1   9
ATOM      9  C   UNL A   1     -23.990  -0.105  28.286  0.00  0.00    -0.022 A 
ATOM     10  C   UNL A   1     -22.821   0.568  28.760  0.00  0.00    -0.004 A 
ATOM     11  C   UNL A   1     -22.066   1.399  27.876  0.00  0.00    -0.000 A 
ATOM     12  C   UNL A   1     -22.622   1.900  26.688  0.00  0.00    -0.000 A 
ATOM     13  C   UNL A   1     -23.907   1.482  26.296  0.00  0.00    -0.005 A 
ATOM     14  C   UNL A   1     -24.631   0.518  27.063  0.00  0.00    -0.025 A 
ATOM     15  C   UNL A   1     -25.872  -0.056  26.631  0.00  0.00    +0.031 C 
ENDBRANCH   1   9
TORSDOF 2
ENDMDL
ENDMDL
