REMARK  Name = No_3935-gen_results/8p0m/2024-11-27-11-27-31/
REMARK  2 active torsions:
REMARK  status: ('A' for Active; 'I' for Inactive)
REMARK    1  A    between atoms: C_2  and  C_3
REMARK    2  A    between atoms: N_4  and  C_6
REMARK                            x       y       z     vdW  Elec       q    Type
REMARK                         _______ _______ _______ _____ _____    ______ ____
ROOT
ATOM      1  O   UNL A   1     -28.123  -1.335  28.487  0.00  0.00    -0.268 OA
ATOM      2  C   UNL A   1     -28.521  -0.436  29.078  0.00  0.00    +0.269 C 
ATOM      3  N   UNL A   1     -29.742   0.110  28.887  0.00  0.00    -0.175 NA
ENDROOT
BRANCH   2   4
ATOM      4  C   UNL A   1     -27.666   0.113  30.035  0.00  0.00    +0.055 A 
ATOM      5  C   UNL A   1     -27.840   1.229  30.642  0.00  0.00    +0.005 A 
ATOM      6  C   UNL A   1     -26.365  -0.629  30.330  0.00  0.00    +0.005 A 
ATOM      7  C   UNL A   1     -26.924   1.755  31.646  0.00  0.00    +0.000 A 
ATOM      8  C   UNL A   1     -25.446  -0.092  31.320  0.00  0.00    +0.000 A 
ATOM      9  C   UNL A   1     -25.746   1.105  31.960  0.00  0.00    +0.000 A 
ENDBRANCH   2   4
BRANCH   3  10
ATOM     10  C   UNL A   1     -30.601  -0.346  28.024  0.00  0.00    +0.074 A 
ATOM     11  C   UNL A   1     -30.823  -0.122  26.974  0.00  0.00    +0.017 A 
ATOM     12  C   UNL A   1     -31.768  -0.767  26.014  0.00  0.00    +0.001 A 
ATOM     13  C   UNL A   1     -32.544  -1.806  26.579  0.00  0.00    +0.000 A 
ATOM     14  C   UNL A   1     -32.307  -2.145  27.927  0.00  0.00    +0.001 A 
ATOM     15  C   UNL A   1     -31.387  -1.469  28.716  0.00  0.00    +0.017 A 
ENDBRANCH   3  10
TORSDOF 2
