MODEL 3935
MODEL 1
REMARK VINA RESULT:    -6.385      0.000      0.000
REMARK INTER + INTRA:          -6.910
REMARK INTER:                  -7.132
REMARK INTRA:                   0.222
REMARK UNBOUND:                 0.222
REMARK  Name = No_3935-gen_results/8p0m/2024-11-27-11-27-31/
REMARK  2 active torsions:
REMARK  status: ('A' for Active; 'I' for Inactive)
REMARK    1  A    between atoms: C_2  and  C_3
REMARK    2  A    between atoms: N_4  and  C_6
REMARK                            x       y       z     vdW  Elec       q    Type
REMARK                         _______ _______ _______ _____ _____    ______ ____
ROOT
ATOM      1  O   UNL A   1     -25.794  -0.337  28.067  0.00  0.00    -0.268 OA
ATOM      2  C   UNL A   1     -24.685  -0.615  27.977  0.00  0.00    +0.269 C 
ATOM      3  N   UNL A   1     -24.167  -1.791  28.393  0.00  0.00    -0.175 NA
ENDROOT
BRANCH   2   4
ATOM      4  C   UNL A   1     -23.843   0.345  27.414  0.00  0.00    +0.055 A 
ATOM      5  C   UNL A   1     -22.749   0.775  27.927  0.00  0.00    +0.005 A 
ATOM      6  C   UNL A   1     -24.296   1.010  26.117  0.00  0.00    +0.005 A 
ATOM      7  C   UNL A   1     -21.894   1.771  27.292  0.00  0.00    +0.000 A 
ATOM      8  C   UNL A   1     -23.448   2.015  25.496  0.00  0.00    +0.000 A 
ATOM      9  C   UNL A   1     -22.255   2.382  26.107  0.00  0.00    +0.000 A 
ENDBRANCH   2   4
BRANCH   3  10
ATOM     10  C   UNL A   1     -24.883  -2.741  28.919  0.00  0.00    +0.074 A 
ATOM     11  C   UNL A   1     -25.834  -2.770  29.462  0.00  0.00    +0.017 A 
ATOM     12  C   UNL A   1     -26.648  -3.923  29.950  0.00  0.00    +0.001 A 
ATOM     13  C   UNL A   1     -26.056  -5.186  29.717  0.00  0.00    +0.000 A 
ATOM     14  C   UNL A   1     -24.831  -5.219  29.021  0.00  0.00    +0.001 A 
ATOM     15  C   UNL A   1     -24.175  -4.068  28.609  0.00  0.00    +0.017 A 
ENDBRANCH   3  10
TORSDOF 2
ENDMDL
ENDMDL
