MODEL 3936
MODEL 1
REMARK VINA RESULT:    -6.055      0.000      0.000
REMARK INTER + INTRA:          -6.984
REMARK INTER:                  -6.762
REMARK INTRA:                  -0.222
REMARK UNBOUND:                -0.222
REMARK  Name = No_3936-gen_results/8p0m/2024-11-27-11-27-31/
REMARK  2 active torsions:
REMARK  status: ('A' for Active; 'I' for Inactive)
REMARK    1  A    between atoms: C_2  and  C_5
REMARK    2  A    between atoms: C_3  and  C_10
REMARK                            x       y       z     vdW  Elec       q    Type
REMARK                         _______ _______ _______ _____ _____    ______ ____
ROOT
ATOM      1  C   UNL A   1     -28.161 -11.834  31.588  0.00  0.00    +0.007 A 
ATOM      2  C   UNL A   1     -28.183 -11.309  32.501  0.00  0.00    +0.080 A 
ATOM      3  C   UNL A   1     -29.019 -11.244  30.553  0.00  0.00    -0.000 A 
ATOM      4  C   UNL A   1     -29.876 -10.255  30.811  0.00  0.00    -0.000 A 
ATOM      5  C   UNL A   1     -29.845  -9.709  32.058  0.00  0.00    +0.000 A 
ATOM      6  C   UNL A   1     -28.986 -10.234  32.957  0.00  0.00    +0.007 A 
ENDROOT
BRANCH   2   7
ATOM      7  C   UNL A   1     -27.271 -11.810  33.704  0.00  0.00    +0.388 C 
ATOM      8  O   UNL A   1     -26.669 -12.800  33.760  0.00  0.00    -0.241 OA
ATOM      9  O   UNL A   1     -26.974 -10.855  34.652  0.00  0.00    -0.241 OA
ENDBRANCH   2   7
BRANCH   3  10
ATOM     10  C   UNL A   1     -28.953 -11.900  29.147  0.00  0.00    -0.005 C 
ATOM     11  C   UNL A   1     -29.471 -11.377  28.064  0.00  0.00    -0.026 C 
ATOM     12  C   UNL A   1     -29.424 -12.141  26.858  0.00  0.00    +0.031 C 
ENDBRANCH   3  10
TORSDOF 2
ENDMDL
ENDMDL
