REMARK  Name = outputs/IAG933/test6/raw/output_3936_IAG933_linker_design_.xyz
REMARK  13 active torsions:
REMARK  status: ('A' for Active; 'I' for Inactive)
REMARK    1  A    between atoms: C_1  and  C_2
REMARK    2  A    between atoms: C_1  and  C_8
REMARK    3  A    between atoms: C_9  and  N_32
REMARK    4  A    between atoms: C_13  and  C_30
REMARK    5  A    between atoms: C_14  and  C_15
REMARK    6  A    between atoms: C_21  and  O_22
REMARK    7  A    between atoms: O_22  and  C_23
REMARK    8  A    between atoms: C_23  and  C_24
REMARK    9  A    between atoms: O_29  and  C_31
REMARK   10  A    between atoms: O_29  and  C_37
REMARK   11  A    between atoms: C_30  and  N_34
REMARK   12  A    between atoms: C_30  and  C_36
REMARK   13  A    between atoms: C_37  and  C_41
REMARK                            x       y       z     vdW  Elec       q    Type
REMARK                         _______ _______ _______ _____ _____    ______ ____
ROOT
ATOM      1  C   UNL A   1     -25.039   1.149  27.811  0.00  0.00    +0.161 C 
ENDROOT
BRANCH   1   2
ATOM      2  C   UNL A   1     -25.688   1.614  26.461  0.00  0.00    +0.097 C 
ATOM      3  C   UNL A   1     -26.250   2.920  26.395  0.00  0.00    +0.057 C 
ATOM      4  C   UNL A   1     -27.438   3.091  25.645  0.00  0.00    +0.102 C 
ATOM      5  N   UNL A   1     -28.075   2.089  25.003  0.00  0.00    -0.212 NA
ATOM      6  C   UNL A   1     -27.543   0.849  25.079  0.00  0.00    +0.234 C 
ATOM      7  C   UNL A   1     -26.354   0.576  25.777  0.00  0.00    +0.242 C 
ATOM      8  F   UNL A   1     -25.860  -0.681  25.795  0.00  0.00    -0.227 F 
BRANCH   3   9
ATOM      9  C   UNL A   1     -25.642   4.093  27.123  0.00  0.00    +0.263 C 
ATOM     10  N   UNL A   1     -25.614   5.252  26.449  0.00  0.00    -0.200 NA
ATOM     11  C   UNL A   1     -25.026   6.479  26.963  0.00  0.00    +0.139 C 
ATOM     12  O   UNL A   1     -25.143   3.966  28.243  0.00  0.00    -0.269 OA
ENDBRANCH   3   9
BRANCH   6  13
ATOM     13  O   UNL A   1     -28.193  -0.208  24.477  0.00  0.00    -0.459 OA
BRANCH  13  14
ATOM     14  C   UNL A   1     -29.460   0.005  23.866  0.00  0.00    +0.242 C 
BRANCH  14  15
ATOM     15  C   UNL A   1     -30.065  -1.377  23.573  0.00  0.00    +0.229 C 
ATOM     16  O   UNL A   1     -30.729  -1.878  24.721  0.00  0.00    -0.216 OA
ENDBRANCH  14  15
ENDBRANCH  13  14
ENDBRANCH   6  13
ENDBRANCH   1   2
BRANCH   1  18
ATOM     17  C   UNL A   1     -22.653   1.719  26.908  0.00  0.00    +0.030 C 
ATOM     18  N   UNL A   1     -23.594   1.256  27.872  0.00  0.00    -0.282 N 
ATOM     19  C   UNL A   1     -23.078   2.086  25.512  0.00  0.00    +0.047 C 
ATOM     20  C   UNL A   1     -21.419   0.981  28.580  0.00  0.00    +0.017 C 
ATOM     21  C   UNL A   1     -21.358   1.644  27.330  0.00  0.00    +0.012 C 
ATOM     22  C   UNL A   1     -22.753   0.829  28.956  0.00  0.00    +0.066 C 
ENDBRANCH   1  18
BRANCH   1  25
ATOM     23  O   UNL A   1     -24.265   3.638  31.567  0.00  0.00    -0.272 OA
ATOM     24  N   UNL A   1     -25.390   1.777  30.820  0.00  0.00    -0.227 N 
ATOM     25  C   UNL A   1     -25.852   1.305  29.216  0.00  0.00    +0.250 C 
ATOM     26  C   UNL A   1     -25.332   2.961  31.496  0.00  0.00    +0.262 C 
ATOM     27  O   UNL A   1     -26.910   0.915  29.139  0.00  0.00    -0.273 OA
BRANCH  24  29
ATOM     28  C   UNL A   1     -25.387  -0.679  31.571  0.00  0.00    +0.096 C 
ATOM     29  C   UNL A   1     -25.189   0.773  32.028  0.00  0.00    +0.100 C 
ATOM     30  C   UNL A   1     -25.336   0.684  33.544  0.00  0.00    +0.041 C 
ATOM     31  C   UNL A   1     -24.829  -0.715  33.905  0.00  0.00    +0.090 C 
ATOM     32  N   UNL A   1     -24.758  -1.481  32.646  0.00  0.00    -0.217 NA
BRANCH  28  33
ATOM     33  C   UNL A   1     -24.855  -1.012  30.143  0.00  0.00    +0.045 C 
BRANCH  33  34
ATOM     34  C   UNL A   1     -24.973  -2.505  29.788  0.00  0.00    -0.021 C 
ATOM     35  C   UNL A   1     -23.906  -3.173  29.146  0.00  0.00    -0.004 C 
ATOM     36  C   UNL A   1     -23.989  -4.549  28.853  0.00  0.00    -0.000 C 
ATOM     37  C   UNL A   1     -25.137  -5.280  29.205  0.00  0.00    -0.000 C 
ATOM     38  C   UNL A   1     -26.232  -4.611  29.784  0.00  0.00    -0.000 C 
ATOM     39  C   UNL A   1     -26.155  -3.232  30.065  0.00  0.00    -0.004 C 
ENDBRANCH  33  34
ENDBRANCH  28  33
ENDBRANCH  24  29
BRANCH  26  40
ATOM     40  C   UNL A   1     -26.389   3.518  32.340  0.00  0.00    +0.228 C 
BRANCH  40  41
ATOM     41  O   UNL A   1     -26.660   4.881  32.077  0.00  0.00    -0.344 OA
BRANCH  41  42
ATOM     42  C   UNL A   1     -25.935   5.870  32.783  0.00  0.00    +0.143 C 
ATOM     43  C   UNL A   1     -24.783   5.856  33.853  0.00  0.00    +0.035 C 
ENDBRANCH  41  42
ENDBRANCH  40  41
ENDBRANCH  26  40
ENDBRANCH   1  25
TORSDOF 13
