MODEL 3937
MODEL 1
REMARK VINA RESULT:    -7.814      0.000      0.000
REMARK INTER + INTRA:          -9.812
REMARK INTER:                  -9.184
REMARK INTRA:                  -0.628
REMARK UNBOUND:                -0.628
REMARK  Name = No_3937-gen_results/8p0m/2024-11-27-11-27-31/
REMARK  3 active torsions:
REMARK  status: ('A' for Active; 'I' for Inactive)
REMARK    1  A    between atoms: C_2  and  C_7
REMARK    2  A    between atoms: C_6  and  C_13
REMARK    3  A    between atoms: C_19  and  C_21
REMARK                            x       y       z     vdW  Elec       q    Type
REMARK                         _______ _______ _______ _____ _____    ______ ____
ROOT
ATOM      1  C   UNL A   1     -25.637  -2.348  30.045  0.00  0.00    +0.004 A 
ATOM      2  C   UNL A   1     -26.328  -3.338  29.970  0.00  0.00    +0.000 A 
ATOM      3  C   UNL A   1     -25.847  -4.506  29.390  0.00  0.00    +0.000 A 
ATOM      4  C   UNL A   1     -24.527  -4.560  28.817  0.00  0.00    +0.000 A 
ATOM      5  C   UNL A   1     -23.805  -3.364  28.926  0.00  0.00    +0.004 A 
ATOM      6  C   UNL A   1     -24.312  -2.281  29.470  0.00  0.00    +0.054 A 
ENDROOT
BRANCH   6   7
ATOM      7  C   UNL A   1     -23.460  -1.070  29.439  0.00  0.00    +0.249 C 
ATOM      8  N   UNL A   1     -23.467  -0.321  28.485  0.00  0.00    -0.276 N 
ATOM      9  O   UNL A   1     -22.717  -0.806  30.442  0.00  0.00    -0.270 OA
ATOM     10  C   UNL A   1     -22.710   0.951  28.355  0.00  0.00    +0.094 C 
ATOM     11  C   UNL A   1     -22.621   1.524  27.404  0.00  0.00    +0.022 C 
ATOM     12  C   UNL A   1     -23.650   1.565  26.602  0.00  0.00    +0.014 C 
ATOM     13  C   UNL A   1     -24.541   0.450  26.442  0.00  0.00    +0.111 C 
ATOM     14  C   UNL A   1     -24.418  -0.476  27.379  0.00  0.00    +0.104 C 
BRANCH  13  15
ATOM     15  C   UNL A   1     -25.505   0.338  25.340  0.00  0.00    +0.312 C 
ATOM     16  O   UNL A   1     -26.692   0.373  25.575  0.00  0.00    -0.259 OA
ATOM     17  F   UNL A   1     -25.100  -0.298  24.384  0.00  0.00    -0.164 F 
ENDBRANCH  13  15
ENDBRANCH   6   7
BRANCH   2  18
ATOM     18  C   UNL A   1     -27.720  -3.454  30.482  0.00  0.00    +0.000 A 
ATOM     19  C   UNL A   1     -28.516  -2.583  30.796  0.00  0.00    +0.000 A 
ATOM     20  C   UNL A   1     -29.917  -2.804  31.175  0.00  0.00    +0.000 A 
ATOM     21  C   UNL A   1     -30.361  -4.142  31.206  0.00  0.00    +0.000 A 
ATOM     22  C   UNL A   1     -28.272  -4.830  30.500  0.00  0.00    +0.000 A 
ATOM     23  C   UNL A   1     -29.511  -5.105  30.853  0.00  0.00    +0.000 A 
ENDBRANCH   2  18
TORSDOF 3
ENDMDL
ENDMDL
