MODEL 3938
MODEL 1
REMARK VINA RESULT:    -4.535      0.000      0.000
REMARK INTER + INTRA:          -4.535
REMARK INTER:                  -4.535
REMARK INTRA:                   0.000
REMARK UNBOUND:                 0.000
REMARK  Name = No_3938-gen_results/8p0m/2024-11-27-11-27-31/
REMARK  0 active torsions:
REMARK  status: ('A' for Active; 'I' for Inactive)
REMARK                            x       y       z     vdW  Elec       q    Type
REMARK                         _______ _______ _______ _____ _____    ______ ____
ROOT
ATOM      1  C   UNL A   1     -10.205  -9.095  19.578  0.00  0.00    +0.002 A 
ATOM      2  C   UNL A   1      -9.295  -9.177  20.370  0.00  0.00    +0.030 A 
ATOM      3  C   UNL A   1      -8.118  -9.882  20.122  0.00  0.00    +0.140 A 
ATOM      4  C   UNL A   1      -7.982 -10.613  18.877  0.00  0.00    +0.030 A 
ATOM      5  C   UNL A   1      -9.063 -10.508  18.002  0.00  0.00    +0.002 A 
ATOM      6  C   UNL A   1     -10.146  -9.826  18.323  0.00  0.00    +0.000 A 
ATOM      7  F   UNL A   1      -7.107 -10.012  20.972  0.00  0.00    -0.204 F 
ENDROOT
TORSDOF 0
ENDMDL
ENDMDL
