MODEL 3939
MODEL 1
REMARK VINA RESULT:    -6.681      0.000      0.000
REMARK INTER + INTRA:          -8.321
REMARK INTER:                  -7.852
REMARK INTRA:                  -0.469
REMARK UNBOUND:                -0.469
REMARK  Name = No_3939-gen_results/8p0m/2024-11-27-11-27-31/
REMARK  3 active torsions:
REMARK  status: ('A' for Active; 'I' for Inactive)
REMARK    1  A    between atoms: C_2  and  O_7
REMARK    2  A    between atoms: C_4  and  C_9
REMARK    3  A    between atoms: C_9  and  C_10
REMARK                            x       y       z     vdW  Elec       q    Type
REMARK                         _______ _______ _______ _____ _____    ______ ____
ROOT
ATOM      1  C   UNL A   1     -24.387   1.080  26.462  0.00  0.00    +0.037 A 
ATOM      2  C   UNL A   1     -23.543   1.681  26.656  0.00  0.00    +0.139 A 
ATOM      3  C   UNL A   1     -24.466  -0.204  27.258  0.00  0.00    -0.001 A 
ATOM      4  C   UNL A   1     -23.523  -0.445  28.279  0.00  0.00    -0.018 A 
ATOM      5  C   UNL A   1     -22.459   1.679  27.665  0.00  0.00    +0.037 A 
ATOM      6  C   UNL A   1     -22.504   0.516  28.420  0.00  0.00    -0.001 A 
ENDROOT
BRANCH   2   7
ATOM      7  O   UNL A   1     -23.552   2.857  25.772  0.00  0.00    -0.471 OA
ATOM      8  C   UNL A   1     -24.362   3.831  25.845  0.00  0.00    +0.253 C 
ENDBRANCH   2   7
BRANCH   4   9
ATOM      9  C   UNL A   1     -23.550  -1.658  29.065  0.00  0.00    +0.053 C 
BRANCH   9  10
ATOM     10  C   UNL A   1     -24.478  -2.590  28.916  0.00  0.00    -0.018 A 
ATOM     11  C   UNL A   1     -25.607  -2.682  29.865  0.00  0.00    -0.004 A 
ATOM     12  C   UNL A   1     -26.448  -3.804  29.787  0.00  0.00    -0.000 A 
ATOM     13  C   UNL A   1     -25.780  -5.053  29.467  0.00  0.00    -0.000 A 
ATOM     14  C   UNL A   1     -24.486  -5.051  28.811  0.00  0.00    -0.000 A 
ATOM     15  C   UNL A   1     -23.858  -3.857  28.660  0.00  0.00    -0.004 A 
ENDBRANCH   9  10
ENDBRANCH   4   9
TORSDOF 3
ENDMDL
ENDMDL
