MODEL 393
MODEL 1
REMARK VINA RESULT:    -6.405      0.000      0.000
REMARK INTER + INTRA:          -7.651
REMARK INTER:                  -7.153
REMARK INTRA:                  -0.498
REMARK UNBOUND:                -0.498
REMARK  Name = No_393-gen_results/8p0m/2024-11-27-11-27-31/
REMARK  2 active torsions:
REMARK  status: ('A' for Active; 'I' for Inactive)
REMARK    1  A    between atoms: C_1  and  C_2
REMARK    2  A    between atoms: C_1  and  C_3
REMARK                            x       y       z     vdW  Elec       q    Type
REMARK                         _______ _______ _______ _____ _____    ______ ____
ROOT
ATOM      1  C   UNL A   1     -23.584  -1.705  29.618  0.00  0.00    +0.053 C 
ENDROOT
BRANCH   1   2
ATOM      2  C   UNL A   1     -24.301  -2.469  29.498  0.00  0.00    -0.018 A 
ATOM      3  C   UNL A   1     -23.902  -3.808  28.879  0.00  0.00    -0.004 A 
ATOM      4  C   UNL A   1     -24.696  -4.903  28.904  0.00  0.00    -0.000 A 
ATOM      5  C   UNL A   1     -26.033  -4.770  29.387  0.00  0.00    -0.000 A 
ATOM      6  C   UNL A   1     -26.489  -3.669  29.969  0.00  0.00    -0.000 A 
ATOM      7  C   UNL A   1     -25.700  -2.599  30.097  0.00  0.00    -0.004 A 
ENDBRANCH   1   2
BRANCH   1   8
ATOM      8  C   UNL A   1     -23.566  -0.655  28.530  0.00  0.00    -0.018 A 
ATOM      9  C   UNL A   1     -24.635  -0.361  27.609  0.00  0.00    -0.004 A 
ATOM     10  C   UNL A   1     -24.391   0.708  26.672  0.00  0.00    -0.000 A 
ATOM     11  C   UNL A   1     -23.408   1.447  26.834  0.00  0.00    -0.000 A 
ATOM     12  C   UNL A   1     -22.355   1.351  27.697  0.00  0.00    -0.000 A 
ATOM     13  C   UNL A   1     -22.429   0.271  28.575  0.00  0.00    -0.004 A 
ENDBRANCH   1   8
TORSDOF 2
ENDMDL
ENDMDL
