REMARK  Name = outputs/IAG933/test6/raw/output_394_IAG933_linker_design_.xyz
REMARK  14 active torsions:
REMARK  status: ('A' for Active; 'I' for Inactive)
REMARK    1  A    between atoms: C_1  and  C_2
REMARK    2  A    between atoms: C_1  and  C_8
REMARK    3  A    between atoms: C_9  and  C_40
REMARK    4  A    between atoms: C_13  and  C_31
REMARK    5  A    between atoms: C_14  and  C_15
REMARK    6  A    between atoms: C_15  and  O_18
REMARK    7  A    between atoms: O_18  and  C_41
REMARK    8  A    between atoms: C_21  and  O_22
REMARK    9  A    between atoms: O_22  and  C_23
REMARK   10  A    between atoms: C_23  and  C_24
REMARK   11  A    between atoms: C_32  and  C_41
REMARK   12  A    between atoms: C_33  and  C_42
REMARK   13  A    between atoms: C_33  and  C_45
REMARK   14  A    between atoms: C_42  and  C_44
REMARK                            x       y       z     vdW  Elec       q    Type
REMARK                         _______ _______ _______ _____ _____    ______ ____
ROOT
ATOM      1  C   UNL A   1     -26.063   3.011  30.645  0.00  0.00    +0.044 C 
ATOM      2  C   UNL A   1     -26.011   1.797  31.443  0.00  0.00    +0.005 C 
ATOM      3  C   UNL A   1     -27.099   2.009  30.510  0.00  0.00    +0.007 C 
ENDROOT
BRANCH   2   5
ATOM      4  C   UNL A   1     -25.387  -0.679  31.571  0.00  0.00    +0.077 C 
ATOM      5  C   UNL A   1     -25.189   0.773  32.028  0.00  0.00    +0.018 C 
ATOM      6  C   UNL A   1     -25.336   0.684  33.544  0.00  0.00    +0.020 C 
ATOM      7  C   UNL A   1     -24.829  -0.715  33.905  0.00  0.00    +0.089 C 
ATOM      8  N   UNL A   1     -24.758  -1.481  32.646  0.00  0.00    -0.219 NA
BRANCH   4   9
ATOM      9  C   UNL A   1     -24.855  -1.012  30.143  0.00  0.00    +0.044 C 
BRANCH   9  10
ATOM     10  C   UNL A   1     -24.973  -2.505  29.788  0.00  0.00    -0.021 C 
ATOM     11  C   UNL A   1     -23.906  -3.173  29.146  0.00  0.00    -0.004 C 
ATOM     12  C   UNL A   1     -23.989  -4.549  28.853  0.00  0.00    -0.000 C 
ATOM     13  C   UNL A   1     -25.137  -5.280  29.205  0.00  0.00    -0.000 C 
ATOM     14  C   UNL A   1     -26.232  -4.611  29.784  0.00  0.00    -0.000 C 
ATOM     15  C   UNL A   1     -26.155  -3.232  30.065  0.00  0.00    -0.004 C 
ENDBRANCH   9  10
ENDBRANCH   4   9
ENDBRANCH   2   5
BRANCH   1  16
ATOM     16  C   UNL A   1     -25.637   4.078  29.520  0.00  0.00    +0.207 C 
BRANCH  16  17
ATOM     17  O   UNL A   1     -25.143   3.966  28.243  0.00  0.00    -0.461 OA
BRANCH  17  18
ATOM     18  C   UNL A   1     -25.642   4.093  27.123  0.00  0.00    +0.218 C 
ATOM     19  N   UNL A   1     -25.614   5.252  26.449  0.00  0.00    -0.236 NA
ATOM     20  C   UNL A   1     -25.026   6.479  26.963  0.00  0.00    +0.155 C 
BRANCH  18  22
ATOM     21  C   UNL A   1     -25.688   1.614  26.461  0.00  0.00    +0.094 C 
ATOM     22  C   UNL A   1     -26.250   2.920  26.395  0.00  0.00    +0.057 C 
ATOM     23  C   UNL A   1     -27.438   3.091  25.645  0.00  0.00    +0.102 C 
ATOM     24  N   UNL A   1     -28.075   2.089  25.003  0.00  0.00    -0.212 NA
ATOM     25  C   UNL A   1     -27.543   0.849  25.079  0.00  0.00    +0.234 C 
ATOM     26  C   UNL A   1     -26.354   0.576  25.777  0.00  0.00    +0.244 C 
ATOM     27  F   UNL A   1     -25.860  -0.681  25.795  0.00  0.00    -0.227 F 
BRANCH  21  29
ATOM     28  C   UNL A   1     -22.754   1.571  28.688  0.00  0.00    +0.018 C 
ATOM     29  C   UNL A   1     -24.312   1.583  26.909  0.00  0.00    +0.002 C 
ATOM     30  C   UNL A   1     -21.992   1.880  26.471  0.00  0.00    -0.000 C 
ATOM     31  C   UNL A   1     -21.709   1.802  27.821  0.00  0.00    +0.001 C 
ATOM     32  C   UNL A   1     -23.286   1.764  26.002  0.00  0.00    -0.003 C 
ATOM     33  C   UNL A   1     -24.036   1.490  28.237  0.00  0.00    +0.086 C 
ATOM     34  N   UNL A   1     -25.042   1.327  29.132  0.00  0.00    -0.128 NA
ENDBRANCH  21  29
BRANCH  25  35
ATOM     35  O   UNL A   1     -28.193  -0.208  24.477  0.00  0.00    -0.459 OA
BRANCH  35  36
ATOM     36  C   UNL A   1     -29.460   0.005  23.866  0.00  0.00    +0.242 C 
BRANCH  36  37
ATOM     37  C   UNL A   1     -30.065  -1.377  23.573  0.00  0.00    +0.229 C 
ATOM     38  O   UNL A   1     -30.729  -1.878  24.721  0.00  0.00    -0.216 OA
ENDBRANCH  36  37
ENDBRANCH  35  36
ENDBRANCH  25  35
ENDBRANCH  18  22
ENDBRANCH  17  18
ENDBRANCH  16  17
ENDBRANCH   1  16
BRANCH   3  39
ATOM     39  C   UNL A   1     -28.462   2.030  31.218  0.00  0.00    +0.038 C 
BRANCH  39  41
ATOM     40  O   UNL A   1     -29.281   0.540  29.713  0.00  0.00    -0.218 OA
ATOM     41  C   UNL A   1     -29.510   1.740  30.155  0.00  0.00    +0.174 C 
BRANCH  41  46
ATOM     42  C   UNL A   1     -30.446   4.766  27.399  0.00  0.00    -0.000 C 
ATOM     43  C   UNL A   1     -29.445   4.152  29.502  0.00  0.00    -0.002 C 
ATOM     44  C   UNL A   1     -30.169   2.417  27.914  0.00  0.00    -0.002 C 
ATOM     45  C   UNL A   1     -29.850   5.144  28.607  0.00  0.00    -0.000 C 
ATOM     46  C   UNL A   1     -29.690   2.807  29.180  0.00  0.00    +0.008 C 
ATOM     47  C   UNL A   1     -30.577   3.424  27.020  0.00  0.00    -0.000 C 
ENDBRANCH  41  46
ENDBRANCH  39  41
ENDBRANCH   3  39
TORSDOF 14
