MODEL 3940
MODEL 1
REMARK VINA RESULT:    -8.855      0.000      0.000
REMARK INTER + INTRA:         -11.514
REMARK INTER:                 -10.408
REMARK INTRA:                  -1.106
REMARK UNBOUND:                -1.106
REMARK  Name = No_3940-gen_results/8p0m/2024-11-27-11-27-31/
REMARK  3 active torsions:
REMARK  status: ('A' for Active; 'I' for Inactive)
REMARK    1  A    between atoms: C_4  and  C_11
REMARK    2  A    between atoms: C_14  and  C_17
REMARK    3  A    between atoms: C_20  and  C_22
REMARK                            x       y       z     vdW  Elec       q    Type
REMARK                         _______ _______ _______ _____ _____    ______ ____
ROOT
ATOM      1  C   UNL A   1     -24.850  -2.501  29.123  0.00  0.00    -0.000 A 
ATOM      2  C   UNL A   1     -24.344  -3.763  28.837  0.00  0.00    -0.000 A 
ATOM      3  C   UNL A   1     -26.106  -2.316  29.558  0.00  0.00    -0.001 A 
ATOM      4  C   UNL A   1     -26.870  -3.372  30.030  0.00  0.00    +0.019 A 
ATOM      5  C   UNL A   1     -25.099  -4.909  29.237  0.00  0.00    -0.000 A 
ATOM      6  C   UNL A   1     -26.404  -4.728  29.688  0.00  0.00    -0.001 A 
ENDROOT
BRANCH   1  10
ATOM      7  C   UNL A   1     -25.573   0.319  25.981  0.00  0.00    +0.000 A 
ATOM      8  C   UNL A   1     -25.374  -0.474  26.872  0.00  0.00    -0.000 A 
ATOM      9  C   UNL A   1     -24.284  -0.402  27.739  0.00  0.00    -0.000 A 
ATOM     10  C   UNL A   1     -23.959  -1.329  28.841  0.00  0.00    -0.000 A 
ATOM     11  C   UNL A   1     -22.800  -1.248  29.693  0.00  0.00    -0.000 A 
ATOM     12  C   UNL A   1     -22.056  -0.072  29.558  0.00  0.00    -0.000 A 
ATOM     13  C   UNL A   1     -24.498   1.333  25.707  0.00  0.00    +0.000 A 
ATOM     14  C   UNL A   1     -23.438   1.533  26.561  0.00  0.00    +0.000 A 
ATOM     15  C   UNL A   1     -23.241   0.648  27.606  0.00  0.00    -0.000 A 
ATOM     16  C   UNL A   1     -22.188   0.809  28.506  0.00  0.00    +0.000 A 
ENDBRANCH   1  10
BRANCH   4  17
ATOM     17  C   UNL A   1     -28.231  -3.314  30.462  0.00  0.00    +0.209 C 
ATOM     18  O   UNL A   1     -28.970  -4.229  30.045  0.00  0.00    -0.461 OA
ATOM     19  C   UNL A   1     -30.007  -4.631  30.244  0.00  0.00    +0.194 C 
ATOM     20  C   UNL A   1     -30.836  -5.179  30.005  0.00  0.00    +0.053 C 
ATOM     21  N   UNL A   1     -30.540  -3.767  31.414  0.00  0.00    -0.274 N 
ATOM     22  C   UNL A   1     -28.781  -3.325  31.860  0.00  0.00    +0.142 C 
ATOM     23  C   UNL A   1     -31.126  -2.825  31.562  0.00  0.00    +0.115 C 
BRANCH  20  24
ATOM     24  C   UNL A   1     -30.638  -6.285  28.967  0.00  0.00    +0.004 A 
ATOM     25  C   UNL A   1     -31.013  -5.968  27.753  0.00  0.00    +0.000 A 
ATOM     26  C   UNL A   1     -31.673  -7.003  27.009  0.00  0.00    +0.000 A 
ATOM     27  C   UNL A   1     -32.319  -7.924  27.656  0.00  0.00    +0.000 A 
ATOM     28  C   UNL A   1     -31.891  -8.398  28.891  0.00  0.00    +0.000 A 
ATOM     29  C   UNL A   1     -31.294  -7.328  29.709  0.00  0.00    +0.000 A 
ENDBRANCH  20  24
ENDBRANCH   4  17
TORSDOF 3
ENDMDL
ENDMDL
