MODEL 3941
MODEL 1
REMARK VINA RESULT:    -6.498      0.000      0.000
REMARK INTER + INTRA:          -7.634
REMARK INTER:                  -7.257
REMARK INTRA:                  -0.377
REMARK UNBOUND:                -0.377
REMARK  Name = No_3941-gen_results/8p0m/2024-11-27-11-27-31/
REMARK  2 active torsions:
REMARK  status: ('A' for Active; 'I' for Inactive)
REMARK    1  A    between atoms: C_1  and  C_2
REMARK    2  A    between atoms: C_5  and  C_9
REMARK                            x       y       z     vdW  Elec       q    Type
REMARK                         _______ _______ _______ _____ _____    ______ ____
ROOT
ATOM      1  C   UNL A   1     -24.159  -1.495  28.690  0.00  0.00    +0.018 A 
ATOM      2  C   UNL A   1     -23.040  -0.865  28.907  0.00  0.00    +0.002 A 
ATOM      3  C   UNL A   1     -22.649   0.450  28.342  0.00  0.00    +0.008 A 
ATOM      4  C   UNL A   1     -23.572   1.050  27.440  0.00  0.00    +0.098 A 
ATOM      5  C   UNL A   1     -24.726   0.362  27.162  0.00  0.00    +0.008 A 
ATOM      6  C   UNL A   1     -25.039  -0.845  27.688  0.00  0.00    +0.002 A 
ENDROOT
BRANCH   1   7
ATOM      7  C   UNL A   1     -24.505  -2.567  29.131  0.00  0.00    +0.081 A 
ATOM      8  N   UNL A   1     -25.908  -2.798  29.390  0.00  0.00    -0.244 NA
ATOM      9  C   UNL A   1     -26.459  -3.992  29.827  0.00  0.00    +0.099 A 
ATOM     10  C   UNL A   1     -25.927  -5.041  29.498  0.00  0.00    +0.021 A 
ATOM     11  C   UNL A   1     -24.607  -4.993  28.901  0.00  0.00    +0.003 A 
ATOM     12  C   UNL A   1     -23.981  -3.783  28.644  0.00  0.00    +0.019 A 
ENDBRANCH   1   7
BRANCH   4  13
ATOM     13  C   UNL A   1     -23.418   2.237  26.677  0.00  0.00    +0.477 C 
ATOM     14  N   UNL A   1     -22.773   2.398  25.527  0.00  0.00    +0.205 NA
ATOM     15  N   UNL A   1     -24.001   3.389  27.239  0.00  0.00    +0.205 NA
ENDBRANCH   4  13
TORSDOF 2
ENDMDL
ENDMDL
