MODEL 3942
MODEL 1
REMARK VINA RESULT:    -5.894      0.000      0.000
REMARK INTER + INTRA:         -11.826
REMARK INTER:                  -8.650
REMARK INTRA:                  -3.176
REMARK UNBOUND:                -3.176
REMARK  Name = No_3942-gen_results/8p0m/2024-11-27-11-27-31/
REMARK  8 active torsions:
REMARK  status: ('A' for Active; 'I' for Inactive)
REMARK    1  A    between atoms: C_3  and  C_4
REMARK    2  A    between atoms: C_6  and  O_13
REMARK    3  A    between atoms: O_13  and  C_14
REMARK    4  A    between atoms: C_14  and  C_15
REMARK    5  A    between atoms: N_17  and  C_18
REMARK    6  A    between atoms: C_19  and  C_20
REMARK    7  A    between atoms: C_21  and  C_22
REMARK    8  A    between atoms: C_22  and  C_24
REMARK                            x       y       z     vdW  Elec       q    Type
REMARK                         _______ _______ _______ _____ _____    ______ ____
ROOT
ATOM      1  O   UNL A   1      -7.159   2.395  34.953  0.00  0.00    -0.466 OA
ENDROOT
BRANCH   1   5
ATOM      2  C   UNL A   1      -8.299   2.038  37.124  0.00  0.00    +0.037 A 
ATOM      3  C   UNL A   1      -9.080   1.389  37.781  0.00  0.00    +0.003 A 
ATOM      4  C   UNL A   1      -9.562   0.168  37.323  0.00  0.00    +0.000 A 
ATOM      5  C   UNL A   1      -7.987   1.640  35.742  0.00  0.00    +0.139 A 
ATOM      6  C   UNL A   1      -8.364   0.417  35.243  0.00  0.00    +0.037 A 
ATOM      7  C   UNL A   1      -9.230  -0.389  36.000  0.00  0.00    +0.003 A 
BRANCH   4   8
ATOM      8  C   UNL A   1     -10.532  -0.717  38.030  0.00  0.00    +0.000 A 
ATOM      9  C   UNL A   1     -11.197  -1.853  37.452  0.00  0.00    +0.000 A 
ATOM     10  C   UNL A   1     -12.012  -2.626  38.251  0.00  0.00    +0.000 A 
ATOM     11  C   UNL A   1     -12.145  -2.575  39.600  0.00  0.00    +0.000 A 
ATOM     12  C   UNL A   1     -10.671  -0.640  39.476  0.00  0.00    +0.000 A 
ATOM     13  C   UNL A   1     -11.470  -1.544  40.198  0.00  0.00    +0.000 A 
ENDBRANCH   4   8
ENDBRANCH   1   5
BRANCH   1  14
ATOM     14  C   UNL A   1      -7.496   3.626  34.590  0.00  0.00    +0.291 C 
BRANCH  14  15
ATOM     15  C   UNL A   1      -8.230   3.603  33.402  0.00  0.00    +0.290 C 
ATOM     16  O   UNL A   1      -7.836   3.267  32.377  0.00  0.00    -0.269 OA
ATOM     17  N   UNL A   1      -9.576   4.066  33.466  0.00  0.00    -0.175 NA
BRANCH  17  18
ATOM     18  C   UNL A   1     -10.228   4.449  34.652  0.00  0.00    +0.089 C 
ATOM     19  C   UNL A   1     -10.852   3.811  35.297  0.00  0.00    +0.018 C 
BRANCH  19  20
ATOM     20  C   UNL A   1     -11.568   2.594  34.807  0.00  0.00    +0.001 C 
ATOM     21  C   UNL A   1     -12.163   1.945  35.289  0.00  0.00    -0.004 C 
BRANCH  21  22
ATOM     22  C   UNL A   1     -13.071   2.420  36.447  0.00  0.00    -0.022 C 
ATOM     23  C   UNL A   1     -14.300   3.093  36.283  0.00  0.00    -0.005 C 
BRANCH  22  24
ATOM     24  C   UNL A   1     -12.776   1.972  37.758  0.00  0.00    +0.026 C 
ATOM     25  C   UNL A   1     -12.870   2.805  38.877  0.00  0.00    +0.005 C 
ENDBRANCH  22  24
ENDBRANCH  21  22
ENDBRANCH  19  20
ENDBRANCH  17  18
ENDBRANCH  14  15
ENDBRANCH   1  14
TORSDOF 8
ENDMDL
ENDMDL
