MODEL 3943
MODEL 1
REMARK VINA RESULT:    -5.378      0.000      0.000
REMARK INTER + INTRA:          -6.097
REMARK INTER:                  -6.007
REMARK INTRA:                  -0.090
REMARK UNBOUND:                -0.090
REMARK  Name = No_3943-gen_results/8p0m/2024-11-27-11-27-31/
REMARK  2 active torsions:
REMARK  status: ('A' for Active; 'I' for Inactive)
REMARK    1  A    between atoms: C_1  and  C_7
REMARK    2  A    between atoms: C_5  and  C_10
REMARK                            x       y       z     vdW  Elec       q    Type
REMARK                         _______ _______ _______ _____ _____    ______ ____
ROOT
ATOM      1  C   UNL A   1     -28.097 -11.358  32.371  0.00  0.00    +0.080 A 
ATOM      2  C   UNL A   1     -28.920 -10.549  32.731  0.00  0.00    +0.007 A 
ATOM      3  C   UNL A   1     -29.848  -9.974  31.885  0.00  0.00    +0.000 A 
ATOM      4  C   UNL A   1     -29.855 -10.388  30.523  0.00  0.00    +0.002 A 
ATOM      5  C   UNL A   1     -29.032 -11.416  30.209  0.00  0.00    +0.021 A 
ATOM      6  C   UNL A   1     -28.205 -11.934  31.096  0.00  0.00    +0.008 A 
ENDROOT
BRANCH   1   7
ATOM      7  C   UNL A   1     -27.139 -12.114  33.216  0.00  0.00    +0.388 C 
ATOM      8  O   UNL A   1     -26.395 -12.850  32.595  0.00  0.00    -0.241 OA
ATOM      9  O   UNL A   1     -27.347 -12.380  34.467  0.00  0.00    -0.241 OA
ENDBRANCH   1   7
BRANCH   5  10
ATOM     10  C   UNL A   1     -29.188 -11.691  28.708  0.00  0.00    +0.122 C 
ATOM     11  N   UNL A   1     -29.901 -11.149  27.929  0.00  0.00    -0.146 NA
ENDBRANCH   5  10
TORSDOF 2
ENDMDL
ENDMDL
