MODEL 3944
MODEL 1
REMARK VINA RESULT:    -6.483      0.000      0.000
REMARK INTER + INTRA:          -8.396
REMARK INTER:                  -7.999
REMARK INTRA:                  -0.397
REMARK UNBOUND:                -0.397
REMARK  Name = No_3944-gen_results/8p0m/2024-11-27-11-27-31/
REMARK  4 active torsions:
REMARK  status: ('A' for Active; 'I' for Inactive)
REMARK    1  A    between atoms: C_3  and  C_10
REMARK    2  A    between atoms: C_5  and  C_7
REMARK    3  A    between atoms: C_10  and  C_11
REMARK    4  A    between atoms: C_12  and  C_13
REMARK                            x       y       z     vdW  Elec       q    Type
REMARK                         _______ _______ _______ _____ _____    ______ ____
ROOT
ATOM      1  C   UNL A   1     -21.025   0.759  28.176  0.00  0.00    -0.000 A 
ATOM      2  C   UNL A   1     -21.480  -0.256  28.650  0.00  0.00    -0.004 A 
ATOM      3  C   UNL A   1     -22.828  -0.524  28.814  0.00  0.00    -0.018 A 
ATOM      4  C   UNL A   1     -23.747   0.467  28.358  0.00  0.00    +0.003 A 
ATOM      5  C   UNL A   1     -23.223   1.510  27.694  0.00  0.00    +0.080 A 
ATOM      6  C   UNL A   1     -21.938   1.658  27.548  0.00  0.00    +0.007 A 
ENDROOT
BRANCH   5   7
ATOM      7  C   UNL A   1     -24.215   2.501  27.207  0.00  0.00    +0.388 C 
ATOM      8  O   UNL A   1     -24.174   3.594  27.589  0.00  0.00    -0.241 OA
ATOM      9  O   UNL A   1     -25.132   2.037  26.405  0.00  0.00    -0.241 OA
ENDBRANCH   5   7
BRANCH   3  10
ATOM     10  C   UNL A   1     -23.316  -1.746  29.588  0.00  0.00    +0.052 C 
BRANCH  10  11
ATOM     11  C   UNL A   1     -24.070  -2.714  28.833  0.00  0.00    -0.020 C 
ATOM     12  C   UNL A   1     -24.392  -3.696  29.098  0.00  0.00    +0.041 C 
BRANCH  12  13
ATOM     13  C   UNL A   1     -24.461  -4.875  28.886  0.00  0.00    +0.341 C 
ATOM     14  F   UNL A   1     -23.700  -5.187  27.971  0.00  0.00    -0.193 F 
ATOM     15  F   UNL A   1     -25.031  -5.755  29.462  0.00  0.00    -0.193 F 
ENDBRANCH  12  13
ENDBRANCH  10  11
ENDBRANCH   3  10
TORSDOF 4
ENDMDL
ENDMDL
