MODEL 3945
MODEL 1
REMARK VINA RESULT:    -5.180      0.000      0.000
REMARK INTER + INTRA:          -5.548
REMARK INTER:                  -5.483
REMARK INTRA:                  -0.064
REMARK UNBOUND:                -0.064
REMARK  Name = No_3945-gen_results/8p0m/2024-11-27-11-27-31/
REMARK  1 active torsions:
REMARK  status: ('A' for Active; 'I' for Inactive)
REMARK    1  A    between atoms: C_2  and  C_5
REMARK                            x       y       z     vdW  Elec       q    Type
REMARK                         _______ _______ _______ _____ _____    ______ ____
ROOT
ATOM      1  C   UNL A   1     -25.530  -2.423  29.572  0.00  0.00    +0.005 A 
ATOM      2  C   UNL A   1     -24.614  -2.700  29.132  0.00  0.00    +0.055 A 
ATOM      3  C   UNL A   1     -26.416  -3.555  29.844  0.00  0.00    +0.000 A 
ATOM      4  C   UNL A   1     -26.054  -4.849  29.560  0.00  0.00    +0.000 A 
ATOM      5  C   UNL A   1     -24.781  -5.057  29.000  0.00  0.00    +0.000 A 
ATOM      6  C   UNL A   1     -23.943  -3.957  28.800  0.00  0.00    +0.005 A 
ENDROOT
BRANCH   2   7
ATOM      7  C   UNL A   1     -23.592  -1.558  28.846  0.00  0.00    +0.265 C 
ATOM      8  O   UNL A   1     -22.377  -1.617  29.031  0.00  0.00    -0.268 OA
ATOM      9  N   UNL A   1     -24.022  -0.316  28.348  0.00  0.00    -0.200 NA
ATOM     10  C   UNL A   1     -23.129   0.756  28.173  0.00  0.00    +0.139 C 
ENDBRANCH   2   7
TORSDOF 1
ENDMDL
ENDMDL
