MODEL 3946
MODEL 1
REMARK VINA RESULT:    -8.155      0.000      0.000
REMARK INTER + INTRA:         -12.172
REMARK INTER:                 -10.539
REMARK INTRA:                  -1.633
REMARK UNBOUND:                -1.633
REMARK  Name = No_3946-gen_results/8p0m/2024-11-27-11-27-31/
REMARK  5 active torsions:
REMARK  status: ('A' for Active; 'I' for Inactive)
REMARK    1  A    between atoms: C_3  and  C_8
REMARK    2  A    between atoms: C_6  and  O_7
REMARK    3  A    between atoms: O_7  and  C_14
REMARK    4  A    between atoms: C_14  and  C_15
REMARK    5  A    between atoms: C_15  and  C_16
REMARK                            x       y       z     vdW  Elec       q    Type
REMARK                         _______ _______ _______ _____ _____    ______ ____
ROOT
ATOM      1  C   UNL A   1     -13.141   3.132  37.078  0.00  0.00    +0.229 C 
ATOM      2  O   UNL A   1     -14.085   2.671  37.026  0.00  0.00    -0.275 OA
ATOM      3  N   UNL A   1     -12.382   2.805  38.342  0.00  0.00    -0.279 N 
ATOM      4  C   UNL A   1     -12.968   2.029  39.417  0.00  0.00    +0.097 C 
ATOM      5  C   UNL A   1     -11.042   3.244  38.648  0.00  0.00    +0.093 C 
ATOM      6  C   UNL A   1     -10.217   2.453  39.072  0.00  0.00    +0.023 C 
ATOM      7  C   UNL A   1     -11.969   1.141  40.059  0.00  0.00    +0.040 C 
ATOM      8  C   UNL A   1     -10.649   1.636  40.255  0.00  0.00    +0.025 C 
ATOM      9  C   UNL A   1     -12.523   0.586  41.434  0.00  0.00    +0.027 C 
ATOM     10  C   UNL A   1     -11.799  -0.147  39.179  0.00  0.00    -0.025 A 
ATOM     11  C   UNL A   1     -11.485  -0.257  38.192  0.00  0.00    -0.004 A 
ATOM     12  C   UNL A   1     -11.406  -1.487  37.312  0.00  0.00    -0.000 A 
ATOM     13  C   UNL A   1     -11.566  -2.627  37.943  0.00  0.00    -0.000 A 
ATOM     14  C   UNL A   1     -11.969  -2.599  39.304  0.00  0.00    -0.005 A 
ATOM     15  C   UNL A   1     -12.106  -1.418  39.941  0.00  0.00    -0.026 A 
ATOM     16  C   UNL A   1     -12.596  -0.845  41.313  0.00  0.00    +0.028 C 
ATOM     17  C   UNL A   1      -9.963   1.637  41.427  0.00  0.00    +0.089 C 
ATOM     18  C   UNL A   1     -11.717   0.989  42.539  0.00  0.00    +0.089 C 
ATOM     19  N   UNL A   1     -10.512   1.395  42.515  0.00  0.00    -0.218 NA
ENDROOT
BRANCH   1  20
ATOM     20  C   UNL A   1     -12.240   3.732  36.233  0.00  0.00    +0.133 C 
BRANCH  20  21
ATOM     21  C   UNL A   1     -12.156   3.017  35.024  0.00  0.00    +0.215 C 
BRANCH  21  22
ATOM     22  O   UNL A   1     -10.971   3.269  34.364  0.00  0.00    -0.475 OA
BRANCH  22  28
ATOM     23  C   UNL A   1      -8.578   2.842  34.004  0.00  0.00    +0.037 A 
ATOM     24  C   UNL A   1      -7.631   2.100  34.132  0.00  0.00    +0.003 A 
ATOM     25  C   UNL A   1      -7.730   0.802  34.630  0.00  0.00    +0.000 A 
ATOM     26  C   UNL A   1      -9.020   0.315  35.080  0.00  0.00    +0.003 A 
ATOM     27  C   UNL A   1     -10.076   1.239  34.909  0.00  0.00    +0.037 A 
ATOM     28  C   UNL A   1      -9.884   2.444  34.436  0.00  0.00    +0.139 A 
BRANCH  25  29
ATOM     29  C   UNL A   1      -6.606  -0.172  34.816  0.00  0.00    +0.000 A 
ATOM     30  C   UNL A   1      -5.381   0.259  35.081  0.00  0.00    +0.000 A 
ATOM     31  C   UNL A   1      -4.296  -0.622  35.084  0.00  0.00    +0.000 A 
ATOM     32  C   UNL A   1      -4.433  -1.990  34.846  0.00  0.00    +0.000 A 
ATOM     33  C   UNL A   1      -6.767  -1.546  34.455  0.00  0.00    +0.000 A 
ATOM     34  C   UNL A   1      -5.675  -2.465  34.516  0.00  0.00    +0.000 A 
ENDBRANCH  25  29
ENDBRANCH  22  28
ENDBRANCH  21  22
ENDBRANCH  20  21
ENDBRANCH   1  20
TORSDOF 5
ENDMDL
ENDMDL
