REMARK  Name = outputs/IAG933/test6/raw/output_3946_IAG933_linker_design_.xyz
REMARK  14 active torsions:
REMARK  status: ('A' for Active; 'I' for Inactive)
REMARK    1  A    between atoms: C_1  and  C_2
REMARK    2  A    between atoms: C_1  and  C_8
REMARK    3  A    between atoms: C_1  and  N_29
REMARK    4  A    between atoms: C_13  and  C_33
REMARK    5  A    between atoms: C_14  and  C_15
REMARK    6  A    between atoms: C_21  and  O_22
REMARK    7  A    between atoms: O_22  and  C_23
REMARK    8  A    between atoms: C_23  and  C_24
REMARK    9  A    between atoms: N_29  and  C_39
REMARK   10  A    between atoms: N_29  and  C_40
REMARK   11  A    between atoms: C_31  and  C_40
REMARK   12  A    between atoms: C_33  and  C_41
REMARK   13  A    between atoms: C_37  and  C_38
REMARK   14  A    between atoms: C_37  and  C_40
REMARK                            x       y       z     vdW  Elec       q    Type
REMARK                         _______ _______ _______ _____ _____    ______ ____
ROOT
ATOM      1  O   UNL A   1     -22.151   1.372  26.546  0.00  0.00    -0.448 OA
ATOM      2  O   UNL A   1     -21.881  -0.976  30.022  0.00  0.00    -0.221 OA
ATOM      3  O   UNL A   1     -20.377   2.411  27.745  0.00  0.00    -0.250 OA
ATOM      4  C   UNL A   1     -22.086  -0.129  29.013  0.00  0.00    +0.181 C 
ATOM      5  C   UNL A   1     -23.338   0.554  28.598  0.00  0.00    +0.133 C 
ATOM      6  C   UNL A   1     -23.214   0.969  27.340  0.00  0.00    +0.216 C 
ATOM      7  C   UNL A   1     -20.834   1.233  27.278  0.00  0.00    +0.320 C 
ATOM      8  C   UNL A   1     -20.711   0.059  28.192  0.00  0.00    +0.144 C 
ENDROOT
BRANCH   6   9
ATOM      9  C   UNL A   1     -24.369   1.671  26.831  0.00  0.00    +0.200 C 
ATOM     10  O   UNL A   1     -23.552   3.001  26.107  0.00  0.00    -0.219 OA
BRANCH   9  11
ATOM     11  C   UNL A   1     -25.688   1.614  26.461  0.00  0.00    +0.104 C 
ATOM     12  C   UNL A   1     -26.250   2.920  26.395  0.00  0.00    +0.057 C 
ATOM     13  C   UNL A   1     -27.438   3.091  25.645  0.00  0.00    +0.102 C 
ATOM     14  N   UNL A   1     -28.075   2.089  25.003  0.00  0.00    -0.212 NA
ATOM     15  C   UNL A   1     -27.543   0.849  25.079  0.00  0.00    +0.234 C 
ATOM     16  C   UNL A   1     -26.354   0.576  25.777  0.00  0.00    +0.243 C 
ATOM     17  F   UNL A   1     -25.860  -0.681  25.795  0.00  0.00    -0.227 F 
BRANCH  12  18
ATOM     18  C   UNL A   1     -25.642   4.093  27.123  0.00  0.00    +0.263 C 
ATOM     19  N   UNL A   1     -25.614   5.252  26.449  0.00  0.00    -0.200 NA
ATOM     20  C   UNL A   1     -25.026   6.479  26.963  0.00  0.00    +0.139 C 
ATOM     21  O   UNL A   1     -25.143   3.966  28.243  0.00  0.00    -0.269 OA
ENDBRANCH  12  18
BRANCH  15  22
ATOM     22  O   UNL A   1     -28.193  -0.208  24.477  0.00  0.00    -0.459 OA
BRANCH  22  23
ATOM     23  C   UNL A   1     -29.460   0.005  23.866  0.00  0.00    +0.242 C 
BRANCH  23  24
ATOM     24  C   UNL A   1     -30.065  -1.377  23.573  0.00  0.00    +0.229 C 
ATOM     25  O   UNL A   1     -30.729  -1.878  24.721  0.00  0.00    -0.216 OA
ENDBRANCH  23  24
ENDBRANCH  22  23
ENDBRANCH  15  22
ENDBRANCH   9  11
ENDBRANCH   6   9
BRANCH   5  26
ATOM     26  N   UNL A   1     -24.591   0.062  29.246  0.00  0.00    -0.254 NA
BRANCH  26  27
ATOM     27  C   UNL A   1     -24.855  -1.012  30.143  0.00  0.00    +0.097 C 
BRANCH  27  28
ATOM     28  C   UNL A   1     -24.973  -2.505  29.788  0.00  0.00    -0.006 C 
ATOM     29  C   UNL A   1     -23.906  -3.173  29.146  0.00  0.00    -0.003 C 
ATOM     30  C   UNL A   1     -23.989  -4.549  28.853  0.00  0.00    -0.000 C 
ATOM     31  C   UNL A   1     -25.137  -5.280  29.205  0.00  0.00    -0.000 C 
ATOM     32  C   UNL A   1     -26.232  -4.611  29.784  0.00  0.00    -0.000 C 
ATOM     33  C   UNL A   1     -26.155  -3.232  30.065  0.00  0.00    -0.003 C 
ENDBRANCH  27  28
BRANCH  27  34
ATOM     34  C   UNL A   1     -25.387  -0.679  31.571  0.00  0.00    +0.092 C 
ATOM     35  C   UNL A   1     -25.189   0.773  32.028  0.00  0.00    +0.021 C 
ATOM     36  C   UNL A   1     -25.336   0.684  33.544  0.00  0.00    +0.020 C 
ATOM     37  C   UNL A   1     -24.829  -0.715  33.905  0.00  0.00    +0.089 C 
ATOM     38  N   UNL A   1     -24.758  -1.481  32.646  0.00  0.00    -0.218 NA
ENDBRANCH  27  34
ENDBRANCH  26  27
BRANCH  26  39
ATOM     39  C   UNL A   1     -25.686   0.786  29.024  0.00  0.00    +0.153 C 
BRANCH  39  40
ATOM     40  C   UNL A   1     -26.891   0.100  28.782  0.00  0.00    +0.089 C 
ATOM     41  N   UNL A   1     -27.709  -0.554  28.798  0.00  0.00    -0.195 NA
ENDBRANCH  39  40
BRANCH  39  42
ATOM     42  C   UNL A   1     -25.586   2.099  29.147  0.00  0.00    +0.067 C 
BRANCH  42  44
ATOM     43  O   UNL A   1     -25.242   3.925  30.696  0.00  0.00    -0.220 OA
ATOM     44  C   UNL A   1     -26.182   3.091  30.057  0.00  0.00    +0.185 C 
ENDBRANCH  42  44
ENDBRANCH  39  42
ENDBRANCH  26  39
ENDBRANCH   5  26
TORSDOF 14
