REMARK  Name = No_3947-gen_results/8p0m/2024-11-27-11-27-31/
REMARK  2 active torsions:
REMARK  status: ('A' for Active; 'I' for Inactive)
REMARK    1  A    between atoms: C_5  and  C_7
REMARK    2  A    between atoms: C_11  and  C_14
REMARK                            x       y       z     vdW  Elec       q    Type
REMARK                         _______ _______ _______ _____ _____    ______ ____
ROOT
ATOM      1  C   UNL A   1     -28.016  -0.814  28.878  0.00  0.00    +0.000 A 
ATOM      2  C   UNL A   1     -27.064  -0.119  28.608  0.00  0.00    +0.000 A 
ATOM      3  C   UNL A   1     -26.972   0.714  27.506  0.00  0.00    +0.000 A 
ATOM      4  C   UNL A   1     -28.105   0.774  26.642  0.00  0.00    +0.006 A 
ATOM      5  C   UNL A   1     -29.204   0.118  27.048  0.00  0.00    +0.068 A 
ATOM      6  C   UNL A   1     -29.213  -0.609  28.128  0.00  0.00    +0.006 A 
ATOM      7  C   UNL A   1     -25.669   1.404  27.127  0.00  0.00    +0.008 A 
ATOM      8  C   UNL A   1     -24.554   1.052  27.814  0.00  0.00    +0.098 A 
ATOM      9  C   UNL A   1     -24.593   0.083  28.841  0.00  0.00    +0.008 A 
ATOM     10  C   UNL A   1     -25.714  -0.463  29.269  0.00  0.00    +0.000 A 
ENDROOT
BRANCH   5  11
ATOM     11  C   UNL A   1     -30.371   0.233  26.138  0.00  0.00    +0.333 C 
ATOM     12  O   UNL A   1     -31.252  -0.404  26.304  0.00  0.00    -0.254 OA
ATOM     13  F   UNL A   1     -30.311   0.984  25.043  0.00  0.00    -0.159 F 
ENDBRANCH   5  11
BRANCH   8  14
ATOM     14  C   UNL A   1     -23.245   1.738  27.500  0.00  0.00    +0.477 C 
ATOM     15  N   UNL A   1     -22.081   1.312  28.006  0.00  0.00    +0.205 NA
ATOM     16  N   UNL A   1     -23.223   2.708  26.569  0.00  0.00    +0.205 NA
ENDBRANCH   8  14
TORSDOF 2
