MODEL 3947
MODEL 1
REMARK VINA RESULT:    -6.708      0.000      0.000
REMARK INTER + INTRA:          -7.662
REMARK INTER:                  -7.492
REMARK INTRA:                  -0.170
REMARK UNBOUND:                -0.170
REMARK  Name = No_3947-gen_results/8p0m/2024-11-27-11-27-31/
REMARK  2 active torsions:
REMARK  status: ('A' for Active; 'I' for Inactive)
REMARK    1  A    between atoms: C_5  and  C_7
REMARK    2  A    between atoms: C_11  and  C_14
REMARK                            x       y       z     vdW  Elec       q    Type
REMARK                         _______ _______ _______ _____ _____    ______ ____
ROOT
ATOM      1  C   UNL A   1     -30.686  -9.925  29.483  0.00  0.00    +0.000 A 
ATOM      2  C   UNL A   1     -29.865 -10.240  30.314  0.00  0.00    +0.000 A 
ATOM      3  C   UNL A   1     -28.957 -11.277  30.185  0.00  0.00    +0.000 A 
ATOM      4  C   UNL A   1     -28.978 -12.009  28.961  0.00  0.00    +0.006 A 
ATOM      5  C   UNL A   1     -29.786 -11.541  27.996  0.00  0.00    +0.068 A 
ATOM      6  C   UNL A   1     -30.578 -10.526  28.192  0.00  0.00    +0.006 A 
ATOM      7  C   UNL A   1     -28.092 -11.737  31.350  0.00  0.00    +0.008 A 
ATOM      8  C   UNL A   1     -28.352 -11.201  32.569  0.00  0.00    +0.098 A 
ATOM      9  C   UNL A   1     -29.383 -10.254  32.757  0.00  0.00    +0.008 A 
ATOM     10  C   UNL A   1     -30.087  -9.754  31.760  0.00  0.00    +0.000 A 
ENDROOT
BRANCH   5  11
ATOM     11  C   UNL A   1     -29.753 -12.311  26.728  0.00  0.00    +0.333 C 
ATOM     12  O   UNL A   1     -29.518 -13.385  26.752  0.00  0.00    -0.254 OA
ATOM     13  F   UNL A   1     -29.857 -11.696  25.554  0.00  0.00    -0.159 F 
ENDBRANCH   5  11
BRANCH   8  14
ATOM     14  C   UNL A   1     -27.494 -11.597  33.748  0.00  0.00    +0.477 C 
ATOM     15  N   UNL A   1     -26.834 -12.762  33.787  0.00  0.00    +0.205 NA
ATOM     16  N   UNL A   1     -27.263 -10.697  34.719  0.00  0.00    +0.205 NA
ENDBRANCH   8  14
TORSDOF 2
ENDMDL
ENDMDL
