MODEL 3948
MODEL 1
REMARK VINA RESULT:    -7.292      0.000      0.000
REMARK INTER + INTRA:         -10.606
REMARK INTER:                  -8.997
REMARK INTRA:                  -1.608
REMARK UNBOUND:                -1.608
REMARK  Name = No_3948-gen_results/8p0m/2024-11-27-11-27-31/
REMARK  4 active torsions:
REMARK  status: ('A' for Active; 'I' for Inactive)
REMARK    1  A    between atoms: C_4  and  C_8
REMARK    2  A    between atoms: C_8  and  C_9
REMARK    3  A    between atoms: C_11  and  C_19
REMARK    4  A    between atoms: C_13  and  C_15
REMARK                            x       y       z     vdW  Elec       q    Type
REMARK                         _______ _______ _______ _____ _____    ______ ____
ROOT
ATOM      1  C   UNL A   1     -23.633   1.381  27.776  0.00  0.00    +0.004 C 
ATOM      2  C   UNL A   1     -24.014   0.632  26.655  0.00  0.00    +0.009 C 
ATOM      3  C   UNL A   1     -25.124   0.936  25.825  0.00  0.00    +0.096 C 
ATOM      4  C   UNL A   1     -25.858   2.056  26.057  0.00  0.00    +0.019 C 
ATOM      5  C   UNL A   1     -25.253   3.077  26.889  0.00  0.00    +0.091 C 
ATOM      6  C   UNL A   1     -24.053   2.815  27.776  0.00  0.00    +0.011 C 
ATOM      7  C   UNL A   1     -22.013   1.598  27.613  0.00  0.00    +0.000 C 
ENDROOT
BRANCH   3   8
ATOM      8  C   UNL A   1     -25.525   0.021  24.774  0.00  0.00    +0.398 C 
ATOM      9  F   UNL A   1     -24.539  -0.109  23.944  0.00  0.00    -0.170 F 
ATOM     10  F   UNL A   1     -25.870  -1.217  24.929  0.00  0.00    -0.170 F 
ATOM     11  F   UNL A   1     -26.601   0.548  24.120  0.00  0.00    -0.170 F 
ENDBRANCH   3   8
BRANCH   5  12
ATOM     12  C   UNL A   1     -25.813   4.443  26.951  0.00  0.00    +0.310 C 
ATOM     13  O   UNL A   1     -26.878   4.668  26.705  0.00  0.00    -0.259 OA
ATOM     14  F   UNL A   1     -25.077   5.220  27.562  0.00  0.00    -0.164 F 
ENDBRANCH   5  12
BRANCH   1  15
ATOM     15  C   UNL A   1     -23.746   0.786  29.122  0.00  0.00    +0.022 C 
ATOM     16  C   UNL A   1     -23.431   1.342  30.326  0.00  0.00    +0.005 C 
BRANCH  15  20
ATOM     17  C   UNL A   1     -25.892  -2.414  29.307  0.00  0.00    +0.007 A 
ATOM     18  C   UNL A   1     -25.089  -3.096  29.280  0.00  0.00    +0.057 A 
ATOM     19  C   UNL A   1     -25.504  -0.953  29.306  0.00  0.00    -0.025 A 
ATOM     20  C   UNL A   1     -24.151  -0.596  29.128  0.00  0.00    -0.026 A 
ATOM     21  C   UNL A   1     -23.628  -2.993  29.063  0.00  0.00    +0.011 A 
ATOM     22  C   UNL A   1     -23.235  -1.662  29.050  0.00  0.00    -0.004 A 
ATOM     23 CL   UNL A   1     -25.553  -4.862  29.272  0.00  0.00    -0.082 Cl
ATOM     24  C   UNL A   1     -26.497   0.112  29.412  0.00  0.00    +0.031 C 
ENDBRANCH  15  20
ENDBRANCH   1  15
TORSDOF 4
ENDMDL
ENDMDL
