REMARK  Name = outputs/IAG933/test6/raw/output_3949_IAG933_linker_design_.xyz
REMARK  12 active torsions:
REMARK  status: ('A' for Active; 'I' for Inactive)
REMARK    1  A    between atoms: C_1  and  C_2
REMARK    2  A    between atoms: C_1  and  C_8
REMARK    3  A    between atoms: C_1  and  N_38
REMARK    4  A    between atoms: C_13  and  N_31
REMARK    5  A    between atoms: C_14  and  C_15
REMARK    6  A    between atoms: C_21  and  O_22
REMARK    7  A    between atoms: O_22  and  C_23
REMARK    8  A    between atoms: C_23  and  C_24
REMARK    9  A    between atoms: C_28  and  C_36
REMARK   10  A    between atoms: C_28  and  C_41
REMARK   11  A    between atoms: N_31  and  C_32
REMARK   12  A    between atoms: N_31  and  C_39
REMARK                            x       y       z     vdW  Elec       q    Type
REMARK                         _______ _______ _______ _____ _____    ______ ____
ROOT
ATOM      1  N   UNL A   1     -24.963   1.189  27.479  0.00  0.00    -0.227 NA
ENDROOT
BRANCH   1   6
ATOM      2  C   UNL A   1     -21.964   1.098  27.663  0.00  0.00    +0.217 C 
ATOM      3  C   UNL A   1     -23.175   0.334  28.553  0.00  0.00    +0.177 C 
ATOM      4  N   UNL A   1     -22.437  -0.508  29.350  0.00  0.00    -0.231 NA
ATOM      5  F   UNL A   1     -23.352   1.667  26.145  0.00  0.00    -0.218 F 
ATOM      6  C   UNL A   1     -23.396   1.109  27.620  0.00  0.00    +0.237 C 
ATOM      7  F   UNL A   1     -21.010   1.705  26.960  0.00  0.00    -0.229 F 
ATOM      8  C   UNL A   1     -21.076  -0.468  29.040  0.00  0.00    +0.079 C 
ATOM      9  C   UNL A   1     -20.782   0.565  28.076  0.00  0.00    +0.029 C 
ENDBRANCH   1   6
BRANCH   1  10
ATOM     10  C   UNL A   1     -25.688   1.614  26.461  0.00  0.00    +0.131 C 
ATOM     11  C   UNL A   1     -26.250   2.920  26.395  0.00  0.00    +0.070 C 
ATOM     12  C   UNL A   1     -27.438   3.091  25.645  0.00  0.00    +0.103 C 
ATOM     13  N   UNL A   1     -28.075   2.089  25.003  0.00  0.00    -0.212 NA
ATOM     14  C   UNL A   1     -27.543   0.849  25.079  0.00  0.00    +0.235 C 
ATOM     15  C   UNL A   1     -26.354   0.576  25.777  0.00  0.00    +0.255 C 
ATOM     16  F   UNL A   1     -25.860  -0.681  25.795  0.00  0.00    -0.225 F 
BRANCH  11  17
ATOM     17  C   UNL A   1     -25.642   4.093  27.123  0.00  0.00    +0.264 C 
ATOM     18  N   UNL A   1     -25.614   5.252  26.449  0.00  0.00    -0.200 NA
ATOM     19  C   UNL A   1     -25.026   6.479  26.963  0.00  0.00    +0.139 C 
ATOM     20  O   UNL A   1     -25.143   3.966  28.243  0.00  0.00    -0.269 OA
ENDBRANCH  11  17
BRANCH  14  21
ATOM     21  O   UNL A   1     -28.193  -0.208  24.477  0.00  0.00    -0.459 OA
BRANCH  21  22
ATOM     22  C   UNL A   1     -29.460   0.005  23.866  0.00  0.00    +0.242 C 
BRANCH  22  23
ATOM     23  C   UNL A   1     -30.065  -1.377  23.573  0.00  0.00    +0.229 C 
ATOM     24  O   UNL A   1     -30.729  -1.878  24.721  0.00  0.00    -0.216 OA
ENDBRANCH  22  23
ENDBRANCH  21  22
ENDBRANCH  14  21
ENDBRANCH   1  10
BRANCH   1  25
ATOM     25  C   UNL A   1     -25.677   0.704  28.470  0.00  0.00    +0.139 C 
ATOM     26  N   UNL A   1     -25.734  -0.172  29.348  0.00  0.00    -0.253 NA
ATOM     27  C   UNL A   1     -26.858  -0.061  28.609  0.00  0.00    +0.122 C 
BRANCH  27  28
ATOM     28  C   UNL A   1     -28.210   0.358  29.156  0.00  0.00    +0.199 C 
ATOM     29  O   UNL A   1     -29.062  -0.309  28.236  0.00  0.00    -0.219 OA
BRANCH  28  31
ATOM     30  C   UNL A   1     -29.411   2.316  28.069  0.00  0.00    +0.038 C 
ATOM     31  C   UNL A   1     -28.477   1.859  29.251  0.00  0.00    +0.184 C 
ATOM     32  O   UNL A   1     -27.231   2.593  29.201  0.00  0.00    -0.220 OA
ENDBRANCH  28  31
ENDBRANCH  27  28
BRANCH  26  33
ATOM     33  C   UNL A   1     -24.855  -1.012  30.143  0.00  0.00    +0.097 C 
BRANCH  33  34
ATOM     34  C   UNL A   1     -24.973  -2.505  29.788  0.00  0.00    -0.006 C 
ATOM     35  C   UNL A   1     -23.906  -3.173  29.146  0.00  0.00    -0.003 C 
ATOM     36  C   UNL A   1     -23.989  -4.549  28.853  0.00  0.00    -0.000 C 
ATOM     37  C   UNL A   1     -25.137  -5.280  29.205  0.00  0.00    -0.000 C 
ATOM     38  C   UNL A   1     -26.232  -4.611  29.784  0.00  0.00    -0.000 C 
ATOM     39  C   UNL A   1     -26.155  -3.232  30.065  0.00  0.00    -0.003 C 
ENDBRANCH  33  34
BRANCH  33  40
ATOM     40  C   UNL A   1     -25.387  -0.679  31.571  0.00  0.00    +0.092 C 
ATOM     41  C   UNL A   1     -25.189   0.773  32.028  0.00  0.00    +0.021 C 
ATOM     42  C   UNL A   1     -25.336   0.684  33.544  0.00  0.00    +0.020 C 
ATOM     43  C   UNL A   1     -24.829  -0.715  33.905  0.00  0.00    +0.089 C 
ATOM     44  N   UNL A   1     -24.758  -1.481  32.646  0.00  0.00    -0.218 NA
ENDBRANCH  33  40
ENDBRANCH  26  33
ENDBRANCH   1  25
TORSDOF 12
