MODEL 3949
MODEL 1
REMARK VINA RESULT:    -4.532      0.000      0.000
REMARK INTER + INTRA:          -4.532
REMARK INTER:                  -4.532
REMARK INTRA:                   0.000
REMARK UNBOUND:                 0.000
REMARK  Name = No_3949-gen_results/8p0m/2024-11-27-11-27-31/
REMARK  0 active torsions:
REMARK  status: ('A' for Active; 'I' for Inactive)
REMARK                            x       y       z     vdW  Elec       q    Type
REMARK                         _______ _______ _______ _____ _____    ______ ____
ROOT
ATOM      1  C   UNL A   1     -23.994  -4.388  28.682  0.00  0.00    +0.030 A 
ATOM      2  C   UNL A   1     -24.889  -4.904  28.891  0.00  0.00    +0.140 A 
ATOM      3  C   UNL A   1     -24.001  -2.913  29.016  0.00  0.00    +0.002 A 
ATOM      4  C   UNL A   1     -25.109  -2.364  29.697  0.00  0.00    +0.000 A 
ATOM      5  C   UNL A   1     -26.144  -4.587  29.609  0.00  0.00    +0.030 A 
ATOM      6  C   UNL A   1     -26.184  -3.239  29.939  0.00  0.00    +0.002 A 
ATOM      7  F   UNL A   1     -24.872  -6.322  28.580  0.00  0.00    -0.204 F 
ENDROOT
TORSDOF 0
ENDMDL
ENDMDL
