MODEL 394
MODEL 1
REMARK VINA RESULT:    -6.977      0.000      0.000
REMARK INTER + INTRA:         -11.367
REMARK INTER:                  -9.425
REMARK INTRA:                  -1.942
REMARK UNBOUND:                -1.942
REMARK  Name = No_394-gen_results/8p0m/2024-11-27-11-27-31/
REMARK  6 active torsions:
REMARK  status: ('A' for Active; 'I' for Inactive)
REMARK    1  A    between atoms: C_3  and  C_7
REMARK    2  A    between atoms: C_8  and  C_13
REMARK    3  A    between atoms: C_14  and  C_15
REMARK    4  A    between atoms: C_15  and  N_16
REMARK    5  A    between atoms: N_16  and  C_17
REMARK    6  A    between atoms: C_17  and  C_18
REMARK                            x       y       z     vdW  Elec       q    Type
REMARK                         _______ _______ _______ _____ _____    ______ ____
ROOT
ATOM      1  C   UNL A   1     -25.389  -2.371  29.980  0.00  0.00    +0.008 A 
ATOM      2  C   UNL A   1     -24.183  -2.629  29.445  0.00  0.00    +0.042 A 
ATOM      3  C   UNL A   1     -23.915  -3.941  28.851  0.00  0.00    +0.008 A 
ATOM      4  C   UNL A   1     -24.964  -4.895  28.933  0.00  0.00    +0.001 A 
ATOM      5  C   UNL A   1     -26.294  -3.484  30.067  0.00  0.00    +0.001 A 
ATOM      6  C   UNL A   1     -26.113  -4.655  29.495  0.00  0.00    +0.000 A 
ENDROOT
BRANCH   1   9
ATOM      7  C   UNL A   1     -25.503   0.163  32.633  0.00  0.00    +0.000 A 
ATOM      8  C   UNL A   1     -25.213  -0.812  31.979  0.00  0.00    +0.000 A 
ATOM      9  C   UNL A   1     -25.666  -1.076  30.698  0.00  0.00    +0.001 A 
ATOM     10  C   UNL A   1     -26.517  -0.102  30.097  0.00  0.00    +0.000 A 
ATOM     11  C   UNL A   1     -26.695   1.041  30.779  0.00  0.00    +0.000 A 
ATOM     12  C   UNL A   1     -26.191   1.221  31.966  0.00  0.00    +0.000 A 
ENDBRANCH   1   9
BRANCH   2  13
ATOM     13  C   UNL A   1     -23.113  -1.646  29.284  0.00  0.00    -0.063 C 
ATOM     14  C   UNL A   1     -22.220  -1.133  29.011  0.00  0.00    -0.067 C 
BRANCH  14  15
ATOM     15  C   UNL A   1     -21.216  -0.220  28.795  0.00  0.00    +0.165 C 
BRANCH  15  16
ATOM     16  N   UNL A   1     -21.228   0.696  27.872  0.00  0.00    -0.199 NA
BRANCH  16  17
ATOM     17  C   UNL A   1     -21.878   1.697  27.777  0.00  0.00    +0.116 C 
BRANCH  17  18
ATOM     18  C   UNL A   1     -22.905   1.918  27.244  0.00  0.00    -0.005 A 
ATOM     19  C   UNL A   1     -23.080   2.461  25.961  0.00  0.00    -0.003 A 
ATOM     20  C   UNL A   1     -24.252   3.022  25.589  0.00  0.00    -0.000 A 
ATOM     21  C   UNL A   1     -25.368   2.951  26.429  0.00  0.00    -0.000 A 
ATOM     22  C   UNL A   1     -25.268   2.462  27.691  0.00  0.00    -0.000 A 
ATOM     23  C   UNL A   1     -24.042   2.052  28.164  0.00  0.00    -0.003 A 
ENDBRANCH  17  18
ENDBRANCH  16  17
ENDBRANCH  15  16
ENDBRANCH  14  15
ENDBRANCH   2  13
TORSDOF 6
ENDMDL
ENDMDL
