REMARK  Name = No_395-gen_results/8p0m/2024-11-27-11-27-31/
REMARK  8 active torsions:
REMARK  status: ('A' for Active; 'I' for Inactive)
REMARK    1  A    between atoms: C_3  and  C_7
REMARK    2  A    between atoms: C_8  and  C_22
REMARK    3  A    between atoms: C_9  and  C_13
REMARK    4  A    between atoms: C_13  and  O_15
REMARK    5  A    between atoms: O_15  and  C_17
REMARK    6  A    between atoms: C_17  and  C_18
REMARK    7  A    between atoms: C_22  and  C_23
REMARK    8  A    between atoms: C_23  and  C_24
REMARK                            x       y       z     vdW  Elec       q    Type
REMARK                         _______ _______ _______ _____ _____    ______ ____
ROOT
ATOM      1  C   UNL A   1     -26.317   0.399  27.365  0.00  0.00    +0.002 A 
ATOM      2  C   UNL A   1     -24.941   0.255  27.503  0.00  0.00    -0.021 A 
ATOM      3  C   UNL A   1     -26.913   0.586  26.140  0.00  0.00    +0.076 A 
ATOM      4  C   UNL A   1     -26.177   0.419  24.994  0.00  0.00    +0.006 A 
ATOM      5  C   UNL A   1     -24.102   0.524  26.357  0.00  0.00    -0.004 A 
ATOM      6  C   UNL A   1     -24.764   0.531  25.084  0.00  0.00    -0.000 A 
ENDROOT
BRANCH   1   9
ATOM      7  C   UNL A   1     -28.016  -0.814  28.878  0.00  0.00    +0.011 A 
ATOM      8  C   UNL A   1     -28.469  -0.785  29.829  0.00  0.00    +0.058 A 
ATOM      9  C   UNL A   1     -27.087   0.290  28.638  0.00  0.00    +0.001 A 
ATOM     10  C   UNL A   1     -26.832   1.249  29.587  0.00  0.00    +0.000 A 
ATOM     11  C   UNL A   1     -28.391   0.080  31.006  0.00  0.00    +0.011 A 
ATOM     12  C   UNL A   1     -27.494   1.152  30.784  0.00  0.00    +0.001 A 
ATOM     13 CL   UNL A   1     -29.623  -2.174  30.248  0.00  0.00    -0.082 Cl
ENDBRANCH   1   9
BRANCH   3  14
ATOM     14  C   UNL A   1     -28.366   0.470  26.009  0.00  0.00    +0.348 C 
ATOM     15  O   UNL A   1     -28.938   0.084  25.019  0.00  0.00    -0.244 OA
BRANCH  14  16
ATOM     16  O   UNL A   1     -29.104   1.261  26.855  0.00  0.00    -0.381 OA
BRANCH  16  17
ATOM     17  C   UNL A   1     -30.485   1.219  26.847  0.00  0.00    +0.429 C 
ATOM     18  O   UNL A   1     -30.933   0.112  27.274  0.00  0.00    -0.237 OA
BRANCH  17  19
ATOM     19  C   UNL A   1     -31.151   2.275  26.530  0.00  0.00    +0.463 C 
ATOM     20  O   UNL A   1     -30.582   3.313  26.482  0.00  0.00    -0.233 OA
ATOM     21  O   UNL A   1     -32.377   2.204  26.264  0.00  0.00    -0.233 OA
ENDBRANCH  17  19
ENDBRANCH  16  17
ENDBRANCH  14  16
ENDBRANCH   3  14
BRANCH   2  22
ATOM     22  C   UNL A   1     -24.156   0.238  28.756  0.00  0.00    +0.041 C 
BRANCH  22  23
ATOM     23  C   UNL A   1     -23.561  -0.954  29.080  0.00  0.00    +0.096 C 
ATOM     24  C   UNL A   1     -22.053  -0.765  29.153  0.00  0.00    +0.017 C 
BRANCH  23  25
ATOM     25  C   UNL A   1     -23.984  -2.028  29.276  0.00  0.00    +0.072 C 
ATOM     26  N   UNL A   1     -24.721  -2.930  29.521  0.00  0.00    -0.196 NA
ENDBRANCH  23  25
ENDBRANCH  22  23
ENDBRANCH   2  22
TORSDOF 8
