REMARK  Name = outputs/IAG933/test6/raw/output_3950_IAG933_linker_design_.xyz
REMARK  12 active torsions:
REMARK  status: ('A' for Active; 'I' for Inactive)
REMARK    1  A    between atoms: C_1  and  C_2
REMARK    2  A    between atoms: C_1  and  C_8
REMARK    3  A    between atoms: C_1  and  C_39
REMARK    4  A    between atoms: C_13  and  C_36
REMARK    5  A    between atoms: C_14  and  C_15
REMARK    6  A    between atoms: C_21  and  O_22
REMARK    7  A    between atoms: O_22  and  C_23
REMARK    8  A    between atoms: C_23  and  C_24
REMARK    9  A    between atoms: C_30  and  C_34
REMARK   10  A    between atoms: C_30  and  C_39
REMARK   11  A    between atoms: C_33  and  N_42
REMARK   12  A    between atoms: C_37  and  C_39
REMARK                            x       y       z     vdW  Elec       q    Type
REMARK                         _______ _______ _______ _____ _____    ______ ____
ROOT
ATOM      1  C   UNL A   1     -25.240  -0.037  28.970  0.00  0.00    +0.108 C 
ENDROOT
BRANCH   1   2
ATOM      2  C   UNL A   1     -26.802   0.213  29.008  0.00  0.00    +0.246 C 
ATOM      3  O   UNL A   1     -27.645  -0.718  29.005  0.00  0.00    -0.273 OA
ATOM      4  N   UNL A   1     -27.215   1.562  29.140  0.00  0.00    -0.202 NA
BRANCH   4   7
ATOM      5  C   UNL A   1     -28.947   3.304  29.300  0.00  0.00    +0.169 C 
ATOM      6  C   UNL A   1     -28.506   2.046  31.428  0.00  0.00    +0.169 C 
ATOM      7  C   UNL A   1     -28.453   1.906  29.900  0.00  0.00    +0.154 C 
ATOM      8  O   UNL A   1     -29.394   4.130  30.352  0.00  0.00    -0.325 OA
ATOM      9  O   UNL A   1     -29.886   2.351  31.780  0.00  0.00    -0.325 OA
ATOM     10  C   UNL A   1     -30.258   3.656  31.371  0.00  0.00    +0.294 C 
ENDBRANCH   4   7
ENDBRANCH   1   2
BRANCH   1  11
ATOM     11  C   UNL A   1     -24.025   0.550  28.143  0.00  0.00    +0.022 C 
ATOM     12  C   UNL A   1     -24.262   1.323  26.876  0.00  0.00    -0.019 C 
BRANCH  12  13
ATOM     13  C   UNL A   1     -25.688   1.614  26.461  0.00  0.00    +0.092 C 
ATOM     14  C   UNL A   1     -26.250   2.920  26.395  0.00  0.00    +0.059 C 
ATOM     15  C   UNL A   1     -27.438   3.091  25.645  0.00  0.00    +0.102 C 
ATOM     16  N   UNL A   1     -28.075   2.089  25.003  0.00  0.00    -0.212 NA
ATOM     17  C   UNL A   1     -27.543   0.849  25.079  0.00  0.00    +0.234 C 
ATOM     18  C   UNL A   1     -26.354   0.576  25.777  0.00  0.00    +0.244 C 
ATOM     19  F   UNL A   1     -25.860  -0.681  25.795  0.00  0.00    -0.227 F 
BRANCH  14  20
ATOM     20  C   UNL A   1     -25.642   4.093  27.123  0.00  0.00    +0.263 C 
ATOM     21  N   UNL A   1     -25.614   5.252  26.449  0.00  0.00    -0.200 NA
ATOM     22  C   UNL A   1     -25.026   6.479  26.963  0.00  0.00    +0.139 C 
ATOM     23  O   UNL A   1     -25.143   3.966  28.243  0.00  0.00    -0.269 OA
ENDBRANCH  14  20
BRANCH  17  24
ATOM     24  O   UNL A   1     -28.193  -0.208  24.477  0.00  0.00    -0.459 OA
BRANCH  24  25
ATOM     25  C   UNL A   1     -29.460   0.005  23.866  0.00  0.00    +0.242 C 
BRANCH  25  26
ATOM     26  C   UNL A   1     -30.065  -1.377  23.573  0.00  0.00    +0.229 C 
ATOM     27  O   UNL A   1     -30.729  -1.878  24.721  0.00  0.00    -0.216 OA
ENDBRANCH  25  26
ENDBRANCH  24  25
ENDBRANCH  17  24
ENDBRANCH  12  13
BRANCH  11  30
ATOM     28  O   UNL A   1     -22.240  -0.080  29.505  0.00  0.00    -0.287 OA
ATOM     29  C   UNL A   1     -21.603   1.301  27.541  0.00  0.00    +0.045 C 
ATOM     30  C   UNL A   1     -22.398   0.747  28.507  0.00  0.00    +0.192 C 
ENDBRANCH  11  30
ENDBRANCH   1  11
BRANCH   1  31
ATOM     31  C   UNL A   1     -24.855  -1.012  30.143  0.00  0.00    +0.051 C 
BRANCH  31  32
ATOM     32  C   UNL A   1     -24.973  -2.505  29.788  0.00  0.00    -0.020 C 
ATOM     33  C   UNL A   1     -23.906  -3.173  29.146  0.00  0.00    -0.004 C 
ATOM     34  C   UNL A   1     -23.989  -4.549  28.853  0.00  0.00    -0.000 C 
ATOM     35  C   UNL A   1     -25.137  -5.280  29.205  0.00  0.00    -0.000 C 
ATOM     36  C   UNL A   1     -26.232  -4.611  29.784  0.00  0.00    -0.000 C 
ATOM     37  C   UNL A   1     -26.155  -3.232  30.065  0.00  0.00    -0.004 C 
ENDBRANCH  31  32
BRANCH  31  38
ATOM     38  C   UNL A   1     -25.387  -0.679  31.571  0.00  0.00    +0.078 C 
ATOM     39  C   UNL A   1     -25.189   0.773  32.028  0.00  0.00    +0.019 C 
ATOM     40  C   UNL A   1     -25.336   0.684  33.544  0.00  0.00    +0.020 C 
ATOM     41  C   UNL A   1     -24.829  -0.715  33.905  0.00  0.00    +0.089 C 
ATOM     42  N   UNL A   1     -24.758  -1.481  32.646  0.00  0.00    -0.219 NA
ENDBRANCH  31  38
ENDBRANCH   1  31
TORSDOF 12
