MODEL 3950
MODEL 1
REMARK VINA RESULT:    -7.256      0.000      0.000
REMARK INTER + INTRA:          -9.454
REMARK INTER:                  -8.529
REMARK INTRA:                  -0.925
REMARK UNBOUND:                -0.925
REMARK  Name = No_3950-gen_results/8p0m/2024-11-27-11-27-31/
REMARK  3 active torsions:
REMARK  status: ('A' for Active; 'I' for Inactive)
REMARK    1  A    between atoms: C_2  and  N_7
REMARK    2  A    between atoms: N_7  and  C_8
REMARK    3  A    between atoms: N_7  and  C_14
REMARK                            x       y       z     vdW  Elec       q    Type
REMARK                         _______ _______ _______ _____ _____    ______ ____
ROOT
ATOM      1  N   UNL A   1     -24.339  -1.219  29.878  0.00  0.00    -0.251 N 
ENDROOT
BRANCH   1   3
ATOM      2  C   UNL A   1     -24.882  -0.223  27.859  0.00  0.00    +0.015 A 
ATOM      3  C   UNL A   1     -24.124  -0.370  28.789  0.00  0.00    +0.057 A 
ATOM      4  C   UNL A   1     -22.926   0.333  28.856  0.00  0.00    +0.015 A 
ATOM      5  C   UNL A   1     -22.529   1.224  27.796  0.00  0.00    +0.001 A 
ATOM      6  C   UNL A   1     -23.454   1.316  26.748  0.00  0.00    +0.000 A 
ATOM      7  C   UNL A   1     -24.565   0.617  26.724  0.00  0.00    +0.001 A 
ENDBRANCH   1   3
BRANCH   1   8
ATOM      8  C   UNL A   1     -24.386  -1.045  31.075  0.00  0.00    +0.139 A 
ATOM      9  C   UNL A   1     -23.696  -1.397  31.996  0.00  0.00    +0.035 A 
ATOM     10  C   UNL A   1     -23.862  -1.059  33.442  0.00  0.00    +0.004 A 
ATOM     11  C   UNL A   1     -25.020  -0.307  33.747  0.00  0.00    +0.021 A 
ATOM     12  N   UNL A   1     -25.528  -0.231  31.557  0.00  0.00    -0.229 NA
ATOM     13  C   UNL A   1     -25.843   0.044  32.775  0.00  0.00    +0.100 A 
ENDBRANCH   1   8
BRANCH   1  14
ATOM     14  C   UNL A   1     -24.866  -2.652  29.493  0.00  0.00    +0.057 A 
ATOM     15  C   UNL A   1     -25.932  -3.194  29.964  0.00  0.00    +0.015 A 
ATOM     16  C   UNL A   1     -23.793  -3.426  28.936  0.00  0.00    +0.015 A 
ATOM     17  C   UNL A   1     -24.087  -4.708  28.622  0.00  0.00    +0.001 A 
ATOM     18  C   UNL A   1     -26.260  -4.477  29.644  0.00  0.00    +0.001 A 
ATOM     19  C   UNL A   1     -25.318  -5.270  29.002  0.00  0.00    +0.000 A 
ENDBRANCH   1  14
TORSDOF 3
ENDMDL
ENDMDL
