MODEL 3951
MODEL 1
REMARK VINA RESULT:    -6.150      0.000      0.000
REMARK INTER + INTRA:          -7.085
REMARK INTER:                  -6.869
REMARK INTRA:                  -0.217
REMARK UNBOUND:                -0.217
REMARK  Name = No_3951-gen_results/8p0m/2024-11-27-11-27-31/
REMARK  2 active torsions:
REMARK  status: ('A' for Active; 'I' for Inactive)
REMARK    1  A    between atoms: C_2  and  O_7
REMARK    2  A    between atoms: O_7  and  C_8
REMARK                            x       y       z     vdW  Elec       q    Type
REMARK                         _______ _______ _______ _____ _____    ______ ____
ROOT
ATOM      1  O   UNL A   1     -24.464  -1.229  29.546  0.00  0.00    -0.454 OA
ENDROOT
BRANCH   1   3
ATOM      2  C   UNL A   1     -23.839  -3.155  28.827  0.00  0.00    +0.037 A 
ATOM      3  C   UNL A   1     -24.620  -2.678  29.351  0.00  0.00    +0.145 A 
ATOM      4  C   UNL A   1     -24.005  -4.645  28.630  0.00  0.00    +0.003 A 
ATOM      5  C   UNL A   1     -25.213  -5.263  29.014  0.00  0.00    +0.000 A 
ATOM      6  C   UNL A   1     -25.969  -3.072  29.817  0.00  0.00    +0.037 A 
ATOM      7  C   UNL A   1     -26.160  -4.436  29.647  0.00  0.00    +0.003 A 
ENDBRANCH   1   3
BRANCH   1   8
ATOM      8  C   UNL A   1     -24.099  -0.546  28.522  0.00  0.00    +0.145 A 
ATOM      9  C   UNL A   1     -23.058   0.248  28.462  0.00  0.00    +0.037 A 
ATOM     10  C   UNL A   1     -22.827   1.252  27.525  0.00  0.00    +0.003 A 
ATOM     11  C   UNL A   1     -23.717   1.271  26.422  0.00  0.00    +0.000 A 
ATOM     12  C   UNL A   1     -24.830   0.493  26.394  0.00  0.00    +0.003 A 
ATOM     13  C   UNL A   1     -25.104  -0.374  27.476  0.00  0.00    +0.037 A 
ENDBRANCH   1   8
TORSDOF 2
ENDMDL
ENDMDL
