REMARK  Name = outputs/IAG933/test6/raw/output_3951_IAG933_linker_design_.xyz
REMARK  14 active torsions:
REMARK  status: ('A' for Active; 'I' for Inactive)
REMARK    1  A    between atoms: C_1  and  C_2
REMARK    2  A    between atoms: C_1  and  C_8
REMARK    3  A    between atoms: C_1  and  C_38
REMARK    4  A    between atoms: C_13  and  N_29
REMARK    5  A    between atoms: C_14  and  C_15
REMARK    6  A    between atoms: C_21  and  O_22
REMARK    7  A    between atoms: O_22  and  C_23
REMARK    8  A    between atoms: C_23  and  C_24
REMARK    9  A    between atoms: C_28  and  N_29
REMARK   10  A    between atoms: C_28  and  C_38
REMARK   11  A    between atoms: N_29  and  C_36
REMARK   12  A    between atoms: N_31  and  C_36
REMARK   13  A    between atoms: C_33  and  C_35
REMARK   14  A    between atoms: C_36  and  C_37
REMARK                            x       y       z     vdW  Elec       q    Type
REMARK                         _______ _______ _______ _____ _____    ______ ____
ROOT
ATOM      1  N   UNL A   1     -24.866   1.261  27.277  0.00  0.00    -0.233 NA
ENDROOT
BRANCH   1   2
ATOM      2  C   UNL A   1     -25.688   1.614  26.461  0.00  0.00    +0.131 C 
ATOM      3  C   UNL A   1     -26.250   2.920  26.395  0.00  0.00    +0.070 C 
ATOM      4  C   UNL A   1     -27.438   3.091  25.645  0.00  0.00    +0.103 C 
ATOM      5  N   UNL A   1     -28.075   2.089  25.003  0.00  0.00    -0.212 NA
ATOM      6  C   UNL A   1     -27.543   0.849  25.079  0.00  0.00    +0.235 C 
ATOM      7  C   UNL A   1     -26.354   0.576  25.777  0.00  0.00    +0.255 C 
ATOM      8  F   UNL A   1     -25.860  -0.681  25.795  0.00  0.00    -0.225 F 
BRANCH   3   9
ATOM      9  C   UNL A   1     -25.642   4.093  27.123  0.00  0.00    +0.264 C 
ATOM     10  N   UNL A   1     -25.614   5.252  26.449  0.00  0.00    -0.200 NA
ATOM     11  C   UNL A   1     -25.026   6.479  26.963  0.00  0.00    +0.139 C 
ATOM     12  O   UNL A   1     -25.143   3.966  28.243  0.00  0.00    -0.269 OA
ENDBRANCH   3   9
BRANCH   6  13
ATOM     13  O   UNL A   1     -28.193  -0.208  24.477  0.00  0.00    -0.459 OA
BRANCH  13  14
ATOM     14  C   UNL A   1     -29.460   0.005  23.866  0.00  0.00    +0.242 C 
BRANCH  14  15
ATOM     15  C   UNL A   1     -30.065  -1.377  23.573  0.00  0.00    +0.229 C 
ATOM     16  O   UNL A   1     -30.729  -1.878  24.721  0.00  0.00    -0.216 OA
ENDBRANCH  14  15
ENDBRANCH  13  14
ENDBRANCH   6  13
ENDBRANCH   1   2
BRANCH   1  17
ATOM     17  C   UNL A   1     -25.409   1.252  28.667  0.00  0.00    +0.183 C 
ATOM     18  N   UNL A   1     -26.395   1.826  29.317  0.00  0.00    -0.112 NA
BRANCH  17  20
ATOM     19  O   UNL A   1     -27.063  -0.508  28.686  0.00  0.00    -0.220 OA
ATOM     20  C   UNL A   1     -25.753  -0.417  29.089  0.00  0.00    +0.190 C 
BRANCH  20  21
ATOM     21  C   UNL A   1     -24.855  -1.012  30.143  0.00  0.00    +0.072 C 
BRANCH  21  22
ATOM     22  C   UNL A   1     -24.973  -2.505  29.788  0.00  0.00    -0.019 C 
ATOM     23  C   UNL A   1     -23.906  -3.173  29.146  0.00  0.00    -0.004 C 
ATOM     24  C   UNL A   1     -23.989  -4.549  28.853  0.00  0.00    -0.000 C 
ATOM     25  C   UNL A   1     -25.137  -5.280  29.205  0.00  0.00    -0.000 C 
ATOM     26  C   UNL A   1     -26.232  -4.611  29.784  0.00  0.00    -0.000 C 
ATOM     27  C   UNL A   1     -26.155  -3.232  30.065  0.00  0.00    -0.004 C 
ENDBRANCH  21  22
BRANCH  21  28
ATOM     28  C   UNL A   1     -25.387  -0.679  31.571  0.00  0.00    +0.079 C 
ATOM     29  C   UNL A   1     -25.189   0.773  32.028  0.00  0.00    +0.019 C 
ATOM     30  C   UNL A   1     -25.336   0.684  33.544  0.00  0.00    +0.020 C 
ATOM     31  C   UNL A   1     -24.829  -0.715  33.905  0.00  0.00    +0.089 C 
ATOM     32  N   UNL A   1     -24.758  -1.481  32.646  0.00  0.00    -0.219 NA
ENDBRANCH  21  28
ENDBRANCH  20  21
ENDBRANCH  17  20
ENDBRANCH   1  17
BRANCH   1  33
ATOM     33  C   UNL A   1     -23.923   2.071  26.967  0.00  0.00    +0.189 C 
BRANCH  33  34
ATOM     34  N   UNL A   1     -22.912   2.452  27.976  0.00  0.00    -0.185 NA
ATOM     35  C   UNL A   1     -22.180   1.177  28.091  0.00  0.00    +0.276 C 
ATOM     36  O   UNL A   1     -21.194   1.381  27.221  0.00  0.00    -0.270 OA
BRANCH  35  38
ATOM     37  O   UNL A   1     -22.366  -0.622  29.374  0.00  0.00    -0.210 OA
ATOM     38  C   UNL A   1     -22.721   0.624  29.248  0.00  0.00    +0.268 C 
ENDBRANCH  35  38
ENDBRANCH  33  34
BRANCH  33  40
ATOM     39  O   UNL A   1     -23.705   1.149  24.762  0.00  0.00    -0.217 OA
ATOM     40  C   UNL A   1     -23.133   2.058  25.673  0.00  0.00    +0.220 C 
ENDBRANCH  33  40
ENDBRANCH   1  33
TORSDOF 14
