MODEL 3952
MODEL 1
REMARK VINA RESULT:    -4.611      0.000      0.000
REMARK INTER + INTRA:          -4.611
REMARK INTER:                  -4.611
REMARK INTRA:                   0.000
REMARK UNBOUND:                 0.000
REMARK  Name = No_3952-gen_results/8p0m/2024-11-27-11-27-31/
REMARK  0 active torsions:
REMARK  status: ('A' for Active; 'I' for Inactive)
REMARK                            x       y       z     vdW  Elec       q    Type
REMARK                         _______ _______ _______ _____ _____    ______ ____
ROOT
ATOM      1  C   UNL A   1      -9.459  -9.107  20.306  0.00  0.00    +0.030 A 
ATOM      2  C   UNL A   1     -10.145  -9.206  19.513  0.00  0.00    +0.002 A 
ATOM      3  C   UNL A   1      -8.207  -9.832  20.091  0.00  0.00    +0.140 A 
ATOM      4  C   UNL A   1      -7.966 -10.549  18.945  0.00  0.00    +0.030 A 
ATOM      5  C   UNL A   1     -10.161  -9.876  18.212  0.00  0.00    +0.000 A 
ATOM      6  C   UNL A   1      -8.953 -10.580  17.994  0.00  0.00    +0.002 A 
ATOM      7  F   UNL A   1      -7.229  -9.763  21.003  0.00  0.00    -0.204 F 
ENDROOT
TORSDOF 0
ENDMDL
ENDMDL
