MODEL 3953
MODEL 1
REMARK VINA RESULT:    -5.315      0.000      0.000
REMARK INTER + INTRA:          -6.081
REMARK INTER:                  -5.936
REMARK INTRA:                  -0.145
REMARK UNBOUND:                -0.145
REMARK  Name = No_3953-gen_results/8p0m/2024-11-27-11-27-31/
REMARK  2 active torsions:
REMARK  status: ('A' for Active; 'I' for Inactive)
REMARK    1  A    between atoms: C_1  and  C_3
REMARK    2  A    between atoms: C_6  and  C_7
REMARK                            x       y       z     vdW  Elec       q    Type
REMARK                         _______ _______ _______ _____ _____    ______ ____
ROOT
ATOM      1  C   UNL A   1     -23.245   0.699  27.820  0.00  0.00    +0.050 A 
ATOM      2  C   UNL A   1     -22.388  -0.043  28.642  0.00  0.00    +0.004 A 
ATOM      3  C   UNL A   1     -22.612  -1.294  29.145  0.00  0.00    +0.002 A 
ATOM      4  C   UNL A   1     -23.874  -1.930  28.864  0.00  0.00    +0.019 A 
ATOM      5  C   UNL A   1     -24.896  -1.204  28.073  0.00  0.00    +0.002 A 
ATOM      6  C   UNL A   1     -24.512   0.031  27.582  0.00  0.00    +0.004 A 
ENDROOT
BRANCH   1   7
ATOM      7  C   UNL A   1     -22.858   2.052  27.310  0.00  0.00    +0.254 C 
ATOM      8 CL   UNL A   1     -22.322   2.147  26.340  0.00  0.00    -0.038 Cl
ATOM      9  O   UNL A   1     -23.774   2.936  27.803  0.00  0.00    -0.274 OA
ENDBRANCH   1   7
BRANCH   4  10
ATOM     10  C   UNL A   1     -24.283  -3.237  29.268  0.00  0.00    +0.093 C 
ATOM     11  N   UNL A   1     -24.100  -4.318  28.494  0.00  0.00    -0.267 NA
ATOM     12  C   UNL A   1     -24.639  -5.452  28.918  0.00  0.00    +0.152 C 
ENDBRANCH   4  10
TORSDOF 2
ENDMDL
ENDMDL
