MODEL 3954
MODEL 1
REMARK VINA RESULT:    -6.670      0.000      0.000
REMARK INTER + INTRA:         -12.125
REMARK INTER:                  -9.789
REMARK INTRA:                  -2.336
REMARK UNBOUND:                -2.336
REMARK  Name = No_3954-gen_results/8p0m/2024-11-27-11-27-31/
REMARK  8 active torsions:
REMARK  status: ('A' for Active; 'I' for Inactive)
REMARK    1  A    between atoms: C_6  and  O_7
REMARK    2  A    between atoms: O_7  and  C_20
REMARK    3  A    between atoms: C_15  and  C_16
REMARK    4  A    between atoms: N_18  and  C_19
REMARK    5  A    between atoms: C_19  and  C_25
REMARK    6  A    between atoms: C_20  and  C_21
REMARK    7  A    between atoms: N_24  and  C_30
REMARK    8  A    between atoms: C_31  and  C_32
REMARK                            x       y       z     vdW  Elec       q    Type
REMARK                         _______ _______ _______ _____ _____    ______ ____
ROOT
ATOM      1  C   UNL A   1     -23.995   0.664  31.479  0.00  0.00    +0.038 A 
ATOM      2  C   UNL A   1     -24.847   0.865  32.313  0.00  0.00    +0.007 A 
ATOM      3  C   UNL A   1     -24.974   0.037  33.424  0.00  0.00    +0.000 A 
ATOM      4  C   UNL A   1     -24.124  -1.113  33.591  0.00  0.00    +0.003 A 
ATOM      5  C   UNL A   1     -23.182  -1.284  32.568  0.00  0.00    +0.038 A 
ATOM      6  C   UNL A   1     -23.114  -0.482  31.530  0.00  0.00    +0.147 A 
ATOM      7  C   UNL A   1     -25.985   0.190  34.534  0.00  0.00    +0.000 A 
ATOM      8  C   UNL A   1     -26.039  -0.530  35.599  0.00  0.00    +0.000 A 
ATOM      9  C   UNL A   1     -27.000  -0.250  36.653  0.00  0.00    +0.000 A 
ATOM     10  C   UNL A   1     -27.683   0.975  36.628  0.00  0.00    +0.000 A 
ATOM     11  C   UNL A   1     -26.712   1.454  34.574  0.00  0.00    +0.000 A 
ATOM     12  C   UNL A   1     -26.602   2.361  33.471  0.00  0.00    +0.005 A 
ATOM     13  C   UNL A   1     -27.611   1.789  35.631  0.00  0.00    +0.000 A 
ATOM     14  C   UNL A   1     -25.698   2.091  32.369  0.00  0.00    +0.055 A 
ENDROOT
BRANCH  14  15
ATOM     15  C   UNL A   1     -25.635   3.041  31.283  0.00  0.00    +0.265 C 
ATOM     16  O   UNL A   1     -24.948   3.999  31.337  0.00  0.00    -0.268 OA
ATOM     17  N   UNL A   1     -26.316   2.732  30.154  0.00  0.00    -0.192 NA
BRANCH  17  18
ATOM     18  C   UNL A   1     -26.295   3.605  29.021  0.00  0.00    +0.200 C 
BRANCH  18  19
ATOM     19  C   UNL A   1     -25.613   3.069  27.924  0.00  0.00    +0.248 C 
ATOM     20  O   UNL A   1     -25.226   1.898  27.975  0.00  0.00    -0.273 OA
ATOM     21  N   UNL A   1     -24.933   3.962  27.060  0.00  0.00    -0.275 N 
ATOM     22  C   UNL A   1     -24.207   3.509  25.900  0.00  0.00    +0.115 C 
ATOM     23  C   UNL A   1     -25.100   5.391  27.132  0.00  0.00    +0.115 C 
ENDBRANCH  18  19
ENDBRANCH  17  18
ENDBRANCH  14  15
BRANCH   6  24
ATOM     24  O   UNL A   1     -22.195  -0.742  30.560  0.00  0.00    -0.432 OA
BRANCH  24  25
ATOM     25  C   UNL A   1     -22.502  -0.729  29.253  0.00  0.00    +0.300 C 
ATOM     26  N   UNL A   1     -23.508  -1.466  28.783  0.00  0.00    -0.205 NA
BRANCH  25  27
ATOM     27  C   UNL A   1     -21.651   0.091  28.542  0.00  0.00    +0.386 C 
ATOM     28  O   UNL A   1     -21.953   1.018  28.064  0.00  0.00    -0.249 OA
ATOM     29  F   UNL A   1     -20.397  -0.352  28.303  0.00  0.00    -0.153 F 
ENDBRANCH  25  27
BRANCH  26  30
ATOM     30  C   UNL A   1     -23.653  -2.657  28.928  0.00  0.00    +0.098 C 
ATOM     31  C   UNL A   1     -24.923  -3.130  29.489  0.00  0.00    -0.005 C 
BRANCH  31  32
ATOM     32  C   UNL A   1     -25.844  -2.135  29.645  0.00  0.00    +0.028 C 
ATOM     33  C   UNL A   1     -26.651  -1.945  30.716  0.00  0.00    +0.005 C 
ENDBRANCH  31  32
ENDBRANCH  26  30
ENDBRANCH  24  25
ENDBRANCH   6  24
TORSDOF 8
ENDMDL
ENDMDL
