REMARK  Name = outputs/IAG933/test6/raw/output_3954_IAG933_linker_design_.xyz
REMARK  18 active torsions:
REMARK  status: ('A' for Active; 'I' for Inactive)
REMARK    1  A    between atoms: C_1  and  C_2
REMARK    2  A    between atoms: C_1  and  C_8
REMARK    3  A    between atoms: C_1  and  O_45
REMARK    4  A    between atoms: C_14  and  C_15
REMARK    5  A    between atoms: C_15  and  O_18
REMARK    6  A    between atoms: O_18  and  C_35
REMARK    7  A    between atoms: C_21  and  O_22
REMARK    8  A    between atoms: O_22  and  C_23
REMARK    9  A    between atoms: C_23  and  C_24
REMARK   10  A    between atoms: C_28  and  O_31
REMARK   11  A    between atoms: C_28  and  C_37
REMARK   12  A    between atoms: C_28  and  C_43
REMARK   13  A    between atoms: C_30  and  C_37
REMARK   14  A    between atoms: C_30  and  O_45
REMARK   15  A    between atoms: O_31  and  C_36
REMARK   16  A    between atoms: C_35  and  C_36
REMARK   17  A    between atoms: C_35  and  N_44
REMARK   18  A    between atoms: C_38  and  N_44
REMARK                            x       y       z     vdW  Elec       q    Type
REMARK                         _______ _______ _______ _____ _____    ______ ____
ROOT
ATOM      1  C   UNL A   1     -25.400   3.537  29.693  0.00  0.00    +0.273 C 
ENDROOT
BRANCH   1   2
ATOM      2  N   UNL A   1     -26.660   4.147  30.381  0.00  0.00    -0.166 NA
BRANCH   2   7
ATOM      3  C   UNL A   1     -26.253   3.905  32.814  0.00  0.00    +0.171 C 
ATOM      4  C   UNL A   1     -23.931   6.252  33.233  0.00  0.00    +0.240 C 
ATOM      5  O   UNL A   1     -24.850   3.877  33.350  0.00  0.00    -0.348 OA
ATOM      6  C   UNL A   1     -24.612   5.100  34.020  0.00  0.00    +0.190 C 
ATOM      7  C   UNL A   1     -26.426   4.935  31.619  0.00  0.00    +0.204 C 
ATOM      8  O   UNL A   1     -24.963   6.867  32.376  0.00  0.00    -0.445 OA
ATOM      9  C   UNL A   1     -25.531   5.939  31.427  0.00  0.00    +0.336 C 
ATOM     10  O   UNL A   1     -25.190   6.192  30.216  0.00  0.00    -0.248 OA
ENDBRANCH   2   7
ENDBRANCH   1   2
BRANCH   1  11
ATOM     11  C   UNL A   1     -24.549   2.288  29.432  0.00  0.00    +0.206 C 
BRANCH  11  12
ATOM     12  O   UNL A   1     -23.681   2.574  28.402  0.00  0.00    -0.330 OA
BRANCH  12  13
ATOM     13  C   UNL A   1     -22.920   1.895  27.545  0.00  0.00    +0.266 C 
BRANCH  13  15
ATOM     14  N   UNL A   1     -22.555   2.651  25.111  0.00  0.00    -0.193 NA
ATOM     15  C   UNL A   1     -22.731   2.236  26.221  0.00  0.00    +0.110 C 
ENDBRANCH  13  15
BRANCH  13  16
ATOM     16  C   UNL A   1     -22.248   0.866  28.080  0.00  0.00    +0.222 C 
ATOM     17  O   UNL A   1     -21.038   0.737  27.712  0.00  0.00    -0.290 OA
BRANCH  16  18
ATOM     18  C   UNL A   1     -22.704   0.026  29.198  0.00  0.00    +0.210 C 
BRANCH  18  19
ATOM     19  O   UNL A   1     -24.064  -0.381  29.212  0.00  0.00    -0.342 OA
BRANCH  19  20
ATOM     20  C   UNL A   1     -24.855  -1.012  30.143  0.00  0.00    +0.154 C 
BRANCH  20  21
ATOM     21  C   UNL A   1     -24.973  -2.505  29.788  0.00  0.00    +0.006 C 
ATOM     22  C   UNL A   1     -23.906  -3.173  29.146  0.00  0.00    -0.002 C 
ATOM     23  C   UNL A   1     -23.989  -4.549  28.853  0.00  0.00    -0.000 C 
ATOM     24  C   UNL A   1     -25.137  -5.280  29.205  0.00  0.00    -0.000 C 
ATOM     25  C   UNL A   1     -26.232  -4.611  29.784  0.00  0.00    -0.000 C 
ATOM     26  C   UNL A   1     -26.155  -3.232  30.065  0.00  0.00    -0.002 C 
ENDBRANCH  20  21
BRANCH  20  27
ATOM     27  C   UNL A   1     -25.387  -0.679  31.571  0.00  0.00    +0.104 C 
ATOM     28  C   UNL A   1     -25.189   0.773  32.028  0.00  0.00    +0.022 C 
ATOM     29  C   UNL A   1     -25.336   0.684  33.544  0.00  0.00    +0.020 C 
ATOM     30  C   UNL A   1     -24.829  -0.715  33.905  0.00  0.00    +0.089 C 
ATOM     31  N   UNL A   1     -24.758  -1.481  32.646  0.00  0.00    -0.217 NA
ENDBRANCH  20  27
ENDBRANCH  19  20
ENDBRANCH  18  19
ENDBRANCH  16  18
ENDBRANCH  13  16
ENDBRANCH  12  13
ENDBRANCH  11  12
ENDBRANCH   1  11
BRANCH   1  32
ATOM     32  O   UNL A   1     -25.143   3.966  28.243  0.00  0.00    -0.444 OA
BRANCH  32  33
ATOM     33  C   UNL A   1     -25.642   4.093  27.123  0.00  0.00    +0.223 C 
ATOM     34  N   UNL A   1     -25.614   5.252  26.449  0.00  0.00    -0.236 NA
ATOM     35  C   UNL A   1     -25.026   6.479  26.963  0.00  0.00    +0.155 C 
BRANCH  33  37
ATOM     36  C   UNL A   1     -25.688   1.614  26.461  0.00  0.00    +0.041 C 
ATOM     37  C   UNL A   1     -26.250   2.920  26.395  0.00  0.00    +0.074 C 
ATOM     38  C   UNL A   1     -27.438   3.091  25.645  0.00  0.00    +0.107 C 
ATOM     39  N   UNL A   1     -28.075   2.089  25.003  0.00  0.00    -0.208 NA
ATOM     40  C   UNL A   1     -27.543   0.849  25.079  0.00  0.00    +0.253 C 
ATOM     41  C   UNL A   1     -26.354   0.576  25.777  0.00  0.00    +0.193 C 
ATOM     42  F   UNL A   1     -25.860  -0.681  25.795  0.00  0.00    -0.199 F 
BRANCH  40  43
ATOM     43  O   UNL A   1     -28.193  -0.208  24.477  0.00  0.00    -0.456 OA
BRANCH  43  44
ATOM     44  C   UNL A   1     -29.460   0.005  23.866  0.00  0.00    +0.243 C 
BRANCH  44  45
ATOM     45  C   UNL A   1     -30.065  -1.377  23.573  0.00  0.00    +0.229 C 
ATOM     46  O   UNL A   1     -30.729  -1.878  24.721  0.00  0.00    -0.216 OA
ENDBRANCH  44  45
ENDBRANCH  43  44
ENDBRANCH  40  43
ENDBRANCH  33  37
ENDBRANCH  32  33
ENDBRANCH   1  32
TORSDOF 18
