REMARK  Name = outputs/IAG933/test6/raw/output_3955_IAG933_linker_design_.xyz
REMARK  11 active torsions:
REMARK  status: ('A' for Active; 'I' for Inactive)
REMARK    1  A    between atoms: C_1  and  C_2
REMARK    2  A    between atoms: C_13  and  C_29
REMARK    3  A    between atoms: C_14  and  C_15
REMARK    4  A    between atoms: C_21  and  O_22
REMARK    5  A    between atoms: O_22  and  C_23
REMARK    6  A    between atoms: C_23  and  C_24
REMARK    7  A    between atoms: C_29  and  N_34
REMARK    8  A    between atoms: C_29  and  N_39
REMARK    9  A    between atoms: C_30  and  N_31
REMARK   10  A    between atoms: C_30  and  C_38
REMARK   11  A    between atoms: N_31  and  C_36
REMARK                            x       y       z     vdW  Elec       q    Type
REMARK                         _______ _______ _______ _____ _____    ______ ____
ROOT
ATOM      1  C   UNL A   1     -24.855  -1.012  30.143  0.00  0.00    +0.054 C 
ATOM      2  C   UNL A   1     -25.387  -0.679  31.571  0.00  0.00    +0.080 C 
ATOM      3  C   UNL A   1     -25.189   0.773  32.028  0.00  0.00    +0.037 C 
ATOM      4  C   UNL A   1     -25.336   0.684  33.544  0.00  0.00    +0.022 C 
ATOM      5  C   UNL A   1     -24.829  -0.715  33.905  0.00  0.00    +0.089 C 
ATOM      6  N   UNL A   1     -24.758  -1.481  32.646  0.00  0.00    -0.219 NA
ATOM      7  N   UNL A   1     -24.625   1.117  28.772  0.00  0.00    -0.253 NA
ATOM      8  C   UNL A   1     -25.608   1.785  30.930  0.00  0.00    +0.094 C 
ATOM      9  C   UNL A   1     -24.319   1.917  29.956  0.00  0.00    +0.094 C 
ATOM     10  C   UNL A   1     -25.280  -0.172  28.973  0.00  0.00    +0.080 C 
ENDROOT
BRANCH   1  11
ATOM     11  C   UNL A   1     -24.973  -2.505  29.788  0.00  0.00    -0.020 C 
ATOM     12  C   UNL A   1     -23.906  -3.173  29.146  0.00  0.00    -0.004 C 
ATOM     13  C   UNL A   1     -23.989  -4.549  28.853  0.00  0.00    -0.000 C 
ATOM     14  C   UNL A   1     -25.137  -5.280  29.205  0.00  0.00    -0.000 C 
ATOM     15  C   UNL A   1     -26.232  -4.611  29.784  0.00  0.00    -0.000 C 
ATOM     16  C   UNL A   1     -26.155  -3.232  30.065  0.00  0.00    -0.004 C 
ENDBRANCH   1  11
BRANCH   8  17
ATOM     17  N   UNL A   1     -26.101   3.058  31.220  0.00  0.00    -0.264 N 
ATOM     18  C   UNL A   1     -27.363   2.962  30.611  0.00  0.00    +0.303 C 
ATOM     19  O   UNL A   1     -28.128   2.267  30.689  0.00  0.00    -0.265 OA
BRANCH  17  20
ATOM     20  C   UNL A   1     -25.623   3.750  32.387  0.00  0.00    +0.183 C 
BRANCH  20  23
ATOM     21  O   UNL A   1     -27.026   5.743  32.275  0.00  0.00    -0.270 OA
ATOM     22  N   UNL A   1     -25.140   5.842  33.576  0.00  0.00    -0.086 NA
ATOM     23  C   UNL A   1     -25.995   5.212  32.755  0.00  0.00    +0.281 C 
ENDBRANCH  20  23
ENDBRANCH  17  20
ENDBRANCH   8  17
BRANCH   7  24
ATOM     24  C   UNL A   1     -24.719   1.496  27.412  0.00  0.00    +0.170 C 
BRANCH  24  25
ATOM     25  C   UNL A   1     -25.688   1.614  26.461  0.00  0.00    +0.108 C 
ATOM     26  C   UNL A   1     -26.250   2.920  26.395  0.00  0.00    +0.058 C 
ATOM     27  C   UNL A   1     -27.438   3.091  25.645  0.00  0.00    +0.102 C 
ATOM     28  N   UNL A   1     -28.075   2.089  25.003  0.00  0.00    -0.212 NA
ATOM     29  C   UNL A   1     -27.543   0.849  25.079  0.00  0.00    +0.234 C 
ATOM     30  C   UNL A   1     -26.354   0.576  25.777  0.00  0.00    +0.243 C 
ATOM     31  F   UNL A   1     -25.860  -0.681  25.795  0.00  0.00    -0.227 F 
BRANCH  26  32
ATOM     32  C   UNL A   1     -25.642   4.093  27.123  0.00  0.00    +0.263 C 
ATOM     33  N   UNL A   1     -25.614   5.252  26.449  0.00  0.00    -0.200 NA
ATOM     34  C   UNL A   1     -25.026   6.479  26.963  0.00  0.00    +0.139 C 
ATOM     35  O   UNL A   1     -25.143   3.966  28.243  0.00  0.00    -0.269 OA
ENDBRANCH  26  32
BRANCH  29  36
ATOM     36  O   UNL A   1     -28.193  -0.208  24.477  0.00  0.00    -0.459 OA
BRANCH  36  37
ATOM     37  C   UNL A   1     -29.460   0.005  23.866  0.00  0.00    +0.242 C 
BRANCH  37  38
ATOM     38  C   UNL A   1     -30.065  -1.377  23.573  0.00  0.00    +0.229 C 
ATOM     39  O   UNL A   1     -30.729  -1.878  24.721  0.00  0.00    -0.216 OA
ENDBRANCH  37  38
ENDBRANCH  36  37
ENDBRANCH  29  36
ENDBRANCH  24  25
BRANCH  24  41
ATOM     40  C   UNL A   1     -22.555   1.944  26.634  0.00  0.00    +0.034 C 
ATOM     41  N   UNL A   1     -23.744   1.865  26.782  0.00  0.00    -0.264 NA
ATOM     42  C   UNL A   1     -21.675   1.623  27.794  0.00  0.00    +0.047 C 
ATOM     43  C   UNL A   1     -21.924   2.424  25.388  0.00  0.00    +0.047 C 
ENDBRANCH  24  41
ENDBRANCH   7  24
TORSDOF 11
