REMARK  Name = outputs/IAG933/test6/raw/output_3956_IAG933_linker_design_.xyz
REMARK  12 active torsions:
REMARK  status: ('A' for Active; 'I' for Inactive)
REMARK    1  A    between atoms: C_1  and  C_2
REMARK    2  A    between atoms: C_1  and  C_8
REMARK    3  A    between atoms: C_1  and  C_42
REMARK    4  A    between atoms: C_13  and  C_40
REMARK    5  A    between atoms: C_14  and  C_15
REMARK    6  A    between atoms: C_21  and  O_22
REMARK    7  A    between atoms: O_22  and  C_23
REMARK    8  A    between atoms: C_23  and  C_24
REMARK    9  A    between atoms: N_31  and  C_36
REMARK   10  A    between atoms: N_31  and  C_42
REMARK   11  A    between atoms: C_32  and  C_36
REMARK   12  A    between atoms: C_33  and  C_42
REMARK                            x       y       z     vdW  Elec       q    Type
REMARK                         _______ _______ _______ _____ _____    ______ ____
ROOT
ATOM      1  C   UNL A   1     -22.037   2.030  26.606  0.00  0.00    +0.003 C 
ATOM      2  O   UNL A   1     -22.426   0.286  29.721  0.00  0.00    -0.287 OA
ATOM      3  C   UNL A   1     -24.121   0.724  28.087  0.00  0.00    +0.029 C 
ATOM      4  C   UNL A   1     -21.700   1.382  27.809  0.00  0.00    +0.042 C 
ATOM      5  C   UNL A   1     -22.758   0.769  28.559  0.00  0.00    +0.193 C 
ATOM      6  C   UNL A   1     -24.392   1.440  26.878  0.00  0.00    -0.015 C 
ATOM      7  C   UNL A   1     -23.355   2.007  26.099  0.00  0.00    -0.004 C 
ENDROOT
BRANCH   6   8
ATOM      8  C   UNL A   1     -25.688   1.614  26.461  0.00  0.00    +0.092 C 
ATOM      9  C   UNL A   1     -26.250   2.920  26.395  0.00  0.00    +0.059 C 
ATOM     10  C   UNL A   1     -27.438   3.091  25.645  0.00  0.00    +0.102 C 
ATOM     11  N   UNL A   1     -28.075   2.089  25.003  0.00  0.00    -0.212 NA
ATOM     12  C   UNL A   1     -27.543   0.849  25.079  0.00  0.00    +0.234 C 
ATOM     13  C   UNL A   1     -26.354   0.576  25.777  0.00  0.00    +0.244 C 
ATOM     14  F   UNL A   1     -25.860  -0.681  25.795  0.00  0.00    -0.227 F 
BRANCH   9  15
ATOM     15  C   UNL A   1     -25.642   4.093  27.123  0.00  0.00    +0.263 C 
ATOM     16  N   UNL A   1     -25.614   5.252  26.449  0.00  0.00    -0.200 NA
ATOM     17  C   UNL A   1     -25.026   6.479  26.963  0.00  0.00    +0.139 C 
ATOM     18  O   UNL A   1     -25.143   3.966  28.243  0.00  0.00    -0.269 OA
ENDBRANCH   9  15
BRANCH  12  19
ATOM     19  O   UNL A   1     -28.193  -0.208  24.477  0.00  0.00    -0.459 OA
BRANCH  19  20
ATOM     20  C   UNL A   1     -29.460   0.005  23.866  0.00  0.00    +0.242 C 
BRANCH  20  21
ATOM     21  C   UNL A   1     -30.065  -1.377  23.573  0.00  0.00    +0.229 C 
ATOM     22  O   UNL A   1     -30.729  -1.878  24.721  0.00  0.00    -0.216 OA
ENDBRANCH  20  21
ENDBRANCH  19  20
ENDBRANCH  12  19
ENDBRANCH   6   8
BRANCH   3  23
ATOM     23  C   UNL A   1     -25.170  -0.057  28.892  0.00  0.00    +0.103 C 
BRANCH  23  24
ATOM     24  C   UNL A   1     -24.855  -1.012  30.143  0.00  0.00    +0.059 C 
BRANCH  24  25
ATOM     25  C   UNL A   1     -24.973  -2.505  29.788  0.00  0.00    -0.019 C 
ATOM     26  C   UNL A   1     -23.906  -3.173  29.146  0.00  0.00    -0.004 C 
ATOM     27  C   UNL A   1     -23.989  -4.549  28.853  0.00  0.00    -0.000 C 
ATOM     28  C   UNL A   1     -25.137  -5.280  29.205  0.00  0.00    -0.000 C 
ATOM     29  C   UNL A   1     -26.232  -4.611  29.784  0.00  0.00    -0.000 C 
ATOM     30  C   UNL A   1     -26.155  -3.232  30.065  0.00  0.00    -0.004 C 
ENDBRANCH  24  25
BRANCH  24  31
ATOM     31  C   UNL A   1     -25.387  -0.679  31.571  0.00  0.00    +0.079 C 
ATOM     32  C   UNL A   1     -25.189   0.773  32.028  0.00  0.00    +0.019 C 
ATOM     33  C   UNL A   1     -25.336   0.684  33.544  0.00  0.00    +0.020 C 
ATOM     34  C   UNL A   1     -24.829  -0.715  33.905  0.00  0.00    +0.089 C 
ATOM     35  N   UNL A   1     -24.758  -1.481  32.646  0.00  0.00    -0.219 NA
ENDBRANCH  24  31
ENDBRANCH  23  24
BRANCH  23  36
ATOM     36  N   UNL A   1     -26.488  -0.026  28.444  0.00  0.00    -0.213 NA
BRANCH  36  37
ATOM     37  C   UNL A   1     -27.886  -0.251  28.710  0.00  0.00    +0.108 C 
BRANCH  37  39
ATOM     38  C   UNL A   1     -27.802   1.704  30.285  0.00  0.00    +0.092 C 
ATOM     39  C   UNL A   1     -28.445   0.953  29.304  0.00  0.00    +0.108 C 
ATOM     40  N   UNL A   1     -28.772   2.397  30.787  0.00  0.00    -0.255 NA
ATOM     41  C   UNL A   1     -29.813   2.408  29.966  0.00  0.00    +0.164 C 
ATOM     42  C   UNL A   1     -28.883   2.897  32.141  0.00  0.00    +0.091 C 
ATOM     43  N   UNL A   1     -29.662   1.433  29.061  0.00  0.00    -0.199 NA
ENDBRANCH  37  39
ENDBRANCH  36  37
ENDBRANCH  23  36
ENDBRANCH   3  23
TORSDOF 12
