MODEL 3956
MODEL 1
REMARK VINA RESULT:    -5.416      0.000      0.000
REMARK INTER + INTRA:          -5.416
REMARK INTER:                  -5.416
REMARK INTRA:                   0.000
REMARK UNBOUND:                 0.000
REMARK  Name = No_3956-gen_results/8p0m/2024-11-27-11-27-31/
REMARK  0 active torsions:
REMARK  status: ('A' for Active; 'I' for Inactive)
REMARK                            x       y       z     vdW  Elec       q    Type
REMARK                         _______ _______ _______ _____ _____    ______ ____
ROOT
ATOM      1  C   UNL A   1     -26.483  -3.873  30.005  0.00  0.00    +0.000 A 
ATOM      2  C   UNL A   1     -26.162  -4.805  29.633  0.00  0.00    +0.000 A 
ATOM      3  C   UNL A   1     -25.506  -2.801  29.820  0.00  0.00    +0.000 A 
ATOM      4  C   UNL A   1     -24.300  -3.011  29.198  0.00  0.00    +0.000 A 
ATOM      5  C   UNL A   1     -24.975  -5.311  28.943  0.00  0.00    +0.000 A 
ATOM      6  C   UNL A   1     -24.023  -4.280  28.759  0.00  0.00    +0.000 A 
ATOM      7  C   UNL A   1     -25.795  -1.400  30.245  0.00  0.00    +0.000 A 
ATOM      8  C   UNL A   1     -24.785  -0.461  29.974  0.00  0.00    +0.000 A 
ATOM      9  C   UNL A   1     -23.570  -0.763  29.381  0.00  0.00    +0.000 A 
ATOM     10  C   UNL A   1     -23.321  -2.037  28.959  0.00  0.00    +0.000 A 
ENDROOT
TORSDOF 0
ENDMDL
ENDMDL
