MODEL 3957
MODEL 1
REMARK VINA RESULT:    -7.201      0.000      0.000
REMARK INTER + INTRA:          -9.640
REMARK INTER:                  -8.464
REMARK INTRA:                  -1.175
REMARK UNBOUND:                -1.175
REMARK  Name = No_3957-gen_results/8p0m/2024-11-27-11-27-31/
REMARK  3 active torsions:
REMARK  status: ('A' for Active; 'I' for Inactive)
REMARK    1  A    between atoms: C_3  and  C_7
REMARK    2  A    between atoms: C_7  and  C_8
REMARK    3  A    between atoms: C_7  and  C_14
REMARK                            x       y       z     vdW  Elec       q    Type
REMARK                         _______ _______ _______ _____ _____    ______ ____
ROOT
ATOM      1  C   UNL A   1     -24.218  -0.852  29.777  0.00  0.00    +0.044 C 
ENDROOT
BRANCH   1   2
ATOM      2  C   UNL A   1     -23.221  -0.369  28.915  0.00  0.00    -0.022 A 
ATOM      3  C   UNL A   1     -21.896  -0.392  29.274  0.00  0.00    -0.004 A 
ATOM      4  C   UNL A   1     -20.988   0.362  28.355  0.00  0.00    -0.000 A 
ATOM      5  C   UNL A   1     -21.478   1.303  27.481  0.00  0.00    -0.000 A 
ATOM      6  C   UNL A   1     -22.841   1.478  27.324  0.00  0.00    -0.005 A 
ATOM      7  C   UNL A   1     -23.749   0.680  28.048  0.00  0.00    -0.025 A 
ATOM      8  C   UNL A   1     -25.043   0.561  27.579  0.00  0.00    +0.031 C 
ENDBRANCH   1   2
BRANCH   1  11
ATOM      9  C   UNL A   1     -23.805  -3.235  28.927  0.00  0.00    -0.004 A 
ATOM     10  C   UNL A   1     -24.183  -4.212  28.815  0.00  0.00    -0.000 A 
ATOM     11  C   UNL A   1     -24.638  -2.271  29.536  0.00  0.00    -0.018 A 
ATOM     12  C   UNL A   1     -25.914  -2.576  29.966  0.00  0.00    -0.004 A 
ATOM     13  C   UNL A   1     -26.329  -3.885  29.788  0.00  0.00    -0.000 A 
ATOM     14  C   UNL A   1     -25.468  -4.801  29.221  0.00  0.00    -0.000 A 
ENDBRANCH   1  11
BRANCH   1  15
ATOM     15  C   UNL A   1     -24.151  -0.570  31.178  0.00  0.00    +0.008 C 
ATOM     16  C   UNL A   1     -24.786   0.462  31.618  0.00  0.00    +0.001 C 
ATOM     17  C   UNL A   1     -23.461  -1.413  32.067  0.00  0.00    +0.001 C 
ENDBRANCH   1  15
TORSDOF 3
ENDMDL
ENDMDL
