REMARK  Name = No_3957-gen_results/8p0m/2024-11-27-11-27-31/
REMARK  3 active torsions:
REMARK  status: ('A' for Active; 'I' for Inactive)
REMARK    1  A    between atoms: C_3  and  C_7
REMARK    2  A    between atoms: C_7  and  C_8
REMARK    3  A    between atoms: C_7  and  C_14
REMARK                            x       y       z     vdW  Elec       q    Type
REMARK                         _______ _______ _______ _____ _____    ______ ____
ROOT
ATOM      1  C   UNL A   1     -26.408   0.307  27.226  0.00  0.00    +0.044 C 
ENDROOT
BRANCH   1   2
ATOM      2  C   UNL A   1     -25.011   0.390  27.323  0.00  0.00    -0.022 A 
ATOM      3  C   UNL A   1     -24.368   0.221  28.524  0.00  0.00    -0.004 A 
ATOM      4  C   UNL A   1     -22.912   0.566  28.507  0.00  0.00    -0.000 A 
ATOM      5  C   UNL A   1     -22.375   1.344  27.509  0.00  0.00    -0.000 A 
ATOM      6  C   UNL A   1     -23.136   1.713  26.415  0.00  0.00    -0.005 A 
ATOM      7  C   UNL A   1     -24.472   1.280  26.298  0.00  0.00    -0.025 A 
ATOM      8  C   UNL A   1     -25.060   1.282  25.049  0.00  0.00    +0.031 C 
ENDBRANCH   1   2
BRANCH   1  11
ATOM      9  C   UNL A   1     -28.016  -0.814  28.878  0.00  0.00    -0.004 A 
ATOM     10  C   UNL A   1     -28.469  -0.785  29.829  0.00  0.00    -0.000 A 
ATOM     11  C   UNL A   1     -27.136   0.236  28.535  0.00  0.00    -0.018 A 
ATOM     12  C   UNL A   1     -26.875   1.282  29.398  0.00  0.00    -0.004 A 
ATOM     13  C   UNL A   1     -27.507   1.238  30.630  0.00  0.00    -0.000 A 
ATOM     14  C   UNL A   1     -28.329   0.174  30.935  0.00  0.00    -0.000 A 
ENDBRANCH   1  11
BRANCH   1  15
ATOM     15  C   UNL A   1     -27.111   1.135  26.295  0.00  0.00    +0.008 C 
ATOM     16  C   UNL A   1     -28.273   0.744  25.895  0.00  0.00    +0.001 C 
ATOM     17  C   UNL A   1     -26.587   2.366  25.862  0.00  0.00    +0.001 C 
ENDBRANCH   1  15
TORSDOF 3
