MODEL 3958
MODEL 1
REMARK VINA RESULT:    -6.223      0.000      0.000
REMARK INTER + INTRA:          -7.023
REMARK INTER:                  -6.950
REMARK INTRA:                  -0.073
REMARK UNBOUND:                -0.073
REMARK  Name = No_3958-gen_results/8p0m/2024-11-27-11-27-31/
REMARK  2 active torsions:
REMARK  status: ('A' for Active; 'I' for Inactive)
REMARK    1  A    between atoms: C_6  and  C_8
REMARK    2  A    between atoms: C_13  and  C_14
REMARK                            x       y       z     vdW  Elec       q    Type
REMARK                         _______ _______ _______ _____ _____    ______ ____
ROOT
ATOM      1  C   UNL A   1      -8.495   0.412  34.952  0.00  0.00    +0.081 A 
ATOM      2  N   UNL A   1      -8.876   1.309  34.081  0.00  0.00    -0.244 NA
ATOM      3  C   UNL A   1      -9.408   0.045  35.967  0.00  0.00    +0.019 A 
ATOM      4  C   UNL A   1     -10.565   0.792  36.105  0.00  0.00    +0.003 A 
ATOM      5  C   UNL A   1     -10.023   1.990  34.114  0.00  0.00    +0.099 A 
ATOM      6  C   UNL A   1     -10.900   1.738  35.123  0.00  0.00    +0.019 A 
ENDROOT
BRANCH   1  12
ATOM      7  C   UNL A   1      -5.920   0.499  35.121  0.00  0.00    +0.002 A 
ATOM      8  C   UNL A   1      -4.851  -0.066  35.092  0.00  0.00    +0.011 A 
ATOM      9  C   UNL A   1      -4.697  -1.410  34.757  0.00  0.00    +0.058 A 
ATOM     10  C   UNL A   1      -5.876  -2.208  34.479  0.00  0.00    +0.011 A 
ATOM     11  C   UNL A   1      -7.089  -1.484  34.540  0.00  0.00    +0.002 A 
ATOM     12  C   UNL A   1      -7.134  -0.218  34.872  0.00  0.00    +0.018 A 
ATOM     13 CL   UNL A   1      -3.207  -2.256  34.698  0.00  0.00    -0.082 Cl
ENDBRANCH   1  12
BRANCH   6  14
ATOM     14  C   UNL A   1     -12.179   2.482  35.161  0.00  0.00    -0.003 C 
ATOM     15  C   UNL A   1     -12.996   2.372  34.364  0.00  0.00    -0.026 C 
ATOM     16  C   UNL A   1     -12.979   1.146  33.406  0.00  0.00    +0.031 C 
ENDBRANCH   6  14
TORSDOF 2
ENDMDL
ENDMDL
