MODEL 3959
MODEL 1
REMARK VINA RESULT:    -6.028      0.000      0.000
REMARK INTER + INTRA:          -6.409
REMARK INTER:                  -6.380
REMARK INTRA:                  -0.029
REMARK UNBOUND:                -0.029
REMARK  Name = No_3959-gen_results/8p0m/2024-11-27-11-27-31/
REMARK  1 active torsions:
REMARK  status: ('A' for Active; 'I' for Inactive)
REMARK    1  A    between atoms: C_8  and  C_11
REMARK                            x       y       z     vdW  Elec       q    Type
REMARK                         _______ _______ _______ _____ _____    ______ ____
ROOT
ATOM      1  C   UNL A   1     -29.772 -11.586  27.861  0.00  0.00    -0.000 A 
ATOM      2  C   UNL A   1     -29.009 -12.011  28.698  0.00  0.00    -0.000 A 
ATOM      3  C   UNL A   1     -28.935 -11.513  29.998  0.00  0.00    -0.000 A 
ATOM      4  C   UNL A   1     -29.767 -10.386  30.371  0.00  0.00    -0.000 A 
ATOM      5  C   UNL A   1     -30.624  -9.937  29.341  0.00  0.00    -0.000 A 
ATOM      6  C   UNL A   1     -30.618 -10.465  28.144  0.00  0.00    -0.000 A 
ATOM      7  C   UNL A   1     -28.034 -11.994  31.079  0.00  0.00    -0.003 A 
ATOM      8  C   UNL A   1     -28.090 -11.574  32.321  0.00  0.00    -0.003 A 
ATOM      9  C   UNL A   1     -29.094 -10.536  32.609  0.00  0.00    -0.003 A 
ATOM     10  C   UNL A   1     -29.869  -9.954  31.698  0.00  0.00    -0.000 A 
ENDROOT
BRANCH   8  11
ATOM     11  C   UNL A   1     -27.120 -12.061  33.246  0.00  0.00    +0.136 C 
ATOM     12  N   UNL A   1     -27.267 -12.385  34.405  0.00  0.00    -0.126 NA
ENDBRANCH   8  11
TORSDOF 1
ENDMDL
ENDMDL
