REMARK  Name = outputs/IAG933/test6/raw/output_3959_IAG933_linker_design_.xyz
REMARK  17 active torsions:
REMARK  status: ('A' for Active; 'I' for Inactive)
REMARK    1  A    between atoms: C_1  and  C_2
REMARK    2  A    between atoms: C_1  and  C_8
REMARK    3  A    between atoms: C_1  and  C_38
REMARK    4  A    between atoms: C_13  and  N_34
REMARK    5  A    between atoms: C_14  and  C_15
REMARK    6  A    between atoms: C_21  and  O_22
REMARK    7  A    between atoms: O_22  and  C_23
REMARK    8  A    between atoms: C_23  and  C_24
REMARK    9  A    between atoms: C_28  and  C_30
REMARK   10  A    between atoms: C_28  and  C_33
REMARK   11  A    between atoms: C_29  and  N_39
REMARK   12  A    between atoms: C_29  and  C_42
REMARK   13  A    between atoms: N_31  and  C_43
REMARK   14  A    between atoms: C_32  and  N_39
REMARK   15  A    between atoms: C_37  and  C_38
REMARK   16  A    between atoms: C_38  and  N_40
REMARK   17  A    between atoms: N_40  and  C_42
REMARK                            x       y       z     vdW  Elec       q    Type
REMARK                         _______ _______ _______ _____ _____    ______ ____
ROOT
ATOM      1  C   UNL A   1     -23.691   1.332  27.488  0.00  0.00    +0.080 C 
ATOM      2  N   UNL A   1     -24.785   1.406  27.442  0.00  0.00    -0.266 NA
ATOM      3  C   UNL A   1     -24.445   0.822  28.612  0.00  0.00    +0.089 C 
ENDROOT
BRANCH   2   4
ATOM      4  C   UNL A   1     -25.688   1.614  26.461  0.00  0.00    +0.128 C 
ATOM      5  C   UNL A   1     -26.250   2.920  26.395  0.00  0.00    +0.070 C 
ATOM      6  C   UNL A   1     -27.438   3.091  25.645  0.00  0.00    +0.103 C 
ATOM      7  N   UNL A   1     -28.075   2.089  25.003  0.00  0.00    -0.212 NA
ATOM      8  C   UNL A   1     -27.543   0.849  25.079  0.00  0.00    +0.235 C 
ATOM      9  C   UNL A   1     -26.354   0.576  25.777  0.00  0.00    +0.255 C 
ATOM     10  F   UNL A   1     -25.860  -0.681  25.795  0.00  0.00    -0.225 F 
BRANCH   5  11
ATOM     11  C   UNL A   1     -25.642   4.093  27.123  0.00  0.00    +0.264 C 
ATOM     12  N   UNL A   1     -25.614   5.252  26.449  0.00  0.00    -0.200 NA
ATOM     13  C   UNL A   1     -25.026   6.479  26.963  0.00  0.00    +0.139 C 
ATOM     14  O   UNL A   1     -25.143   3.966  28.243  0.00  0.00    -0.269 OA
ENDBRANCH   5  11
BRANCH   8  15
ATOM     15  O   UNL A   1     -28.193  -0.208  24.477  0.00  0.00    -0.459 OA
BRANCH  15  16
ATOM     16  C   UNL A   1     -29.460   0.005  23.866  0.00  0.00    +0.242 C 
BRANCH  16  17
ATOM     17  C   UNL A   1     -30.065  -1.377  23.573  0.00  0.00    +0.229 C 
ATOM     18  O   UNL A   1     -30.729  -1.878  24.721  0.00  0.00    -0.216 OA
ENDBRANCH  16  17
ENDBRANCH  15  16
ENDBRANCH   8  15
ENDBRANCH   2   4
BRANCH   3  19
ATOM     19  C   UNL A   1     -25.143   0.157  29.176  0.00  0.00    +0.094 C 
BRANCH  19  20
ATOM     20  C   UNL A   1     -24.855  -1.012  30.143  0.00  0.00    +0.056 C 
BRANCH  20  21
ATOM     21  C   UNL A   1     -24.973  -2.505  29.788  0.00  0.00    -0.020 C 
ATOM     22  C   UNL A   1     -23.906  -3.173  29.146  0.00  0.00    -0.004 C 
ATOM     23  C   UNL A   1     -23.989  -4.549  28.853  0.00  0.00    -0.000 C 
ATOM     24  C   UNL A   1     -25.137  -5.280  29.205  0.00  0.00    -0.000 C 
ATOM     25  C   UNL A   1     -26.232  -4.611  29.784  0.00  0.00    -0.000 C 
ATOM     26  C   UNL A   1     -26.155  -3.232  30.065  0.00  0.00    -0.004 C 
ENDBRANCH  20  21
BRANCH  20  27
ATOM     27  C   UNL A   1     -25.387  -0.679  31.571  0.00  0.00    +0.078 C 
ATOM     28  C   UNL A   1     -25.189   0.773  32.028  0.00  0.00    +0.019 C 
ATOM     29  C   UNL A   1     -25.336   0.684  33.544  0.00  0.00    +0.020 C 
ATOM     30  C   UNL A   1     -24.829  -0.715  33.905  0.00  0.00    +0.089 C 
ATOM     31  N   UNL A   1     -24.758  -1.481  32.646  0.00  0.00    -0.219 NA
ENDBRANCH  20  27
ENDBRANCH  19  20
BRANCH  19  32
ATOM     32  N   UNL A   1     -26.440   0.559  29.293  0.00  0.00    -0.216 NA
BRANCH  32  33
ATOM     33  C   UNL A   1     -27.620   1.062  29.431  0.00  0.00    +0.106 C 
BRANCH  33  34
ATOM     34  C   UNL A   1     -28.875   1.686  29.453  0.00  0.00    +0.093 C 
BRANCH  34  36
ATOM     35  C   UNL A   1     -30.556   3.144  28.262  0.00  0.00    +0.092 C 
ATOM     36  N   UNL A   1     -29.185   3.018  28.789  0.00  0.00    -0.242 NA
BRANCH  36  37
ATOM     37  C   UNL A   1     -28.547   4.275  29.365  0.00  0.00    +0.259 C 
ATOM     38  O   UNL A   1     -27.509   4.114  30.320  0.00  0.00    -0.201 OA
ENDBRANCH  36  37
ENDBRANCH  34  36
ENDBRANCH  33  34
ENDBRANCH  32  33
ENDBRANCH  19  32
ENDBRANCH   3  19
BRANCH   1  39
ATOM     39  C   UNL A   1     -22.697   1.941  26.776  0.00  0.00    +0.062 C 
BRANCH  39  41
ATOM     40  N   UNL A   1     -21.218   0.927  28.249  0.00  0.00    -0.175 NA
ATOM     41  C   UNL A   1     -21.381   1.725  27.166  0.00  0.00    +0.064 C 
BRANCH  40  43
ATOM     42  O   UNL A   1     -22.346  -0.100  29.959  0.00  0.00    -0.263 OA
ATOM     43  C   UNL A   1     -22.195   0.491  29.016  0.00  0.00    +0.324 C 
ENDBRANCH  40  43
ENDBRANCH  39  41
ENDBRANCH   1  39
TORSDOF 17
