MODEL 395
MODEL 1
REMARK VINA RESULT:    -7.151      0.000      0.000
REMARK INTER + INTRA:         -12.060
REMARK INTER:                 -10.495
REMARK INTRA:                  -1.565
REMARK UNBOUND:                -1.565
REMARK  Name = No_395-gen_results/8p0m/2024-11-27-11-27-31/
REMARK  8 active torsions:
REMARK  status: ('A' for Active; 'I' for Inactive)
REMARK    1  A    between atoms: C_3  and  C_7
REMARK    2  A    between atoms: C_8  and  C_22
REMARK    3  A    between atoms: C_9  and  C_13
REMARK    4  A    between atoms: C_13  and  O_15
REMARK    5  A    between atoms: O_15  and  C_17
REMARK    6  A    between atoms: C_17  and  C_18
REMARK    7  A    between atoms: C_22  and  C_23
REMARK    8  A    between atoms: C_23  and  C_24
REMARK                            x       y       z     vdW  Elec       q    Type
REMARK                         _______ _______ _______ _____ _____    ______ ____
ROOT
ATOM      1  C   UNL A   1     -24.218  -0.156  27.779  0.00  0.00    +0.002 A 
ATOM      2  C   UNL A   1     -23.028   0.229  28.388  0.00  0.00    -0.021 A 
ATOM      3  C   UNL A   1     -24.695   0.464  26.649  0.00  0.00    +0.076 A 
ATOM      4  C   UNL A   1     -23.892   1.343  25.966  0.00  0.00    +0.006 A 
ATOM      5  C   UNL A   1     -22.392   1.449  27.944  0.00  0.00    -0.004 A 
ATOM      6  C   UNL A   1     -22.815   1.948  26.667  0.00  0.00    -0.000 A 
ENDROOT
BRANCH   1   9
ATOM      7  C   UNL A   1     -24.389  -2.678  28.288  0.00  0.00    +0.011 A 
ATOM      8  C   UNL A   1     -24.950  -3.395  28.818  0.00  0.00    +0.058 A 
ATOM      9  C   UNL A   1     -24.901  -1.315  28.424  0.00  0.00    +0.001 A 
ATOM     10  C   UNL A   1     -26.000  -1.022  29.193  0.00  0.00    +0.000 A 
ATOM     11  C   UNL A   1     -26.122  -3.376  29.693  0.00  0.00    +0.011 A 
ATOM     12  C   UNL A   1     -26.626  -2.061  29.832  0.00  0.00    +0.001 A 
ATOM     13 CL   UNL A   1     -24.346  -5.146  28.752  0.00  0.00    -0.082 Cl
ENDBRANCH   1   9
BRANCH   3  14
ATOM     14  C   UNL A   1     -25.798  -0.136  25.897  0.00  0.00    +0.348 C 
ATOM     15  O   UNL A   1     -25.678  -0.717  24.846  0.00  0.00    -0.244 OA
BRANCH  14  16
ATOM     16  O   UNL A   1     -27.043   0.385  26.152  0.00  0.00    -0.381 OA
BRANCH  16  17
ATOM     17  C   UNL A   1     -27.831   0.883  25.132  0.00  0.00    +0.429 C 
ATOM     18  O   UNL A   1     -27.427   2.013  24.723  0.00  0.00    -0.237 OA
BRANCH  17  19
ATOM     19  C   UNL A   1     -28.776   0.155  24.647  0.00  0.00    +0.463 C 
ATOM     20  O   UNL A   1     -28.816  -0.020  23.476  0.00  0.00    -0.233 OA
ATOM     21  O   UNL A   1     -29.633  -0.371  25.402  0.00  0.00    -0.233 OA
ENDBRANCH  17  19
ENDBRANCH  16  17
ENDBRANCH  14  16
ENDBRANCH   3  14
BRANCH   2  22
ATOM     22  C   UNL A   1     -22.498  -0.214  29.695  0.00  0.00    +0.041 C 
BRANCH  22  23
ATOM     23  C   UNL A   1     -23.158   0.251  30.803  0.00  0.00    +0.096 C 
ATOM     24  C   UNL A   1     -23.338  -0.885  31.799  0.00  0.00    +0.017 C 
BRANCH  23  25
ATOM     25  C   UNL A   1     -23.597   1.298  31.088  0.00  0.00    +0.072 C 
ATOM     26  N   UNL A   1     -24.117   2.366  31.021  0.00  0.00    -0.196 NA
ENDBRANCH  23  25
ENDBRANCH  22  23
ENDBRANCH   2  22
TORSDOF 8
ENDMDL
ENDMDL
