REMARK  Name = No_396-gen_results/8p0m/2024-11-27-11-27-31/
REMARK  7 active torsions:
REMARK  status: ('A' for Active; 'I' for Inactive)
REMARK    1  A    between atoms: C_4  and  C_9
REMARK    2  A    between atoms: C_6  and  C_12
REMARK    3  A    between atoms: C_12  and  C_13
REMARK    4  A    between atoms: C_12  and  C_14
REMARK    5  A    between atoms: C_13  and  C_15
REMARK    6  A    between atoms: C_14  and  C_17
REMARK    7  A    between atoms: C_21  and  C_23
REMARK                            x       y       z     vdW  Elec       q    Type
REMARK                         _______ _______ _______ _____ _____    ______ ____
ROOT
ATOM      1  C   UNL A   1     -26.177   1.765  31.561  0.00  0.00    +0.025 C 
ENDROOT
BRANCH   1   7
ATOM      2  F   UNL A   1     -28.073  -1.254  28.532  0.00  0.00    -0.202 F 
ATOM      3  C   UNL A   1     -28.266  -0.421  29.193  0.00  0.00    +0.167 A 
ATOM      4  C   UNL A   1     -29.445   0.076  29.339  0.00  0.00    +0.038 A 
ATOM      5  C   UNL A   1     -29.707   1.174  30.228  0.00  0.00    +0.082 A 
ATOM      6  C   UNL A   1     -28.597   1.711  30.911  0.00  0.00    +0.005 A 
ATOM      7  C   UNL A   1     -27.302   1.182  30.791  0.00  0.00    +0.007 A 
ATOM      8  C   UNL A   1     -27.122   0.122  29.980  0.00  0.00    +0.163 A 
ATOM      9  F   UNL A   1     -25.958  -0.405  29.832  0.00  0.00    -0.202 F 
BRANCH   5  10
ATOM     10  C   UNL A   1     -31.037   1.746  30.375  0.00  0.00    +0.388 C 
ATOM     11  O   UNL A   1     -31.331   2.731  30.775  0.00  0.00    -0.241 OA
ATOM     12  O   UNL A   1     -31.951   0.751  30.237  0.00  0.00    -0.241 OA
ENDBRANCH   5  10
ENDBRANCH   1   7
BRANCH   1  13
ATOM     13  C   UNL A   1     -24.976   1.817  31.065  0.00  0.00    +0.017 C 
BRANCH  13  14
ATOM     14  C   UNL A   1     -24.258   3.011  30.866  0.00  0.00    +0.068 C 
ATOM     15 BR   UNL A   1     -23.133   2.925  29.568  0.00  0.00    -0.081 Br
ENDBRANCH  13  14
ENDBRANCH   1  13
BRANCH   1  16
ATOM     16  C   UNL A   1     -26.494   2.334  32.874  0.00  0.00    +0.006 C 
BRANCH  16  17
ATOM     17  C   UNL A   1     -26.405   3.732  32.931  0.00  0.00    +0.018 C 
ATOM     18  C   UNL A   1     -26.442   4.120  34.327  0.00  0.00    +0.089 C 
ATOM     19  N   UNL A   1     -25.973   5.385  34.635  0.00  0.00    -0.218 NA
ATOM     20  C   UNL A   1     -26.407   6.419  33.942  0.00  0.00    +0.096 C 
ATOM     21  C   UNL A   1     -26.345   6.165  32.460  0.00  0.00    +0.082 C 
ATOM     22  C   UNL A   1     -26.376   4.784  32.014  0.00  0.00    +0.011 C 
BRANCH  21  23
ATOM     23  C   UNL A   1     -26.352   7.209  31.497  0.00  0.00    +0.208 C 
ATOM     24  O   UNL A   1     -25.644   8.032  31.466  0.00  0.00    -0.288 OA
ENDBRANCH  21  23
ENDBRANCH  16  17
ENDBRANCH   1  16
TORSDOF 7
