MODEL 3960
MODEL 1
REMARK VINA RESULT:    -6.478      0.000      0.000
REMARK INTER + INTRA:          -6.918
REMARK INTER:                  -6.856
REMARK INTRA:                  -0.062
REMARK UNBOUND:                -0.062
REMARK  Name = No_3960-gen_results/8p0m/2024-11-27-11-27-31/
REMARK  1 active torsions:
REMARK  status: ('A' for Active; 'I' for Inactive)
REMARK    1  A    between atoms: C_8  and  C_11
REMARK                            x       y       z     vdW  Elec       q    Type
REMARK                         _______ _______ _______ _____ _____    ______ ____
ROOT
ATOM      1  C   UNL A   1     -29.706 -11.635  28.158  0.00  0.00    +0.000 A 
ATOM      2  C   UNL A   1     -28.960 -11.994  29.040  0.00  0.00    +0.000 A 
ATOM      3  C   UNL A   1     -28.939 -11.422  30.311  0.00  0.00    +0.000 A 
ATOM      4  C   UNL A   1     -29.810 -10.298  30.595  0.00  0.00    +0.000 A 
ATOM      5  C   UNL A   1     -30.638  -9.906  29.544  0.00  0.00    +0.000 A 
ATOM      6  C   UNL A   1     -30.585 -10.496  28.367  0.00  0.00    +0.000 A 
ATOM      7  C   UNL A   1     -28.056 -11.814  31.448  0.00  0.00    +0.007 A 
ATOM      8  C   UNL A   1     -28.163 -11.339  32.666  0.00  0.00    +0.080 A 
ATOM      9  C   UNL A   1     -29.225 -10.341  32.872  0.00  0.00    +0.007 A 
ATOM     10  C   UNL A   1     -29.972  -9.801  31.904  0.00  0.00    +0.000 A 
ENDROOT
BRANCH   8  11
ATOM     11  C   UNL A   1     -27.364 -11.743  33.804  0.00  0.00    +0.388 C 
ATOM     12  O   UNL A   1     -26.906 -10.904  34.607  0.00  0.00    -0.241 OA
ATOM     13  O   UNL A   1     -26.649 -12.878  33.713  0.00  0.00    -0.241 OA
ENDBRANCH   8  11
TORSDOF 1
ENDMDL
ENDMDL
