MODEL 3961
MODEL 1
REMARK VINA RESULT:    -7.165      0.000      0.000
REMARK INTER + INTRA:          -8.468
REMARK INTER:                  -8.002
REMARK INTRA:                  -0.466
REMARK UNBOUND:                -0.466
REMARK  Name = No_3961-gen_results/8p0m/2024-11-27-11-27-31/
REMARK  2 active torsions:
REMARK  status: ('A' for Active; 'I' for Inactive)
REMARK    1  A    between atoms: C_2  and  C_11
REMARK    2  A    between atoms: C_10  and  C_17
REMARK                            x       y       z     vdW  Elec       q    Type
REMARK                         _______ _______ _______ _____ _____    ______ ____
ROOT
ATOM      1  C   UNL A   1     -25.078  -2.577  28.922  0.00  0.00    +0.020 A 
ATOM      2  C   UNL A   1     -24.870  -1.594  29.238  0.00  0.00    +0.099 A 
ATOM      3  C   UNL A   1     -23.874  -3.372  28.649  0.00  0.00    +0.002 A 
ATOM      4  C   UNL A   1     -23.965  -4.822  28.392  0.00  0.00    +0.000 A 
ATOM      5  C   UNL A   1     -25.009  -5.536  29.022  0.00  0.00    +0.000 A 
ATOM      6  C   UNL A   1     -26.047  -4.793  29.676  0.00  0.00    +0.001 A 
ATOM      7  C   UNL A   1     -26.001  -3.462  29.742  0.00  0.00    +0.011 A 
ATOM      8  N   UNL A   1     -26.028  -0.762  29.569  0.00  0.00    -0.242 NA
ATOM      9  C   UNL A   1     -27.107  -1.355  30.137  0.00  0.00    +0.107 A 
ATOM     10  C   UNL A   1     -27.199  -2.762  30.254  0.00  0.00    +0.062 A 
ENDROOT
BRANCH   2  11
ATOM     11  C   UNL A   1     -23.874  -0.618  28.596  0.00  0.00    +0.099 A 
ATOM     12  N   UNL A   1     -23.009  -0.176  28.848  0.00  0.00    -0.242 NA
ATOM     13  C   UNL A   1     -22.372   0.855  28.328  0.00  0.00    +0.099 A 
ATOM     14  C   UNL A   1     -24.653  -0.019  27.360  0.00  0.00    +0.021 A 
ATOM     15  C   UNL A   1     -24.079   1.036  26.715  0.00  0.00    +0.003 A 
ATOM     16  C   UNL A   1     -22.871   1.468  27.231  0.00  0.00    +0.021 A 
ENDBRANCH   2  11
BRANCH  10  17
ATOM     17  C   UNL A   1     -28.350  -3.400  30.697  0.00  0.00    -0.050 C 
ATOM     18  C   UNL A   1     -29.185  -3.622  31.251  0.00  0.00    -0.009 C 
ENDBRANCH  10  17
TORSDOF 2
ENDMDL
ENDMDL
