MODEL 3962
MODEL 1
REMARK VINA RESULT:    -6.031      0.000      0.000
REMARK INTER + INTRA:          -7.471
REMARK INTER:                  -7.089
REMARK INTRA:                  -0.383
REMARK UNBOUND:                -0.383
REMARK  Name = No_3962-gen_results/8p0m/2024-11-27-11-27-31/
REMARK  3 active torsions:
REMARK  status: ('A' for Active; 'I' for Inactive)
REMARK    1  A    between atoms: C_3  and  C_7
REMARK    2  A    between atoms: C_6  and  O_11
REMARK    3  A    between atoms: O_11  and  C_12
REMARK                            x       y       z     vdW  Elec       q    Type
REMARK                         _______ _______ _______ _____ _____    ______ ____
ROOT
ATOM      1  C   UNL A   1     -21.612   1.500  27.422  0.00  0.00    +0.004 A 
ATOM      2  C   UNL A   1     -21.246   0.891  28.200  0.00  0.00    +0.003 A 
ATOM      3  C   UNL A   1     -22.997   1.331  27.084  0.00  0.00    +0.074 A 
ATOM      4  C   UNL A   1     -23.757   0.355  27.589  0.00  0.00    +0.041 A 
ATOM      5  C   UNL A   1     -21.878  -0.237  28.870  0.00  0.00    +0.037 A 
ATOM      6  C   UNL A   1     -23.152  -0.421  28.552  0.00  0.00    +0.145 A 
ENDROOT
BRANCH   3   7
ATOM      7  C   UNL A   1     -23.587   2.279  26.031  0.00  0.00    +0.419 C 
ATOM      8  F   UNL A   1     -23.826   3.356  26.478  0.00  0.00    -0.166 F 
ATOM      9  F   UNL A   1     -22.720   2.391  24.921  0.00  0.00    -0.166 F 
ATOM     10  F   UNL A   1     -24.685   1.692  25.369  0.00  0.00    -0.166 F 
ENDBRANCH   3   7
BRANCH   6  11
ATOM     11  O   UNL A   1     -23.884  -1.429  29.096  0.00  0.00    -0.451 OA
BRANCH  11  12
ATOM     12  C   UNL A   1     -23.859  -2.518  28.892  0.00  0.00    +0.175 C 
ATOM     13  C   UNL A   1     -24.487  -3.435  28.922  0.00  0.00    +0.015 C 
ATOM     14  C   UNL A   1     -24.274  -4.854  28.689  0.00  0.00    +0.034 C 
ENDBRANCH  11  12
ENDBRANCH   6  11
TORSDOF 3
ENDMDL
ENDMDL
