MODEL 3963
MODEL 1
REMARK VINA RESULT:    -5.020      0.000      0.000
REMARK INTER + INTRA:          -5.726
REMARK INTER:                  -5.607
REMARK INTRA:                  -0.120
REMARK UNBOUND:                -0.120
REMARK  Name = No_3963-gen_results/8p0m/2024-11-27-11-27-31/
REMARK  2 active torsions:
REMARK  status: ('A' for Active; 'I' for Inactive)
REMARK    1  A    between atoms: C_1  and  C_2
REMARK    2  A    between atoms: C_1  and  N_8
REMARK                            x       y       z     vdW  Elec       q    Type
REMARK                         _______ _______ _______ _____ _____    ______ ____
ROOT
ATOM      1  C   UNL A   1     -24.289  -2.862  29.098  0.00  0.00    +0.003 A 
ATOM      2  C   UNL A   1     -24.134  -4.195  28.891  0.00  0.00    -0.002 A 
ATOM      3  C   UNL A   1     -25.173  -5.214  29.158  0.00  0.00    -0.000 A 
ATOM      4  C   UNL A   1     -26.418  -4.747  29.695  0.00  0.00    -0.000 A 
ATOM      5  C   UNL A   1     -26.514  -3.363  29.963  0.00  0.00    -0.000 A 
ATOM      6  C   UNL A   1     -25.506  -2.475  29.689  0.00  0.00    -0.002 A 
ENDROOT
BRANCH   1   7
ATOM      7  C   UNL A   1     -23.431  -2.040  28.877  0.00  0.00    +0.165 C 
BRANCH   7   8
ATOM      8  N   UNL A   1     -23.050  -1.132  29.859  0.00  0.00    -0.188 NA
ATOM      9  C   UNL A   1     -22.311  -0.346  30.059  0.00  0.00    +0.236 C 
ATOM     10  O   UNL A   1     -21.447  -0.064  29.152  0.00  0.00    -0.210 OA
ENDBRANCH   7   8
ENDBRANCH   1   7
TORSDOF 2
ENDMDL
ENDMDL
