MODEL 3965
MODEL 1
REMARK VINA RESULT:    -6.308      0.000      0.000
REMARK INTER + INTRA:          -7.599
REMARK INTER:                  -7.046
REMARK INTRA:                  -0.553
REMARK UNBOUND:                -0.553
REMARK  Name = No_3965-gen_results/8p0m/2024-11-27-11-27-31/
REMARK  2 active torsions:
REMARK  status: ('A' for Active; 'I' for Inactive)
REMARK    1  A    between atoms: C_3  and  C_4
REMARK    2  A    between atoms: C_4  and  C_8
REMARK                            x       y       z     vdW  Elec       q    Type
REMARK                         _______ _______ _______ _____ _____    ______ ____
ROOT
ATOM      1  C   UNL A   1     -24.580  -1.076  29.404  0.00  0.00    +0.053 C 
ENDROOT
BRANCH   1   4
ATOM      2  C   UNL A   1     -25.427  -0.375  27.024  0.00  0.00    -0.004 A 
ATOM      3  C   UNL A   1     -25.154   0.176  26.168  0.00  0.00    -0.000 A 
ATOM      4  C   UNL A   1     -24.512  -0.302  28.174  0.00  0.00    -0.018 A 
ATOM      5  C   UNL A   1     -24.107   1.203  25.952  0.00  0.00    -0.000 A 
ATOM      6  C   UNL A   1     -23.202   1.338  27.000  0.00  0.00    -0.000 A 
ATOM      7  C   UNL A   1     -23.370   0.619  28.165  0.00  0.00    -0.004 A 
ENDBRANCH   1   4
BRANCH   1   8
ATOM      8  C   UNL A   1     -24.843  -2.516  29.244  0.00  0.00    -0.018 A 
ATOM      9  C   UNL A   1     -23.841  -3.188  28.624  0.00  0.00    -0.004 A 
ATOM     10  C   UNL A   1     -23.930  -4.613  28.545  0.00  0.00    -0.000 A 
ATOM     11  C   UNL A   1     -25.953  -3.155  29.719  0.00  0.00    -0.004 A 
ATOM     12  C   UNL A   1     -26.092  -4.503  29.669  0.00  0.00    -0.000 A 
ATOM     13  C   UNL A   1     -25.027  -5.285  29.039  0.00  0.00    -0.000 A 
ENDBRANCH   1   8
TORSDOF 2
ENDMDL
ENDMDL
