MODEL 3967
MODEL 1
REMARK VINA RESULT:    -4.302      0.000      0.000
REMARK INTER + INTRA:          -4.302
REMARK INTER:                  -4.302
REMARK INTRA:                   0.000
REMARK UNBOUND:                 0.000
REMARK  Name = No_3967-gen_results/8p0m/2024-11-27-11-27-31/
REMARK  0 active torsions:
REMARK  status: ('A' for Active; 'I' for Inactive)
REMARK                            x       y       z     vdW  Elec       q    Type
REMARK                         _______ _______ _______ _____ _____    ______ ____
ROOT
ATOM      1  C   UNL A   1     -24.951  -5.389  28.980  0.00  0.00    +0.000 A 
ATOM      2  C   UNL A   1     -24.183  -4.713  28.729  0.00  0.00    +0.000 A 
ATOM      3  C   UNL A   1     -26.109  -4.754  29.607  0.00  0.00    +0.000 A 
ATOM      4  C   UNL A   1     -26.173  -3.399  29.820  0.00  0.00    +0.000 A 
ATOM      5  C   UNL A   1     -23.980  -3.267  28.828  0.00  0.00    +0.000 A 
ATOM      6  C   UNL A   1     -25.096  -2.643  29.434  0.00  0.00    +0.000 A 
ENDROOT
TORSDOF 0
ENDMDL
ENDMDL
