REMARK  Name = outputs/IAG933/test6/raw/output_3968_IAG933_linker_design_.xyz
REMARK  12 active torsions:
REMARK  status: ('A' for Active; 'I' for Inactive)
REMARK    1  A    between atoms: C_1  and  C_2
REMARK    2  A    between atoms: C_1  and  C_8
REMARK    3  A    between atoms: C_1  and  N_30
REMARK    4  A    between atoms: C_14  and  C_15
REMARK    5  A    between atoms: C_15  and  O_18
REMARK    6  A    between atoms: O_18  and  C_36
REMARK    7  A    between atoms: C_21  and  O_22
REMARK    8  A    between atoms: O_22  and  C_23
REMARK    9  A    between atoms: C_23  and  C_24
REMARK   10  A    between atoms: C_29  and  C_38
REMARK   11  A    between atoms: C_36  and  C_38
REMARK   12  A    between atoms: C_38  and  C_43
REMARK                            x       y       z     vdW  Elec       q    Type
REMARK                         _______ _______ _______ _____ _____    ______ ____
ROOT
ATOM      1  C   UNL A   1     -24.836   1.982  29.047  0.00  0.00    +0.147 C 
ENDROOT
BRANCH   1   8
ATOM      2  O   UNL A   1     -21.369   1.830  26.387  0.00  0.00    -0.352 OA
ATOM      3  N   UNL A   1     -23.483   0.315  28.500  0.00  0.00    -0.216 NA
ATOM      4  C   UNL A   1     -23.612   2.084  26.940  0.00  0.00    +0.050 C 
ATOM      5  C   UNL A   1     -21.939   0.810  28.717  0.00  0.00    +0.121 C 
ATOM      6  C   UNL A   1     -22.590   2.269  25.993  0.00  0.00    +0.144 C 
ATOM      7  C   UNL A   1     -21.113   1.635  27.669  0.00  0.00    +0.161 C 
ATOM      8  C   UNL A   1     -24.059   1.490  28.062  0.00  0.00    +0.089 C 
ENDBRANCH   1   8
BRANCH   1   9
ATOM      9  C   UNL A   1     -26.021   1.146  29.280  0.00  0.00    +0.144 C 
ATOM     10  N   UNL A   1     -25.809  -0.123  29.317  0.00  0.00    -0.256 NA
ATOM     11  C   UNL A   1     -28.134   0.069  28.454  0.00  0.00    +0.036 C 
ATOM     12  N   UNL A   1     -27.142   1.764  29.697  0.00  0.00    -0.203 NA
ATOM     13  C   UNL A   1     -28.101   1.462  28.711  0.00  0.00    +0.092 C 
ATOM     14  C   UNL A   1     -26.600  -0.516  28.583  0.00  0.00    +0.075 C 
BRANCH  10  15
ATOM     15  C   UNL A   1     -24.855  -1.012  30.143  0.00  0.00    +0.097 C 
BRANCH  15  16
ATOM     16  C   UNL A   1     -24.973  -2.505  29.788  0.00  0.00    -0.006 C 
ATOM     17  C   UNL A   1     -23.906  -3.173  29.146  0.00  0.00    -0.003 C 
ATOM     18  C   UNL A   1     -23.989  -4.549  28.853  0.00  0.00    -0.000 C 
ATOM     19  C   UNL A   1     -25.137  -5.280  29.205  0.00  0.00    -0.000 C 
ATOM     20  C   UNL A   1     -26.232  -4.611  29.784  0.00  0.00    -0.000 C 
ATOM     21  C   UNL A   1     -26.155  -3.232  30.065  0.00  0.00    -0.003 C 
ENDBRANCH  15  16
BRANCH  15  22
ATOM     22  C   UNL A   1     -25.387  -0.679  31.571  0.00  0.00    +0.092 C 
ATOM     23  C   UNL A   1     -25.189   0.773  32.028  0.00  0.00    +0.021 C 
ATOM     24  C   UNL A   1     -25.336   0.684  33.544  0.00  0.00    +0.020 C 
ATOM     25  C   UNL A   1     -24.829  -0.715  33.905  0.00  0.00    +0.089 C 
ATOM     26  N   UNL A   1     -24.758  -1.481  32.646  0.00  0.00    -0.218 NA
ENDBRANCH  15  22
ENDBRANCH  10  15
ENDBRANCH   1   9
BRANCH   1  27
ATOM     27  C   UNL A   1     -25.284   3.310  29.506  0.00  0.00    +0.326 C 
ATOM     28  O   UNL A   1     -25.689   3.889  30.462  0.00  0.00    -0.249 OA
BRANCH  27  29
ATOM     29  O   UNL A   1     -25.143   3.966  28.243  0.00  0.00    -0.406 OA
BRANCH  29  30
ATOM     30  C   UNL A   1     -25.642   4.093  27.123  0.00  0.00    +0.230 C 
ATOM     31  N   UNL A   1     -25.614   5.252  26.449  0.00  0.00    -0.235 NA
ATOM     32  C   UNL A   1     -25.026   6.479  26.963  0.00  0.00    +0.155 C 
BRANCH  30  34
ATOM     33  C   UNL A   1     -25.688   1.614  26.461  0.00  0.00    +0.041 C 
ATOM     34  C   UNL A   1     -26.250   2.920  26.395  0.00  0.00    +0.075 C 
ATOM     35  C   UNL A   1     -27.438   3.091  25.645  0.00  0.00    +0.107 C 
ATOM     36  N   UNL A   1     -28.075   2.089  25.003  0.00  0.00    -0.208 NA
ATOM     37  C   UNL A   1     -27.543   0.849  25.079  0.00  0.00    +0.253 C 
ATOM     38  C   UNL A   1     -26.354   0.576  25.777  0.00  0.00    +0.193 C 
ATOM     39  F   UNL A   1     -25.860  -0.681  25.795  0.00  0.00    -0.199 F 
BRANCH  37  40
ATOM     40  O   UNL A   1     -28.193  -0.208  24.477  0.00  0.00    -0.456 OA
BRANCH  40  41
ATOM     41  C   UNL A   1     -29.460   0.005  23.866  0.00  0.00    +0.243 C 
BRANCH  41  42
ATOM     42  C   UNL A   1     -30.065  -1.377  23.573  0.00  0.00    +0.229 C 
ATOM     43  O   UNL A   1     -30.729  -1.878  24.721  0.00  0.00    -0.216 OA
ENDBRANCH  41  42
ENDBRANCH  40  41
ENDBRANCH  37  40
ENDBRANCH  30  34
ENDBRANCH  29  30
ENDBRANCH  27  29
ENDBRANCH   1  27
TORSDOF 12
