MODEL 3968
MODEL 1
REMARK VINA RESULT:    -6.892      0.000      0.000
REMARK INTER + INTRA:          -8.716
REMARK INTER:                  -8.101
REMARK INTRA:                  -0.616
REMARK UNBOUND:                -0.616
REMARK  Name = No_3968-gen_results/8p0m/2024-11-27-11-27-31/
REMARK  3 active torsions:
REMARK  status: ('A' for Active; 'I' for Inactive)
REMARK    1  A    between atoms: C_3  and  C_7
REMARK    2  A    between atoms: C_6  and  C_13
REMARK    3  A    between atoms: N_14  and  C_15
REMARK                            x       y       z     vdW  Elec       q    Type
REMARK                         _______ _______ _______ _____ _____    ______ ____
ROOT
ATOM      1  C   UNL A   1     -10.220   1.497  34.897  0.00  0.00    +0.002 A 
ATOM      2  C   UNL A   1      -9.138   1.091  34.539  0.00  0.00    +0.000 A 
ATOM      3  C   UNL A   1      -8.423   0.104  35.216  0.00  0.00    +0.000 A 
ATOM      4  C   UNL A   1      -8.960  -0.437  36.450  0.00  0.00    +0.000 A 
ATOM      5  C   UNL A   1     -10.220   0.092  36.810  0.00  0.00    +0.002 A 
ATOM      6  C   UNL A   1     -10.815   1.026  36.111  0.00  0.00    +0.019 A 
ENDROOT
BRANCH   3   7
ATOM      7  C   UNL A   1      -7.099  -0.451  34.830  0.00  0.00    +0.000 A 
ATOM      8  C   UNL A   1      -6.943  -1.714  34.528  0.00  0.00    +0.000 A 
ATOM      9  C   UNL A   1      -5.645  -2.244  34.225  0.00  0.00    +0.000 A 
ATOM     10  C   UNL A   1      -4.501  -1.528  34.371  0.00  0.00    +0.000 A 
ATOM     11  C   UNL A   1      -5.895   0.340  34.998  0.00  0.00    +0.000 A 
ATOM     12  C   UNL A   1      -4.613  -0.222  34.759  0.00  0.00    +0.000 A 
ENDBRANCH   3   7
BRANCH   6  13
ATOM     13  C   UNL A   1     -12.107   1.561  36.630  0.00  0.00    +0.099 C 
ATOM     14  N   UNL A   1     -12.794   2.482  35.949  0.00  0.00    -0.244 NA
BRANCH  14  15
ATOM     15  C   UNL A   1     -13.943   3.025  36.468  0.00  0.00    +0.081 A 
ATOM     16  C   UNL A   1     -14.240   3.010  37.746  0.00  0.00    +0.019 A 
ATOM     17  C   UNL A   1     -15.480   3.432  38.335  0.00  0.00    +0.002 A 
ATOM     18  C   UNL A   1     -16.459   3.854  37.397  0.00  0.00    +0.000 A 
ATOM     19  C   UNL A   1     -15.020   3.324  35.705  0.00  0.00    +0.019 A 
ATOM     20  C   UNL A   1     -16.205   3.717  36.085  0.00  0.00    +0.002 A 
ENDBRANCH  14  15
ENDBRANCH   6  13
TORSDOF 3
ENDMDL
ENDMDL
