MODEL 3969
MODEL 1
REMARK VINA RESULT:    -5.200      0.000      0.000
REMARK INTER + INTRA:          -6.355
REMARK INTER:                  -6.112
REMARK INTRA:                  -0.243
REMARK UNBOUND:                -0.243
REMARK  Name = No_3969-gen_results/8p0m/2024-11-27-11-27-31/
REMARK  3 active torsions:
REMARK  status: ('A' for Active; 'I' for Inactive)
REMARK    1  A    between atoms: C_6  and  O_7
REMARK    2  A    between atoms: O_7  and  C_9
REMARK    3  A    between atoms: C_10  and  C_11
REMARK                            x       y       z     vdW  Elec       q    Type
REMARK                         _______ _______ _______ _____ _____    ______ ____
ROOT
ATOM      1  C   UNL A   1     -22.323   0.729  28.220  0.00  0.00    +0.038 A 
ATOM      2  C   UNL A   1     -22.430   1.730  27.549  0.00  0.00    +0.015 A 
ATOM      3  C   UNL A   1     -23.561   1.957  26.773  0.00  0.00    +0.058 A 
ATOM      4  C   UNL A   1     -24.622   0.985  26.708  0.00  0.00    +0.015 A 
ATOM      5  C   UNL A   1     -24.406  -0.153  27.495  0.00  0.00    +0.038 A 
ATOM      6  C   UNL A   1     -23.311  -0.328  28.199  0.00  0.00    +0.145 A 
ATOM      7 CL   UNL A   1     -23.829   3.358  25.775  0.00  0.00    -0.082 Cl
ENDROOT
BRANCH   6   8
ATOM      8  O   UNL A   1     -23.163  -1.481  28.907  0.00  0.00    -0.450 OA
BRANCH   8   9
ATOM      9  C   UNL A   1     -23.991  -1.743  29.937  0.00  0.00    +0.179 C 
ATOM     10  C   UNL A   1     -24.729  -2.867  29.695  0.00  0.00    +0.041 C 
BRANCH  10  11
ATOM     11  C   UNL A   1     -24.251  -3.845  28.937  0.00  0.00    +0.003 C 
ATOM     12  C   UNL A   1     -24.736  -5.230  28.971  0.00  0.00    +0.000 C 
ENDBRANCH  10  11
ENDBRANCH   8   9
ENDBRANCH   6   8
TORSDOF 3
ENDMDL
ENDMDL
