REMARK  Name = No_3969-gen_results/8p0m/2024-11-27-11-27-31/
REMARK  3 active torsions:
REMARK  status: ('A' for Active; 'I' for Inactive)
REMARK    1  A    between atoms: C_6  and  O_7
REMARK    2  A    between atoms: O_7  and  C_9
REMARK    3  A    between atoms: C_10  and  C_11
REMARK                            x       y       z     vdW  Elec       q    Type
REMARK                         _______ _______ _______ _____ _____    ______ ____
ROOT
ATOM      1  C   UNL A   1     -28.016  -0.814  28.878  0.00  0.00    +0.038 A 
ATOM      2  C   UNL A   1     -27.064  -0.119  28.608  0.00  0.00    +0.015 A 
ATOM      3  C   UNL A   1     -25.792  -0.430  29.076  0.00  0.00    +0.058 A 
ATOM      4  C   UNL A   1     -25.576  -1.565  29.936  0.00  0.00    +0.015 A 
ATOM      5  C   UNL A   1     -26.735  -2.300  30.217  0.00  0.00    +0.038 A 
ATOM      6  C   UNL A   1     -27.918  -1.954  29.763  0.00  0.00    +0.145 A 
ATOM      7 CL   UNL A   1     -24.350   0.489  28.750  0.00  0.00    -0.082 Cl
ENDROOT
BRANCH   6   8
ATOM      8  O   UNL A   1     -29.000  -2.701  30.115  0.00  0.00    -0.450 OA
BRANCH   8   9
ATOM      9  C   UNL A   1     -30.096  -2.095  30.614  0.00  0.00    +0.179 C 
ATOM     10  C   UNL A   1     -31.223  -2.521  29.971  0.00  0.00    +0.041 C 
BRANCH  10  11
ATOM     11  C   UNL A   1     -31.293  -3.741  29.454  0.00  0.00    +0.003 C 
ATOM     12  C   UNL A   1     -32.336  -4.186  28.522  0.00  0.00    +0.000 C 
ENDBRANCH  10  11
ENDBRANCH   8   9
ENDBRANCH   6   8
TORSDOF 3
