MODEL 396
MODEL 1
REMARK VINA RESULT:    -6.782      0.000      0.000
REMARK INTER + INTRA:         -10.786
REMARK INTER:                  -9.557
REMARK INTRA:                  -1.229
REMARK UNBOUND:                -1.229
REMARK  Name = No_396-gen_results/8p0m/2024-11-27-11-27-31/
REMARK  7 active torsions:
REMARK  status: ('A' for Active; 'I' for Inactive)
REMARK    1  A    between atoms: C_4  and  C_9
REMARK    2  A    between atoms: C_6  and  C_12
REMARK    3  A    between atoms: C_12  and  C_13
REMARK    4  A    between atoms: C_12  and  C_14
REMARK    5  A    between atoms: C_13  and  C_15
REMARK    6  A    between atoms: C_14  and  C_17
REMARK    7  A    between atoms: C_21  and  C_23
REMARK                            x       y       z     vdW  Elec       q    Type
REMARK                         _______ _______ _______ _____ _____    ______ ____
ROOT
ATOM      1  C   UNL A   1     -23.395  -1.416  29.356  0.00  0.00    +0.025 C 
ENDROOT
BRANCH   1   7
ATOM      2  F   UNL A   1     -21.008   2.102  27.405  0.00  0.00    -0.202 F 
ATOM      3  C   UNL A   1     -21.957   1.587  27.441  0.00  0.00    +0.167 A 
ATOM      4  C   UNL A   1     -22.957   1.944  26.713  0.00  0.00    +0.038 A 
ATOM      5  C   UNL A   1     -24.216   1.251  26.749  0.00  0.00    +0.082 A 
ATOM      6  C   UNL A   1     -24.317   0.175  27.653  0.00  0.00    +0.005 A 
ATOM      7  C   UNL A   1     -23.242  -0.255  28.447  0.00  0.00    +0.007 A 
ATOM      8  C   UNL A   1     -22.071   0.402  28.339  0.00  0.00    +0.163 A 
ATOM      9  F   UNL A   1     -21.052   0.051  29.041  0.00  0.00    -0.202 F 
BRANCH   5  10
ATOM     10  C   UNL A   1     -25.350   1.671  25.939  0.00  0.00    +0.388 C 
ATOM     11  O   UNL A   1     -26.008   2.548  26.064  0.00  0.00    -0.241 OA
ATOM     12  O   UNL A   1     -25.716   0.635  25.142  0.00  0.00    -0.241 OA
ENDBRANCH   5  10
ENDBRANCH   1   7
BRANCH   1  13
ATOM     13  C   UNL A   1     -23.682  -2.598  28.897  0.00  0.00    +0.017 C 
BRANCH  13  14
ATOM     14  C   UNL A   1     -24.919  -3.240  29.093  0.00  0.00    +0.068 C 
ATOM     15 BR   UNL A   1     -24.816  -4.956  29.036  0.00  0.00    -0.081 Br
ENDBRANCH  13  14
ENDBRANCH   1  13
BRANCH   1  16
ATOM     16  C   UNL A   1     -23.147  -1.182  30.782  0.00  0.00    +0.006 C 
BRANCH  16  17
ATOM     17  C   UNL A   1     -23.957  -0.189  31.350  0.00  0.00    +0.018 C 
ATOM     18  C   UNL A   1     -25.161  -0.830  31.842  0.00  0.00    +0.089 C 
ATOM     19  N   UNL A   1     -25.902  -0.129  32.777  0.00  0.00    -0.218 NA
ATOM     20  C   UNL A   1     -26.211   1.130  32.542  0.00  0.00    +0.096 C 
ATOM     21  C   UNL A   1     -25.015   1.926  32.094  0.00  0.00    +0.082 C 
ATOM     22  C   UNL A   1     -23.921   1.201  31.474  0.00  0.00    +0.011 C 
BRANCH  21  23
ATOM     23  C   UNL A   1     -24.958   3.343  32.170  0.00  0.00    +0.208 C 
ATOM     24  O   UNL A   1     -24.065   3.940  32.007  0.00  0.00    -0.288 OA
ENDBRANCH  21  23
ENDBRANCH  16  17
ENDBRANCH   1  16
TORSDOF 7
ENDMDL
ENDMDL
