REMARK  Name = outputs/IAG933/test6/raw/output_397_IAG933_linker_design_.xyz
REMARK  11 active torsions:
REMARK  status: ('A' for Active; 'I' for Inactive)
REMARK    1  A    between atoms: C_1  and  C_2
REMARK    2  A    between atoms: C_1  and  C_8
REMARK    3  A    between atoms: C_1  and  C_43
REMARK    4  A    between atoms: C_9  and  C_29
REMARK    5  A    between atoms: C_13  and  C_40
REMARK    6  A    between atoms: C_14  and  C_15
REMARK    7  A    between atoms: C_21  and  O_22
REMARK    8  A    between atoms: O_22  and  C_23
REMARK    9  A    between atoms: C_23  and  C_24
REMARK   10  A    between atoms: C_29  and  C_45
REMARK   11  A    between atoms: C_34  and  C_45
REMARK                            x       y       z     vdW  Elec       q    Type
REMARK                         _______ _______ _______ _____ _____    ______ ____
ROOT
ATOM      1  O   UNL A   1     -20.718  -0.178  28.585  0.00  0.00    -0.271 OA
ATOM      2  N   UNL A   1     -24.576   0.583  28.254  0.00  0.00    -0.116 NA
ATOM      3  C   UNL A   1     -23.320   1.269  26.457  0.00  0.00    +0.175 C 
ATOM      4  N   UNL A   1     -22.734  -0.079  29.477  0.00  0.00    -0.162 NA
ATOM      5  O   UNL A   1     -23.170   1.582  25.148  0.00  0.00    -0.324 OA
ATOM      6  O   UNL A   1     -21.363   1.706  26.630  0.00  0.00    -0.317 OA
ATOM      7  C   UNL A   1     -22.261   1.044  27.300  0.00  0.00    +0.224 C 
ATOM      8  C   UNL A   1     -21.951   0.418  28.499  0.00  0.00    +0.274 C 
ATOM      9  O   UNL A   1     -24.400  -0.382  28.121  0.00  0.00    -0.245 OA
ATOM     10  C   UNL A   1     -24.517   1.200  27.105  0.00  0.00    +0.143 C 
ATOM     11  C   UNL A   1     -22.201   2.305  25.430  0.00  0.00    +0.294 C 
ATOM     12  C   UNL A   1     -24.299  -0.065  28.886  0.00  0.00    +0.267 C 
ENDROOT
BRANCH  10  13
ATOM     13  C   UNL A   1     -25.688   1.614  26.461  0.00  0.00    +0.035 C 
ATOM     14  C   UNL A   1     -26.250   2.920  26.395  0.00  0.00    +0.074 C 
ATOM     15  C   UNL A   1     -27.438   3.091  25.645  0.00  0.00    +0.106 C 
ATOM     16  N   UNL A   1     -28.075   2.089  25.003  0.00  0.00    -0.208 NA
ATOM     17  C   UNL A   1     -27.543   0.849  25.079  0.00  0.00    +0.253 C 
ATOM     18  C   UNL A   1     -26.354   0.576  25.777  0.00  0.00    +0.191 C 
ATOM     19  F   UNL A   1     -25.860  -0.681  25.795  0.00  0.00    -0.200 F 
BRANCH  14  20
ATOM     20  C   UNL A   1     -25.642   4.093  27.123  0.00  0.00    +0.266 C 
ATOM     21  N   UNL A   1     -25.614   5.252  26.449  0.00  0.00    -0.200 NA
ATOM     22  C   UNL A   1     -25.026   6.479  26.963  0.00  0.00    +0.139 C 
ATOM     23  O   UNL A   1     -25.143   3.966  28.243  0.00  0.00    -0.268 OA
ENDBRANCH  14  20
BRANCH  17  24
ATOM     24  O   UNL A   1     -28.193  -0.208  24.477  0.00  0.00    -0.456 OA
BRANCH  24  25
ATOM     25  C   UNL A   1     -29.460   0.005  23.866  0.00  0.00    +0.243 C 
BRANCH  25  26
ATOM     26  C   UNL A   1     -30.065  -1.377  23.573  0.00  0.00    +0.229 C 
ATOM     27  O   UNL A   1     -30.729  -1.878  24.721  0.00  0.00    -0.216 OA
ENDBRANCH  25  26
ENDBRANCH  24  25
ENDBRANCH  17  24
ENDBRANCH  10  13
BRANCH  12  28
ATOM     28  C   UNL A   1     -24.855  -1.012  30.143  0.00  0.00    +0.102 C 
BRANCH  28  29
ATOM     29  C   UNL A   1     -24.973  -2.505  29.788  0.00  0.00    -0.016 C 
ATOM     30  C   UNL A   1     -23.906  -3.173  29.146  0.00  0.00    -0.004 C 
ATOM     31  C   UNL A   1     -23.989  -4.549  28.853  0.00  0.00    -0.000 C 
ATOM     32  C   UNL A   1     -25.137  -5.280  29.205  0.00  0.00    -0.000 C 
ATOM     33  C   UNL A   1     -26.232  -4.611  29.784  0.00  0.00    -0.000 C 
ATOM     34  C   UNL A   1     -26.155  -3.232  30.065  0.00  0.00    -0.004 C 
ENDBRANCH  28  29
BRANCH  28  35
ATOM     35  C   UNL A   1     -25.387  -0.679  31.571  0.00  0.00    +0.084 C 
ATOM     36  C   UNL A   1     -25.189   0.773  32.028  0.00  0.00    +0.036 C 
ATOM     37  C   UNL A   1     -25.336   0.684  33.544  0.00  0.00    +0.022 C 
ATOM     38  C   UNL A   1     -24.829  -0.715  33.905  0.00  0.00    +0.089 C 
ATOM     39  N   UNL A   1     -24.758  -1.481  32.646  0.00  0.00    -0.219 NA
BRANCH  36  40
ATOM     40  C   UNL A   1     -25.640   2.243  31.055  0.00  0.00    +0.104 C 
ATOM     41  N   UNL A   1     -26.640   1.902  29.887  0.00  0.00    -0.132 NA
BRANCH  40  42
ATOM     42  C   UNL A   1     -25.995   3.771  31.226  0.00  0.00    +0.133 C 
BRANCH  42  43
ATOM     43  C   UNL A   1     -25.142   4.363  32.305  0.00  0.00    +0.366 C 
ATOM     44  O   UNL A   1     -24.112   3.834  32.547  0.00  0.00    -0.246 OA
ATOM     45  O   UNL A   1     -25.487   5.390  32.921  0.00  0.00    -0.246 OA
ENDBRANCH  42  43
ENDBRANCH  40  42
ENDBRANCH  36  40
ENDBRANCH  28  35
ENDBRANCH  12  28
TORSDOF 11
