REMARK  Name = No_3970-gen_results/8p0m/2024-11-27-11-27-31/
REMARK  3 active torsions:
REMARK  status: ('A' for Active; 'I' for Inactive)
REMARK    1  A    between atoms: C_2  and  O_7
REMARK    2  A    between atoms: O_7  and  C_8
REMARK    3  A    between atoms: C_9  and  C_10
REMARK                            x       y       z     vdW  Elec       q    Type
REMARK                         _______ _______ _______ _____ _____    ______ ____
ROOT
ATOM      1  C   UNL A   1     -28.016  -0.814  28.878  0.00  0.00    +0.037 A 
ATOM      2  C   UNL A   1     -28.469  -0.785  29.829  0.00  0.00    +0.145 A 
ATOM      3  C   UNL A   1     -26.546  -0.876  28.850  0.00  0.00    +0.003 A 
ATOM      4  C   UNL A   1     -25.804  -1.032  30.057  0.00  0.00    +0.000 A 
ATOM      5  C   UNL A   1     -27.944  -0.987  31.207  0.00  0.00    +0.037 A 
ATOM      6  C   UNL A   1     -26.582  -1.039  31.223  0.00  0.00    +0.003 A 
ENDROOT
BRANCH   2   7
ATOM      7  O   UNL A   1     -29.927  -0.726  29.877  0.00  0.00    -0.450 OA
BRANCH   7   8
ATOM      8  C   UNL A   1     -30.526   0.422  30.241  0.00  0.00    +0.179 C 
ATOM      9  C   UNL A   1     -31.609   0.542  29.985  0.00  0.00    +0.041 C 
BRANCH   9  10
ATOM     10  C   UNL A   1     -32.444  -0.451  29.326  0.00  0.00    +0.003 C 
ATOM     11  C   UNL A   1     -31.738  -1.557  28.959  0.00  0.00    +0.000 C 
ENDBRANCH   9  10
ENDBRANCH   7   8
ENDBRANCH   2   7
TORSDOF 3
