MODEL 3971
MODEL 1
REMARK VINA RESULT:    -4.670      0.000      0.000
REMARK INTER + INTRA:          -4.670
REMARK INTER:                  -4.670
REMARK INTRA:                   0.000
REMARK UNBOUND:                 0.000
REMARK  Name = No_3971-gen_results/8p0m/2024-11-27-11-27-31/
REMARK  0 active torsions:
REMARK  status: ('A' for Active; 'I' for Inactive)
REMARK                            x       y       z     vdW  Elec       q    Type
REMARK                         _______ _______ _______ _____ _____    ______ ____
ROOT
ATOM      1  C   UNL A   1      -9.163  -9.885  18.210  0.00  0.00    -0.026 C 
ATOM      2  C   UNL A   1     -10.143 -10.222  18.020  0.00  0.00    +0.097 C 
ATOM      3  C   UNL A   1      -8.643  -8.904  17.300  0.00  0.00    +0.023 C 
ATOM      4  C   UNL A   1      -7.370  -8.208  17.580  0.00  0.00    +0.004 C 
ATOM      5  C   UNL A   1      -6.980  -8.009  18.917  0.00  0.00    +0.001 C 
ATOM      6  C   UNL A   1      -7.711  -8.641  19.943  0.00  0.00    +0.004 C 
ATOM      7  C   UNL A   1      -8.780  -9.406  19.656  0.00  0.00    +0.023 C 
ATOM      8  N   UNL A   1     -10.715 -10.471  16.952  0.00  0.00    -0.127 NA
ENDROOT
TORSDOF 0
ENDMDL
ENDMDL
