REMARK  Name = No_3971-gen_results/8p0m/2024-11-27-11-27-31/
REMARK  0 active torsions:
REMARK  status: ('A' for Active; 'I' for Inactive)
REMARK                            x       y       z     vdW  Elec       q    Type
REMARK                         _______ _______ _______ _____ _____    ______ ____
ROOT
ATOM      1  C   UNL A   1     -28.016  -0.814  28.878  0.00  0.00    -0.026 C 
ATOM      2  C   UNL A   1     -28.469  -0.785  29.829  0.00  0.00    +0.097 C 
ATOM      3  C   UNL A   1     -28.196   0.348  28.055  0.00  0.00    +0.023 C 
ATOM      4  C   UNL A   1     -27.442   0.510  26.795  0.00  0.00    +0.004 C 
ATOM      5  C   UNL A   1     -26.169  -0.079  26.679  0.00  0.00    +0.001 C 
ATOM      6  C   UNL A   1     -25.731  -0.961  27.688  0.00  0.00    +0.004 C 
ATOM      7  C   UNL A   1     -26.504  -1.222  28.758  0.00  0.00    +0.023 C 
ATOM      8  N   UNL A   1     -29.564  -0.333  30.184  0.00  0.00    -0.127 NA
ENDROOT
TORSDOF 0
