MODEL 3972
MODEL 1
REMARK VINA RESULT:    -7.024      0.000      0.000
REMARK INTER + INTRA:          -9.530
REMARK INTER:                  -8.256
REMARK INTRA:                  -1.273
REMARK UNBOUND:                -1.273
REMARK  Name = No_3972-gen_results/8p0m/2024-11-27-11-27-31/
REMARK  3 active torsions:
REMARK  status: ('A' for Active; 'I' for Inactive)
REMARK    1  A    between atoms: C_6  and  C_10
REMARK    2  A    between atoms: N_11  and  C_16
REMARK    3  A    between atoms: C_20  and  C_22
REMARK                            x       y       z     vdW  Elec       q    Type
REMARK                         _______ _______ _______ _____ _____    ______ ____
ROOT
ATOM      1  C   UNL A   1     -24.340   0.694  26.263  0.00  0.00    +0.098 C 
ATOM      2  N   UNL A   1     -24.095   0.342  27.485  0.00  0.00    -0.305 N 
ATOM      3  C   UNL A   1     -23.177   0.913  28.179  0.00  0.00    +0.091 C 
ATOM      4  C   UNL A   1     -22.452   1.868  27.769  0.00  0.00    +0.021 C 
ATOM      5  C   UNL A   1     -22.458   2.135  26.370  0.00  0.00    +0.004 C 
ATOM      6  C   UNL A   1     -23.499   1.560  25.526  0.00  0.00    +0.024 C 
ENDROOT
BRANCH   1  12
ATOM      7  C   UNL A   1     -27.754   2.008  26.305  0.00  0.00    +0.037 A 
ATOM      8  C   UNL A   1     -26.715   1.877  26.428  0.00  0.00    +0.138 A 
ATOM      9  C   UNL A   1     -28.426   1.098  25.364  0.00  0.00    +0.047 A 
ATOM     10  C   UNL A   1     -27.715   0.014  24.771  0.00  0.00    +0.064 A 
ATOM     11  C   UNL A   1     -26.379  -0.065  25.072  0.00  0.00    +0.011 A 
ATOM     12  C   UNL A   1     -25.807   0.813  25.923  0.00  0.00    +0.024 A 
ATOM     13 CL   UNL A   1     -28.461  -1.036  23.712  0.00  0.00    -0.082 Cl
ATOM     14  F   UNL A   1     -26.021   2.761  27.347  0.00  0.00    -0.204 F 
ATOM     15 BR   UNL A   1     -30.282   1.191  24.853  0.00  0.00    -0.048 Br
ENDBRANCH   1  12
BRANCH   2  16
ATOM     16  C   UNL A   1     -24.942  -0.712  28.092  0.00  0.00    +0.048 A 
ATOM     17  C   UNL A   1     -25.773  -0.261  29.094  0.00  0.00    +0.015 A 
ATOM     18  C   UNL A   1     -26.477  -1.147  29.763  0.00  0.00    +0.002 A 
ATOM     19  C   UNL A   1     -26.233  -2.161  29.947  0.00  0.00    +0.007 A 
ATOM     20  C   UNL A   1     -25.300  -2.884  29.023  0.00  0.00    +0.081 A 
ATOM     21  C   UNL A   1     -24.605  -2.036  28.158  0.00  0.00    +0.021 A 
BRANCH  20  22
ATOM     22  C   UNL A   1     -25.065  -4.349  29.085  0.00  0.00    +0.388 C 
ATOM     23  O   UNL A   1     -25.744  -5.082  29.679  0.00  0.00    -0.241 OA
ATOM     24  O   UNL A   1     -23.794  -4.725  28.705  0.00  0.00    -0.241 OA
ENDBRANCH  20  22
ENDBRANCH   2  16
TORSDOF 3
ENDMDL
ENDMDL
