REMARK  Name = No_3972-gen_results/8p0m/2024-11-27-11-27-31/
REMARK  3 active torsions:
REMARK  status: ('A' for Active; 'I' for Inactive)
REMARK    1  A    between atoms: C_6  and  C_10
REMARK    2  A    between atoms: N_11  and  C_16
REMARK    3  A    between atoms: C_20  and  C_22
REMARK                            x       y       z     vdW  Elec       q    Type
REMARK                         _______ _______ _______ _____ _____    ______ ____
ROOT
ATOM      1  C   UNL A   1     -28.675  -0.988  32.472  0.00  0.00    +0.098 C 
ATOM      2  N   UNL A   1     -28.155  -0.309  33.445  0.00  0.00    -0.305 N 
ATOM      3  C   UNL A   1     -28.104  -0.776  34.641  0.00  0.00    +0.091 C 
ATOM      4  C   UNL A   1     -28.518  -1.923  34.985  0.00  0.00    +0.021 C 
ATOM      5  C   UNL A   1     -29.343  -2.622  34.058  0.00  0.00    +0.004 C 
ATOM      6  C   UNL A   1     -29.413  -2.178  32.670  0.00  0.00    +0.024 C 
ENDROOT
BRANCH   1  12
ATOM      7  C   UNL A   1     -28.016  -0.814  28.878  0.00  0.00    +0.037 A 
ATOM      8  C   UNL A   1     -28.469  -0.785  29.829  0.00  0.00    +0.138 A 
ATOM      9  C   UNL A   1     -26.546  -0.876  28.850  0.00  0.00    +0.047 A 
ATOM     10  C   UNL A   1     -25.804  -1.032  30.057  0.00  0.00    +0.064 A 
ATOM     11  C   UNL A   1     -26.537  -1.039  31.217  0.00  0.00    +0.011 A 
ATOM     12  C   UNL A   1     -27.884  -0.953  31.186  0.00  0.00    +0.024 A 
ATOM     13 CL   UNL A   1     -24.139  -1.118  30.046  0.00  0.00    -0.082 Cl
ATOM     14  F   UNL A   1     -29.918  -0.721  29.892  0.00  0.00    -0.204 F 
ATOM     15 BR   UNL A   1     -25.455  -0.812  27.262  0.00  0.00    -0.048 Br
ENDBRANCH   1  12
BRANCH   2  16
ATOM     16  C   UNL A   1     -27.565   1.015  33.136  0.00  0.00    +0.048 A 
ATOM     17  C   UNL A   1     -28.332   2.084  33.544  0.00  0.00    +0.015 A 
ATOM     18  C   UNL A   1     -27.939   3.294  33.212  0.00  0.00    +0.002 A 
ATOM     19  C   UNL A   1     -27.372   3.579  32.363  0.00  0.00    +0.007 A 
ATOM     20  C   UNL A   1     -26.481   2.579  31.690  0.00  0.00    +0.081 A 
ATOM     21  C   UNL A   1     -26.719   1.263  32.089  0.00  0.00    +0.021 A 
BRANCH  20  22
ATOM     22  C   UNL A   1     -25.505   2.942  30.631  0.00  0.00    +0.388 C 
ATOM     23  O   UNL A   1     -25.307   4.035  30.289  0.00  0.00    -0.241 OA
ATOM     24  O   UNL A   1     -25.129   1.881  29.834  0.00  0.00    -0.241 OA
ENDBRANCH  20  22
ENDBRANCH   2  16
TORSDOF 3
