MODEL 3973
MODEL 1
REMARK VINA RESULT:    -5.245      0.000      0.000
REMARK INTER + INTRA:          -6.182
REMARK INTER:                  -5.859
REMARK INTRA:                  -0.323
REMARK UNBOUND:                -0.323
REMARK  Name = No_3973-gen_results/8p0m/2024-11-27-11-27-31/
REMARK  2 active torsions:
REMARK  status: ('A' for Active; 'I' for Inactive)
REMARK    1  A    between atoms: C_3  and  C_4
REMARK    2  A    between atoms: C_4  and  C_8
REMARK                            x       y       z     vdW  Elec       q    Type
REMARK                         _______ _______ _______ _____ _____    ______ ____
ROOT
ATOM      1  C   UNL A   1     -26.443  -3.470  29.941  0.00  0.00    -0.000 A 
ATOM      2  C   UNL A   1     -25.573  -2.638  29.832  0.00  0.00    -0.004 A 
ATOM      3  C   UNL A   1     -24.358  -2.943  29.228  0.00  0.00    -0.018 A 
ATOM      4  C   UNL A   1     -26.152  -4.877  29.656  0.00  0.00    -0.000 A 
ATOM      5  C   UNL A   1     -25.023  -5.255  28.973  0.00  0.00    -0.000 A 
ATOM      6  C   UNL A   1     -24.056  -4.272  28.747  0.00  0.00    -0.004 A 
ENDROOT
BRANCH   3   7
ATOM      7  C   UNL A   1     -23.334  -1.985  29.010  0.00  0.00    +0.052 C 
BRANCH   7   8
ATOM      8  C   UNL A   1     -23.473  -0.611  29.131  0.00  0.00    -0.026 C 
ATOM      9  C   UNL A   1     -23.074   0.060  30.283  0.00  0.00    -0.030 C 
ATOM     10  C   UNL A   1     -22.731  -0.736  31.471  0.00  0.00    +0.030 C 
ENDBRANCH   7   8
ENDBRANCH   3   7
TORSDOF 2
ENDMDL
ENDMDL
