MODEL 3974
MODEL 1
REMARK VINA RESULT:    -5.488      0.000      0.000
REMARK INTER + INTRA:          -5.488
REMARK INTER:                  -5.488
REMARK INTRA:                   0.000
REMARK UNBOUND:                 0.000
REMARK  Name = No_3974-gen_results/8p0m/2024-11-27-11-27-31/
REMARK  0 active torsions:
REMARK  status: ('A' for Active; 'I' for Inactive)
REMARK                            x       y       z     vdW  Elec       q    Type
REMARK                         _______ _______ _______ _____ _____    ______ ____
ROOT
ATOM      1 BR   UNL A   1     -26.281   0.522  25.054  0.00  0.00    -0.049 Br
ATOM      2  C   UNL A   1     -25.109   0.874  26.167  0.00  0.00    +0.035 A 
ATOM      3  C   UNL A   1     -24.668   0.119  27.107  0.00  0.00    +0.006 A 
ATOM      4  C   UNL A   1     -25.253  -0.910  27.497  0.00  0.00    +0.001 A 
ATOM      5  C   UNL A   1     -24.837  -1.780  28.579  0.00  0.00    +0.000 A 
ATOM      6  C   UNL A   1     -23.627  -1.475  29.177  0.00  0.00    -0.000 A 
ATOM      7  C   UNL A   1     -22.886  -0.390  28.790  0.00  0.00    -0.000 A 
ATOM      8  C   UNL A   1     -23.394   0.422  27.737  0.00  0.00    -0.004 A 
ATOM      9  C   UNL A   1     -24.405   2.202  25.875  0.00  0.00    +0.006 A 
ATOM     10  C   UNL A   1     -23.108   2.236  25.763  0.00  0.00    -0.004 A 
ATOM     11  C   UNL A   1     -22.494   1.494  27.128  0.00  0.00    -0.022 A 
ATOM     12  C   UNL A   1     -21.181   1.785  27.636  0.00  0.00    +0.031 C 
ENDROOT
TORSDOF 0
ENDMDL
ENDMDL
