MODEL 3975
MODEL 1
REMARK VINA RESULT:    -8.771      0.000      0.000
REMARK INTER + INTRA:         -15.032
REMARK INTER:                 -12.873
REMARK INTRA:                  -2.158
REMARK UNBOUND:                -2.158
REMARK  Name = No_3975-gen_results/8p0m/2024-11-27-11-27-31/
REMARK  8 active torsions:
REMARK  status: ('A' for Active; 'I' for Inactive)
REMARK    1  A    between atoms: C_3  and  C_8
REMARK    2  A    between atoms: C_7  and  C_14
REMARK    3  A    between atoms: C_11  and  C_17
REMARK    4  A    between atoms: C_14  and  O_15
REMARK    5  A    between atoms: C_17  and  C_18
REMARK    6  A    between atoms: C_18  and  C_19
REMARK    7  A    between atoms: C_23  and  C_26
REMARK    8  A    between atoms: N_27  and  C_28
REMARK                            x       y       z     vdW  Elec       q    Type
REMARK                         _______ _______ _______ _____ _____    ______ ____
ROOT
ATOM      1  C   UNL A   1     -23.697   2.582  25.533  0.00  0.00    +0.188 C 
ATOM      2  F   UNL A   1     -22.944   2.071  24.773  0.00  0.00    -0.232 F 
ENDROOT
BRANCH   1   6
ATOM      3  C   UNL A   1     -27.693   1.253  25.239  0.00  0.00    -0.014 A 
ATOM      4  C   UNL A   1     -27.454   2.491  25.655  0.00  0.00    -0.004 A 
ATOM      5  C   UNL A   1     -26.173   2.948  25.806  0.00  0.00    -0.002 A 
ATOM      6  C   UNL A   1     -25.080   2.085  25.460  0.00  0.00    +0.010 A 
ATOM      7  C   UNL A   1     -26.622   0.299  24.934  0.00  0.00    -0.004 A 
ATOM      8  C   UNL A   1     -25.330   0.752  25.038  0.00  0.00    -0.002 A 
BRANCH   3  11
ATOM      9  O   UNL A   1     -28.911   0.011  27.388  0.00  0.00    -0.273 OA
ATOM     10  C   UNL A   1     -29.541   0.168  26.336  0.00  0.00    +0.245 C 
ATOM     11  C   UNL A   1     -29.076   0.689  25.261  0.00  0.00    +0.101 C 
ATOM     12  N   UNL A   1     -30.879  -0.377  26.214  0.00  0.00    -0.205 NA
ATOM     13  C   UNL A   1     -29.794   0.905  24.023  0.00  0.00    +0.018 C 
ATOM     14  C   UNL A   1     -31.664  -0.269  25.057  0.00  0.00    +0.118 C 
ATOM     15  C   UNL A   1     -31.120   0.377  23.955  0.00  0.00    +0.052 C 
BRANCH  15  16
ATOM     16  C   UNL A   1     -31.982   0.495  22.764  0.00  0.00    +0.144 C 
BRANCH  16  17
ATOM     17  O   UNL A   1     -32.383   1.648  22.345  0.00  0.00    -0.351 OA
ATOM     18  C   UNL A   1     -32.408   1.860  20.950  0.00  0.00    +0.174 C 
ENDBRANCH  16  17
ENDBRANCH  15  16
ENDBRANCH   3  11
ENDBRANCH   1   6
BRANCH   1  19
ATOM     19  C   UNL A   1     -23.231   2.759  26.720  0.00  0.00    +0.066 C 
BRANCH  19  20
ATOM     20  C   UNL A   1     -22.639   1.716  27.400  0.00  0.00    -0.019 A 
ATOM     21  C   UNL A   1     -21.199   1.563  27.444  0.00  0.00    -0.004 A 
ATOM     22  C   UNL A   1     -20.518   0.532  28.210  0.00  0.00    -0.000 A 
ATOM     23  C   UNL A   1     -21.359  -0.345  28.976  0.00  0.00    +0.005 A 
ATOM     24  C   UNL A   1     -22.743  -0.148  28.990  0.00  0.00    +0.055 A 
ATOM     25  C   UNL A   1     -23.332   0.853  28.263  0.00  0.00    +0.000 A 
BRANCH  24  26
ATOM     26  C   UNL A   1     -23.336  -1.165  29.851  0.00  0.00    +0.269 C 
ATOM     27  N   UNL A   1     -24.223  -1.829  29.352  0.00  0.00    -0.175 NA
ATOM     28  O   UNL A   1     -22.947  -1.309  31.022  0.00  0.00    -0.268 OA
BRANCH  27  29
ATOM     29  C   UNL A   1     -24.629  -2.747  29.406  0.00  0.00    +0.073 A 
ATOM     30  C   UNL A   1     -24.100  -3.980  28.934  0.00  0.00    +0.017 A 
ATOM     31  C   UNL A   1     -26.058  -2.935  29.922  0.00  0.00    +0.012 A 
ATOM     32  C   UNL A   1     -26.740  -4.155  30.005  0.00  0.00    -0.021 A 
ATOM     33  C   UNL A   1     -26.084  -5.298  29.512  0.00  0.00    -0.004 A 
ATOM     34  C   UNL A   1     -24.822  -5.199  28.990  0.00  0.00    +0.001 A 
ATOM     35  C   UNL A   1     -28.127  -4.207  30.461  0.00  0.00    +0.031 C 
ENDBRANCH  27  29
ENDBRANCH  24  26
ENDBRANCH  19  20
ENDBRANCH   1  19
TORSDOF 8
ENDMDL
ENDMDL
