MODEL 3976
MODEL 1
REMARK VINA RESULT:    -5.681      0.000      0.000
REMARK INTER + INTRA:          -6.493
REMARK INTER:                  -6.345
REMARK INTRA:                  -0.148
REMARK UNBOUND:                -0.148
REMARK  Name = No_3976-gen_results/8p0m/2024-11-27-11-27-31/
REMARK  2 active torsions:
REMARK  status: ('A' for Active; 'I' for Inactive)
REMARK    1  A    between atoms: C_9  and  C_11
REMARK    2  A    between atoms: C_10  and  C_12
REMARK                            x       y       z     vdW  Elec       q    Type
REMARK                         _______ _______ _______ _____ _____    ______ ____
ROOT
ATOM      1  C   UNL A   1     -10.075   2.626  10.707  0.00  0.00    +0.000 A 
ATOM      2  C   UNL A   1     -10.234   2.445  11.733  0.00  0.00    +0.000 A 
ATOM      3  C   UNL A   1      -9.033   1.919  10.068  0.00  0.00    +0.000 A 
ATOM      4  C   UNL A   1      -8.230   1.026  10.750  0.00  0.00    +0.006 A 
ATOM      5  C   UNL A   1      -8.512   0.844  12.094  0.00  0.00    +0.000 A 
ATOM      6  C   UNL A   1      -9.570   1.535  12.655  0.00  0.00    +0.000 A 
ATOM      7  C   UNL A   1      -8.721   2.061   8.601  0.00  0.00    +0.000 A 
ATOM      8  C   UNL A   1      -7.707   1.208   8.093  0.00  0.00    +0.004 A 
ATOM      9  C   UNL A   1      -6.958   0.351   8.867  0.00  0.00    +0.049 A 
ATOM     10  C   UNL A   1      -7.194   0.230  10.131  0.00  0.00    +0.083 A 
ENDROOT
BRANCH  10  11
ATOM     11  C   UNL A   1      -6.365  -0.754  10.979  0.00  0.00    +0.388 C 
ATOM     12  O   UNL A   1      -6.809  -1.928  11.226  0.00  0.00    -0.241 OA
ATOM     13  O   UNL A   1      -5.364  -0.236  11.690  0.00  0.00    -0.241 OA
ENDBRANCH  10  11
BRANCH   9  14
ATOM     14  C   UNL A   1      -5.875  -0.394   8.114  0.00  0.00    +0.234 C 
ATOM     15  O   UNL A   1      -5.033  -0.015   7.704  0.00  0.00    -0.283 OA
ENDBRANCH   9  14
TORSDOF 2
ENDMDL
ENDMDL
