REMARK  Name = No_3977-gen_results/8p0m/2024-11-27-11-27-31/
REMARK  3 active torsions:
REMARK  status: ('A' for Active; 'I' for Inactive)
REMARK    1  A    between atoms: C_2  and  C_7
REMARK    2  A    between atoms: C_4  and  C_18
REMARK    3  A    between atoms: N_8  and  C_9
REMARK                            x       y       z     vdW  Elec       q    Type
REMARK                         _______ _______ _______ _____ _____    ______ ____
ROOT
ATOM      1  C   UNL A   1     -28.016  -0.814  28.878  0.00  0.00    +0.005 A 
ATOM      2  C   UNL A   1     -28.469  -0.785  29.829  0.00  0.00    +0.055 A 
ATOM      3  C   UNL A   1     -26.504  -0.778  28.877  0.00  0.00    +0.000 A 
ATOM      4  C   UNL A   1     -25.810  -0.853  30.103  0.00  0.00    +0.000 A 
ATOM      5  C   UNL A   1     -27.991  -0.892  31.226  0.00  0.00    +0.005 A 
ATOM      6  C   UNL A   1     -26.604  -0.868  31.265  0.00  0.00    +0.000 A 
ENDROOT
BRANCH   4   7
ATOM      7  C   UNL A   1     -24.388  -0.849  30.137  0.00  0.00    +0.000 A 
ATOM      8  C   UNL A   1     -23.676  -1.317  30.791  0.00  0.00    +0.000 A 
ATOM      9  C   UNL A   1     -23.791  -0.034  28.996  0.00  0.00    +0.000 A 
ATOM     10  C   UNL A   1     -22.379   0.125  28.987  0.00  0.00    +0.000 A 
ATOM     11  C   UNL A   1     -22.213  -1.244  30.939  0.00  0.00    +0.000 A 
ATOM     12  C   UNL A   1     -21.631  -0.509  29.893  0.00  0.00    +0.000 A 
ENDBRANCH   4   7
BRANCH   2  13
ATOM     13  C   UNL A   1     -30.074  -0.836  29.861  0.00  0.00    +0.270 C 
ATOM     14  N   UNL A   1     -30.717   0.096  30.478  0.00  0.00    -0.154 NA
ATOM     15  O   UNL A   1     -30.679  -1.561  29.125  0.00  0.00    -0.268 OA
BRANCH  14  16
ATOM     16  C   UNL A   1     -31.424   0.859  30.226  0.00  0.00    +0.186 A 
ATOM     17  C   UNL A   1     -32.093   1.830  31.110  0.00  0.00    +0.193 A 
ATOM     18  N   UNL A   1     -31.803   1.008  28.846  0.00  0.00    -0.192 NA
ATOM     19  F   UNL A   1     -31.860   1.694  32.305  0.00  0.00    -0.200 F 
ATOM     20  C   UNL A   1     -32.946   2.813  30.658  0.00  0.00    +0.134 A 
ATOM     21  N   UNL A   1     -33.233   2.842  29.330  0.00  0.00    -0.207 NA
ATOM     22  C   UNL A   1     -32.629   1.978  28.443  0.00  0.00    +0.258 A 
ATOM     23  N   UNL A   1     -32.900   2.018  27.116  0.00  0.00    -0.086 NA
ENDBRANCH  14  16
ENDBRANCH   2  13
TORSDOF 3
