MODEL 3977
MODEL 1
REMARK VINA RESULT:    -7.558      0.000      0.000
REMARK INTER + INTRA:          -9.719
REMARK INTER:                  -8.883
REMARK INTRA:                  -0.835
REMARK UNBOUND:                -0.835
REMARK  Name = No_3977-gen_results/8p0m/2024-11-27-11-27-31/
REMARK  3 active torsions:
REMARK  status: ('A' for Active; 'I' for Inactive)
REMARK    1  A    between atoms: C_2  and  C_7
REMARK    2  A    between atoms: C_4  and  C_18
REMARK    3  A    between atoms: N_8  and  C_9
REMARK                            x       y       z     vdW  Elec       q    Type
REMARK                         _______ _______ _______ _____ _____    ______ ____
ROOT
ATOM      1  C   UNL A   1     -26.415   2.173  25.572  0.00  0.00    +0.005 A 
ATOM      2  C   UNL A   1     -25.702   1.418  25.388  0.00  0.00    +0.055 A 
ATOM      3  C   UNL A   1     -27.791   1.922  24.996  0.00  0.00    +0.000 A 
ATOM      4  C   UNL A   1     -28.072   0.677  24.397  0.00  0.00    +0.000 A 
ATOM      5  C   UNL A   1     -25.743   0.045  24.836  0.00  0.00    +0.005 A 
ATOM      6  C   UNL A   1     -26.995  -0.224  24.302  0.00  0.00    +0.000 A 
ENDROOT
BRANCH   4   7
ATOM      7  C   UNL A   1     -29.364   0.397  23.869  0.00  0.00    +0.000 A 
ATOM      8  C   UNL A   1     -30.114   1.019  23.419  0.00  0.00    +0.000 A 
ATOM      9  C   UNL A   1     -29.706  -1.086  23.952  0.00  0.00    +0.000 A 
ATOM     10  C   UNL A   1     -31.013  -1.469  23.547  0.00  0.00    +0.000 A 
ATOM     11  C   UNL A   1     -31.501   0.800  22.975  0.00  0.00    +0.000 A 
ATOM     12  C   UNL A   1     -31.843  -0.562  23.027  0.00  0.00    +0.000 A 
ENDBRANCH   4   7
BRANCH   2  13
ATOM     13  C   UNL A   1     -24.236   1.652  25.999  0.00  0.00    +0.270 C 
ATOM     14  N   UNL A   1     -24.014   1.335  27.229  0.00  0.00    -0.154 NA
ATOM     15  O   UNL A   1     -23.300   1.867  25.284  0.00  0.00    -0.268 OA
BRANCH  14  16
ATOM     16  C   UNL A   1     -23.385   0.652  27.761  0.00  0.00    +0.186 A 
ATOM     17  C   UNL A   1     -21.974   0.808  28.158  0.00  0.00    +0.193 A 
ATOM     18  N   UNL A   1     -23.946  -0.606  28.179  0.00  0.00    -0.192 NA
ATOM     19  F   UNL A   1     -21.430   1.830  27.759  0.00  0.00    -0.200 F 
ATOM     20  C   UNL A   1     -21.281  -0.124  28.899  0.00  0.00    +0.134 A 
ATOM     21  N   UNL A   1     -21.921  -1.279  29.224  0.00  0.00    -0.207 NA
ATOM     22  C   UNL A   1     -23.245  -1.484  28.903  0.00  0.00    +0.258 A 
ATOM     23  N   UNL A   1     -23.890  -2.626  29.243  0.00  0.00    -0.086 NA
ENDBRANCH  14  16
ENDBRANCH   2  13
TORSDOF 3
ENDMDL
ENDMDL
