MODEL 3978
MODEL 1
REMARK VINA RESULT:    -7.519      0.000      0.000
REMARK INTER + INTRA:         -11.029
REMARK INTER:                 -10.156
REMARK INTRA:                  -0.873
REMARK UNBOUND:                -0.873
REMARK  Name = No_3978-gen_results/8p0m/2024-11-27-11-27-31/
REMARK  6 active torsions:
REMARK  status: ('A' for Active; 'I' for Inactive)
REMARK    1  A    between atoms: C_2  and  C_14
REMARK    2  A    between atoms: C_3  and  N_17
REMARK    3  A    between atoms: C_4  and  C_7
REMARK    4  A    between atoms: C_7  and  C_8
REMARK    5  A    between atoms: N_17  and  C_18
REMARK    6  A    between atoms: C_18  and  C_20
REMARK                            x       y       z     vdW  Elec       q    Type
REMARK                         _______ _______ _______ _____ _____    ______ ____
ROOT
ATOM      1  C   UNL A   1     -24.696   1.352  26.793  0.00  0.00    +0.023 A 
ATOM      2  C   UNL A   1     -23.667   1.581  26.763  0.00  0.00    +0.081 A 
ATOM      3  C   UNL A   1     -25.136   0.440  27.861  0.00  0.00    +0.067 A 
ATOM      4  C   UNL A   1     -24.227   0.016  28.873  0.00  0.00    -0.004 A 
ATOM      5  C   UNL A   1     -22.545   1.325  27.706  0.00  0.00    +0.006 A 
ATOM      6  C   UNL A   1     -22.913   0.473  28.705  0.00  0.00    -0.003 A 
ENDROOT
BRANCH   4   7
ATOM      7  C   UNL A   1     -24.604  -0.858  29.934  0.00  0.00    +0.039 C 
ATOM      8  C   UNL A   1     -23.505  -0.819  31.021  0.00  0.00    +0.009 C 
ATOM      9  C   UNL A   1     -25.845  -0.206  30.658  0.00  0.00    +0.009 C 
BRANCH   7  10
ATOM     10  C   UNL A   1     -24.822  -2.194  29.571  0.00  0.00    -0.019 A 
ATOM     11  C   UNL A   1     -23.848  -2.931  28.840  0.00  0.00    -0.004 A 
ATOM     12  C   UNL A   1     -24.007  -4.268  28.582  0.00  0.00    -0.000 A 
ATOM     13  C   UNL A   1     -26.050  -2.893  29.831  0.00  0.00    -0.004 A 
ATOM     14  C   UNL A   1     -26.195  -4.258  29.694  0.00  0.00    -0.000 A 
ATOM     15  C   UNL A   1     -25.159  -4.992  29.025  0.00  0.00    -0.000 A 
ENDBRANCH   7  10
ENDBRANCH   4   7
BRANCH   2  16
ATOM     16  C   UNL A   1     -23.171   2.574  25.580  0.00  0.00    +0.388 C 
ATOM     17  O   UNL A   1     -22.305   2.376  24.860  0.00  0.00    -0.241 OA
ATOM     18  O   UNL A   1     -23.856   3.671  25.526  0.00  0.00    -0.241 OA
ENDBRANCH   2  16
BRANCH   3  19
ATOM     19  N   UNL A   1     -26.438  -0.069  27.957  0.00  0.00    -0.213 NA
BRANCH  19  20
ATOM     20  C   UNL A   1     -27.623   0.628  27.559  0.00  0.00    +0.070 C 
ATOM     21  C   UNL A   1     -28.235   1.474  28.436  0.00  0.00    +0.018 C 
BRANCH  20  22
ATOM     22  C   UNL A   1     -28.202   0.363  26.292  0.00  0.00    +0.015 A 
ATOM     23  C   UNL A   1     -27.412   0.078  25.194  0.00  0.00    +0.001 A 
ATOM     24  C   UNL A   1     -28.024  -0.112  23.959  0.00  0.00    +0.000 A 
ATOM     25  C   UNL A   1     -29.405  -0.071  23.881  0.00  0.00    +0.000 A 
ATOM     26  C   UNL A   1     -30.214   0.182  24.968  0.00  0.00    +0.000 A 
ATOM     27  C   UNL A   1     -29.624   0.427  26.121  0.00  0.00    +0.001 A 
ENDBRANCH  20  22
ENDBRANCH  19  20
ENDBRANCH   3  19
TORSDOF 6
ENDMDL
ENDMDL
