REMARK  Name = No_3978-gen_results/8p0m/2024-11-27-11-27-31/
REMARK  6 active torsions:
REMARK  status: ('A' for Active; 'I' for Inactive)
REMARK    1  A    between atoms: C_2  and  C_14
REMARK    2  A    between atoms: C_3  and  N_17
REMARK    3  A    between atoms: C_4  and  C_7
REMARK    4  A    between atoms: C_7  and  C_8
REMARK    5  A    between atoms: N_17  and  C_18
REMARK    6  A    between atoms: C_18  and  C_20
REMARK                            x       y       z     vdW  Elec       q    Type
REMARK                         _______ _______ _______ _____ _____    ______ ____
ROOT
ATOM      1  C   UNL A   1     -28.016  -0.814  28.878  0.00  0.00    +0.023 A 
ATOM      2  C   UNL A   1     -28.469  -0.785  29.829  0.00  0.00    +0.081 A 
ATOM      3  C   UNL A   1     -26.546  -0.876  28.850  0.00  0.00    +0.067 A 
ATOM      4  C   UNL A   1     -25.804  -1.032  30.057  0.00  0.00    -0.004 A 
ATOM      5  C   UNL A   1     -27.944  -0.987  31.207  0.00  0.00    +0.006 A 
ATOM      6  C   UNL A   1     -26.582  -1.039  31.223  0.00  0.00    -0.003 A 
ENDROOT
BRANCH   4   7
ATOM      7  C   UNL A   1     -24.381  -1.108  30.085  0.00  0.00    +0.039 C 
ATOM      8  C   UNL A   1     -23.942  -1.648  31.466  0.00  0.00    +0.009 C 
ATOM      9  C   UNL A   1     -23.955  -2.263  29.099  0.00  0.00    +0.009 C 
BRANCH   7  10
ATOM     10  C   UNL A   1     -23.705   0.096  29.844  0.00  0.00    -0.019 A 
ATOM     11  C   UNL A   1     -22.428   0.116  29.217  0.00  0.00    -0.004 A 
ATOM     12  C   UNL A   1     -21.815   1.294  28.877  0.00  0.00    -0.000 A 
ATOM     13  C   UNL A   1     -24.197   1.377  30.271  0.00  0.00    -0.004 A 
ATOM     14  C   UNL A   1     -23.670   2.578  29.843  0.00  0.00    -0.000 A 
ATOM     15  C   UNL A   1     -22.420   2.564  29.139  0.00  0.00    -0.000 A 
ENDBRANCH   7  10
ENDBRANCH   4   7
BRANCH   2  16
ATOM     16  C   UNL A   1     -30.089  -0.702  29.868  0.00  0.00    +0.388 C 
ATOM     17  O   UNL A   1     -30.786  -1.471  30.348  0.00  0.00    -0.241 OA
ATOM     18  O   UNL A   1     -30.552   0.345  29.266  0.00  0.00    -0.241 OA
ENDBRANCH   2  16
BRANCH   3  19
ATOM     19  N   UNL A   1     -25.788  -0.783  27.675  0.00  0.00    -0.213 NA
BRANCH  19  20
ATOM     20  C   UNL A   1     -25.704   0.379  26.844  0.00  0.00    +0.070 C 
ATOM     21  C   UNL A   1     -24.939   0.347  25.715  0.00  0.00    +0.018 C 
BRANCH  20  22
ATOM     22  C   UNL A   1     -26.338   1.581  27.249  0.00  0.00    +0.015 A 
ATOM     23  C   UNL A   1     -26.186   2.746  26.520  0.00  0.00    +0.001 A 
ATOM     24  C   UNL A   1     -26.776   3.914  26.992  0.00  0.00    +0.000 A 
ATOM     25  C   UNL A   1     -27.545   3.860  28.141  0.00  0.00    +0.000 A 
ATOM     26  C   UNL A   1     -27.735   2.704  28.867  0.00  0.00    +0.000 A 
ATOM     27  C   UNL A   1     -27.119   1.616  28.451  0.00  0.00    +0.001 A 
ENDBRANCH  20  22
ENDBRANCH  19  20
ENDBRANCH   3  19
TORSDOF 6
