REMARK  Name = outputs/IAG933/test6/raw/output_3979_IAG933_linker_design_.xyz
REMARK  14 active torsions:
REMARK  status: ('A' for Active; 'I' for Inactive)
REMARK    1  A    between atoms: C_1  and  C_2
REMARK    2  A    between atoms: C_1  and  C_8
REMARK    3  A    between atoms: C_1  and  N_28
REMARK    4  A    between atoms: C_14  and  C_15
REMARK    5  A    between atoms: C_15  and  O_18
REMARK    6  A    between atoms: O_18  and  C_38
REMARK    7  A    between atoms: C_21  and  O_22
REMARK    8  A    between atoms: O_22  and  C_23
REMARK    9  A    between atoms: C_23  and  C_24
REMARK   10  A    between atoms: N_28  and  C_36
REMARK   11  A    between atoms: C_29  and  O_30
REMARK   12  A    between atoms: C_29  and  C_38
REMARK   13  A    between atoms: N_34  and  C_38
REMARK   14  A    between atoms: C_39  and  O_40
REMARK                            x       y       z     vdW  Elec       q    Type
REMARK                         _______ _______ _______ _____ _____    ______ ____
ROOT
ATOM      1  C   UNL A   1     -23.705   1.410  28.748  0.00  0.00    +0.141 C 
ATOM      2  O   UNL A   1     -21.964   0.060  29.100  0.00  0.00    -0.196 OA
ATOM      3  N   UNL A   1     -24.869   1.973  29.346  0.00  0.00    -0.222 NA
ATOM      4  C   UNL A   1     -23.336   0.317  29.219  0.00  0.00    +0.267 C 
ATOM      5  C   UNL A   1     -22.310   1.618  27.639  0.00  0.00    +0.310 C 
ATOM      6  O   UNL A   1     -21.335   0.869  28.075  0.00  0.00    -0.184 OA
ENDROOT
BRANCH   5   8
ATOM      7  C   UNL A   1     -21.789   2.356  25.405  0.00  0.00    +0.177 C 
ATOM      8  O   UNL A   1     -22.480   2.472  26.665  0.00  0.00    -0.322 OA
ENDBRANCH   5   8
BRANCH   4   9
ATOM      9  N   UNL A   1     -24.295  -0.295  29.564  0.00  0.00    -0.180 NA
BRANCH   9  10
ATOM     10  C   UNL A   1     -24.855  -1.012  30.143  0.00  0.00    +0.114 C 
BRANCH  10  11
ATOM     11  C   UNL A   1     -24.973  -2.505  29.788  0.00  0.00    -0.005 C 
ATOM     12  C   UNL A   1     -23.906  -3.173  29.146  0.00  0.00    -0.003 C 
ATOM     13  C   UNL A   1     -23.989  -4.549  28.853  0.00  0.00    -0.000 C 
ATOM     14  C   UNL A   1     -25.137  -5.280  29.205  0.00  0.00    -0.000 C 
ATOM     15  C   UNL A   1     -26.232  -4.611  29.784  0.00  0.00    -0.000 C 
ATOM     16  C   UNL A   1     -26.155  -3.232  30.065  0.00  0.00    -0.003 C 
ENDBRANCH  10  11
BRANCH  10  17
ATOM     17  C   UNL A   1     -25.387  -0.679  31.571  0.00  0.00    +0.093 C 
ATOM     18  C   UNL A   1     -25.189   0.773  32.028  0.00  0.00    +0.021 C 
ATOM     19  C   UNL A   1     -25.336   0.684  33.544  0.00  0.00    +0.020 C 
ATOM     20  C   UNL A   1     -24.829  -0.715  33.905  0.00  0.00    +0.089 C 
ATOM     21  N   UNL A   1     -24.758  -1.481  32.646  0.00  0.00    -0.218 NA
ENDBRANCH  10  17
ENDBRANCH   9  10
ENDBRANCH   4   9
BRANCH   3  22
ATOM     22  C   UNL A   1     -25.564   3.181  29.347  0.00  0.00    +0.374 C 
BRANCH  22  23
ATOM     23  C   UNL A   1     -26.739   3.492  30.244  0.00  0.00    +0.383 C 
ATOM     24  O   UNL A   1     -27.525   2.409  30.311  0.00  0.00    -0.244 OA
BRANCH  23  25
ATOM     25  O   UNL A   1     -27.128   4.548  30.828  0.00  0.00    -0.441 OA
ATOM     26  C   UNL A   1     -28.398   4.486  31.518  0.00  0.00    +0.256 C 
ENDBRANCH  23  25
ENDBRANCH  22  23
BRANCH  22  27
ATOM     27  O   UNL A   1     -25.143   3.966  28.243  0.00  0.00    -0.432 OA
BRANCH  27  28
ATOM     28  C   UNL A   1     -25.642   4.093  27.123  0.00  0.00    +0.224 C 
ATOM     29  N   UNL A   1     -25.614   5.252  26.449  0.00  0.00    -0.236 NA
ATOM     30  C   UNL A   1     -25.026   6.479  26.963  0.00  0.00    +0.155 C 
BRANCH  28  32
ATOM     31  C   UNL A   1     -25.688   1.614  26.461  0.00  0.00    +0.041 C 
ATOM     32  C   UNL A   1     -26.250   2.920  26.395  0.00  0.00    +0.074 C 
ATOM     33  C   UNL A   1     -27.438   3.091  25.645  0.00  0.00    +0.107 C 
ATOM     34  N   UNL A   1     -28.075   2.089  25.003  0.00  0.00    -0.208 NA
ATOM     35  C   UNL A   1     -27.543   0.849  25.079  0.00  0.00    +0.253 C 
ATOM     36  C   UNL A   1     -26.354   0.576  25.777  0.00  0.00    +0.193 C 
ATOM     37  F   UNL A   1     -25.860  -0.681  25.795  0.00  0.00    -0.199 F 
BRANCH  35  38
ATOM     38  O   UNL A   1     -28.193  -0.208  24.477  0.00  0.00    -0.456 OA
BRANCH  38  39
ATOM     39  C   UNL A   1     -29.460   0.005  23.866  0.00  0.00    +0.243 C 
BRANCH  39  40
ATOM     40  C   UNL A   1     -30.065  -1.377  23.573  0.00  0.00    +0.229 C 
ATOM     41  O   UNL A   1     -30.729  -1.878  24.721  0.00  0.00    -0.216 OA
ENDBRANCH  39  40
ENDBRANCH  38  39
ENDBRANCH  35  38
ENDBRANCH  28  32
ENDBRANCH  27  28
ENDBRANCH  22  27
ENDBRANCH   3  22
TORSDOF 14
