MODEL 397
MODEL 1
REMARK VINA RESULT:    -5.003      0.000      0.000
REMARK INTER + INTRA:          -5.003
REMARK INTER:                  -5.003
REMARK INTRA:                   0.000
REMARK UNBOUND:                 0.000
REMARK  Name = No_397-gen_results/8p0m/2024-11-27-11-27-31/
REMARK  0 active torsions:
REMARK  status: ('A' for Active; 'I' for Inactive)
REMARK                            x       y       z     vdW  Elec       q    Type
REMARK                         _______ _______ _______ _____ _____    ______ ____
ROOT
ATOM      1  C   UNL A   1     -10.417  -9.321  19.096  0.00  0.00    +0.042 A 
ATOM      2  C   UNL A   1      -9.608  -9.168  19.982  0.00  0.00    +0.003 A 
ATOM      3  C   UNL A   1      -8.354  -9.764  19.920  0.00  0.00    +0.000 A 
ATOM      4  C   UNL A   1      -7.994 -10.622  18.820  0.00  0.00    +0.003 A 
ATOM      5  C   UNL A   1      -8.997 -10.763  17.852  0.00  0.00    +0.042 A 
ATOM      6  C   UNL A   1     -10.173 -10.191  17.965  0.00  0.00    +0.196 A 
ATOM      7  O   UNL A   1     -11.106 -10.411  16.999  0.00  0.00    -0.287 OA
ENDROOT
TORSDOF 0
ENDMDL
ENDMDL
