MODEL 3980
MODEL 1
REMARK VINA RESULT:    -4.971      0.000      0.000
REMARK INTER + INTRA:          -5.326
REMARK INTER:                  -5.262
REMARK INTRA:                  -0.064
REMARK UNBOUND:                -0.064
REMARK  Name = No_3980-gen_results/8p0m/2024-11-27-11-27-31/
REMARK  1 active torsions:
REMARK  status: ('A' for Active; 'I' for Inactive)
REMARK    1  A    between atoms: C_2  and  C_7
REMARK                            x       y       z     vdW  Elec       q    Type
REMARK                         _______ _______ _______ _____ _____    ______ ____
ROOT
ATOM      1  C   UNL A   1     -24.003  -3.950  28.819  0.00  0.00    +0.006 A 
ATOM      2  C   UNL A   1     -24.325  -2.994  29.123  0.00  0.00    +0.068 A 
ATOM      3  C   UNL A   1     -24.918  -5.070  29.086  0.00  0.00    +0.000 A 
ATOM      4  C   UNL A   1     -26.226  -4.831  29.600  0.00  0.00    +0.000 A 
ATOM      5  C   UNL A   1     -25.631  -2.475  29.616  0.00  0.00    +0.006 A 
ATOM      6  C   UNL A   1     -26.503  -3.487  29.885  0.00  0.00    +0.000 A 
ENDROOT
BRANCH   2   7
ATOM      7  C   UNL A   1     -23.499  -1.637  28.846  0.00  0.00    +0.333 C 
ATOM      8  O   UNL A   1     -22.370  -1.715  28.995  0.00  0.00    -0.254 OA
ATOM      9  F   UNL A   1     -24.062  -0.561  28.390  0.00  0.00    -0.159 F 
ENDBRANCH   2   7
TORSDOF 1
ENDMDL
ENDMDL
