MODEL 3981
MODEL 1
REMARK VINA RESULT:    -3.823      0.000      0.000
REMARK INTER + INTRA:          -4.442
REMARK INTER:                  -4.270
REMARK INTRA:                  -0.172
REMARK UNBOUND:                -0.172
REMARK  Name = No_3981-gen_results/8p0m/2024-11-27-11-27-31/
REMARK  2 active torsions:
REMARK  status: ('A' for Active; 'I' for Inactive)
REMARK    1  A    between atoms: C_3  and  C_4
REMARK    2  A    between atoms: C_5  and  C_6
REMARK                            x       y       z     vdW  Elec       q    Type
REMARK                         _______ _______ _______ _____ _____    ______ ____
ROOT
ATOM      1  C   UNL A   1     -24.532  -2.602  29.658  0.00  0.00    -0.002 C 
ATOM      2  C   UNL A   1     -23.875  -1.394  29.924  0.00  0.00    +0.012 C 
ENDROOT
BRANCH   1   5
ATOM      3  C   UNL A   1     -25.018  -5.294  29.265  0.00  0.00    +0.031 C 
ATOM      4  C   UNL A   1     -24.202  -4.772  28.540  0.00  0.00    -0.026 C 
ATOM      5  C   UNL A   1     -23.875  -3.428  28.678  0.00  0.00    -0.005 C 
ENDBRANCH   1   5
BRANCH   2   6
ATOM      6  C   UNL A   1     -22.738  -1.068  29.352  0.00  0.00    +0.220 C 
ATOM      7  F   UNL A   1     -22.774  -0.295  28.289  0.00  0.00    -0.229 F 
ENDBRANCH   2   6
TORSDOF 2
ENDMDL
ENDMDL
