REMARK  Name = outputs/IAG933/test6/raw/output_3982_IAG933_linker_design_.xyz
REMARK  11 active torsions:
REMARK  status: ('A' for Active; 'I' for Inactive)
REMARK    1  A    between atoms: C_1  and  C_2
REMARK    2  A    between atoms: C_1  and  C_8
REMARK    3  A    between atoms: C_1  and  C_36
REMARK    4  A    between atoms: C_13  and  N_31
REMARK    5  A    between atoms: C_14  and  C_15
REMARK    6  A    between atoms: C_21  and  O_22
REMARK    7  A    between atoms: O_22  and  C_23
REMARK    8  A    between atoms: C_23  and  C_24
REMARK    9  A    between atoms: C_29  and  C_36
REMARK   10  A    between atoms: C_30  and  C_34
REMARK   11  A    between atoms: C_36  and  C_40
REMARK                            x       y       z     vdW  Elec       q    Type
REMARK                         _______ _______ _______ _____ _____    ______ ____
ROOT
ATOM      1  C   UNL A   1     -22.991   1.277  29.439  0.00  0.00    +0.152 C 
ATOM      2  C   UNL A   1     -25.221   1.052  28.865  0.00  0.00    +0.199 C 
ATOM      3  N   UNL A   1     -24.971   1.362  27.498  0.00  0.00    -0.284 N 
ATOM      4  C   UNL A   1     -23.500   1.491  26.706  0.00  0.00    +0.032 C 
ATOM      5  O   UNL A   1     -24.423   1.604  29.746  0.00  0.00    -0.337 OA
ATOM      6  C   UNL A   1     -22.691   0.847  28.029  0.00  0.00    +0.098 C 
ATOM      7  C   UNL A   1     -22.799   1.978  25.647  0.00  0.00    +0.011 C 
ENDROOT
BRANCH   3   8
ATOM      8  C   UNL A   1     -25.688   1.614  26.461  0.00  0.00    +0.145 C 
ATOM      9  C   UNL A   1     -26.250   2.920  26.395  0.00  0.00    +0.073 C 
ATOM     10  C   UNL A   1     -27.438   3.091  25.645  0.00  0.00    +0.104 C 
ATOM     11  N   UNL A   1     -28.075   2.089  25.003  0.00  0.00    -0.212 NA
ATOM     12  C   UNL A   1     -27.543   0.849  25.079  0.00  0.00    +0.236 C 
ATOM     13  C   UNL A   1     -26.354   0.576  25.777  0.00  0.00    +0.258 C 
ATOM     14  F   UNL A   1     -25.860  -0.681  25.795  0.00  0.00    -0.225 F 
BRANCH   9  15
ATOM     15  C   UNL A   1     -25.642   4.093  27.123  0.00  0.00    +0.264 C 
ATOM     16  N   UNL A   1     -25.614   5.252  26.449  0.00  0.00    -0.200 NA
ATOM     17  C   UNL A   1     -25.026   6.479  26.963  0.00  0.00    +0.139 C 
ATOM     18  O   UNL A   1     -25.143   3.966  28.243  0.00  0.00    -0.269 OA
ENDBRANCH   9  15
BRANCH  12  19
ATOM     19  O   UNL A   1     -28.193  -0.208  24.477  0.00  0.00    -0.459 OA
BRANCH  19  20
ATOM     20  C   UNL A   1     -29.460   0.005  23.866  0.00  0.00    +0.242 C 
BRANCH  20  21
ATOM     21  C   UNL A   1     -30.065  -1.377  23.573  0.00  0.00    +0.229 C 
ATOM     22  O   UNL A   1     -30.729  -1.878  24.721  0.00  0.00    -0.216 OA
ENDBRANCH  20  21
ENDBRANCH  19  20
ENDBRANCH  12  19
ENDBRANCH   3   8
BRANCH   6  23
ATOM     23  C   UNL A   1     -21.351   0.981  27.629  0.00  0.00    +0.190 C 
ATOM     24  O   UNL A   1     -20.912   2.458  27.357  0.00  0.00    -0.220 OA
ENDBRANCH   6  23
BRANCH   2  25
ATOM     25  C   UNL A   1     -25.822  -0.297  29.086  0.00  0.00    +0.110 C 
BRANCH  25  28
ATOM     26  O   UNL A   1     -27.910   0.686  28.156  0.00  0.00    -0.296 OA
ATOM     27  C   UNL A   1     -28.252  -1.044  29.604  0.00  0.00    +0.072 C 
ATOM     28  C   UNL A   1     -27.405  -0.148  28.880  0.00  0.00    +0.155 C 
ENDBRANCH  25  28
BRANCH  25  29
ATOM     29  C   UNL A   1     -24.855  -1.012  30.143  0.00  0.00    +0.049 C 
BRANCH  29  30
ATOM     30  C   UNL A   1     -24.973  -2.505  29.788  0.00  0.00    -0.021 C 
ATOM     31  C   UNL A   1     -23.906  -3.173  29.146  0.00  0.00    -0.004 C 
ATOM     32  C   UNL A   1     -23.989  -4.549  28.853  0.00  0.00    -0.000 C 
ATOM     33  C   UNL A   1     -25.137  -5.280  29.205  0.00  0.00    -0.000 C 
ATOM     34  C   UNL A   1     -26.232  -4.611  29.784  0.00  0.00    -0.000 C 
ATOM     35  C   UNL A   1     -26.155  -3.232  30.065  0.00  0.00    -0.004 C 
ENDBRANCH  29  30
BRANCH  29  36
ATOM     36  C   UNL A   1     -25.387  -0.679  31.571  0.00  0.00    +0.077 C 
ATOM     37  C   UNL A   1     -25.189   0.773  32.028  0.00  0.00    +0.019 C 
ATOM     38  C   UNL A   1     -25.336   0.684  33.544  0.00  0.00    +0.020 C 
ATOM     39  C   UNL A   1     -24.829  -0.715  33.905  0.00  0.00    +0.089 C 
ATOM     40  N   UNL A   1     -24.758  -1.481  32.646  0.00  0.00    -0.219 NA
ENDBRANCH  29  36
ENDBRANCH  25  29
ENDBRANCH   2  25
TORSDOF 11
