MODEL 3982
MODEL 1
REMARK VINA RESULT:    -6.977      0.000      0.000
REMARK INTER + INTRA:         -10.847
REMARK INTER:                  -9.425
REMARK INTRA:                  -1.422
REMARK UNBOUND:                -1.422
REMARK  Name = No_3982-gen_results/8p0m/2024-11-27-11-27-31/
REMARK  6 active torsions:
REMARK  status: ('A' for Active; 'I' for Inactive)
REMARK    1  A    between atoms: C_3  and  C_8
REMARK    2  A    between atoms: C_8  and  C_9
REMARK    3  A    between atoms: C_8  and  C_17
REMARK    4  A    between atoms: C_9  and  C_10
REMARK    5  A    between atoms: C_17  and  C_19
REMARK    6  A    between atoms: C_19  and  C_20
REMARK                            x       y       z     vdW  Elec       q    Type
REMARK                         _______ _______ _______ _____ _____    ______ ____
ROOT
ATOM      1  C   UNL A   1     -24.435  -0.455  28.642  0.00  0.00    +0.013 C 
ENDROOT
BRANCH   1   4
ATOM      2  O   UNL A   1     -26.594   1.401  28.799  0.00  0.00    -0.275 OA
ATOM      3  C   UNL A   1     -26.244   0.690  27.850  0.00  0.00    +0.225 C 
ATOM      4  C   UNL A   1     -25.458   0.083  27.545  0.00  0.00    +0.077 C 
ATOM      5  N   UNL A   1     -27.030   1.131  26.542  0.00  0.00    -0.278 N 
ATOM      6  C   UNL A   1     -25.052  -0.629  26.290  0.00  0.00    +0.011 C 
ATOM      7  C   UNL A   1     -25.919  -0.314  25.204  0.00  0.00    +0.022 C 
ATOM      8  C   UNL A   1     -26.887   0.614  25.393  0.00  0.00    +0.093 C 
ATOM      9  C   UNL A   1     -28.127   2.146  26.793  0.00  0.00    +0.115 C 
ENDBRANCH   1   4
BRANCH   1  10
ATOM     10  C   UNL A   1     -23.131   0.313  28.375  0.00  0.00    +0.005 C 
ATOM     11  C   UNL A   1     -21.950  -0.225  28.877  0.00  0.00    +0.000 C 
BRANCH  10  12
ATOM     12  C   UNL A   1     -23.117   1.595  27.876  0.00  0.00    +0.026 C 
BRANCH  12  13
ATOM     13  C   UNL A   1     -22.433   1.991  26.736  0.00  0.00    -0.026 C 
ATOM     14  C   UNL A   1     -22.892   2.310  25.779  0.00  0.00    -0.005 C 
ENDBRANCH  12  13
ENDBRANCH  10  12
ENDBRANCH   1  10
BRANCH   1  15
ATOM     15  C   UNL A   1     -24.625  -1.107  29.484  0.00  0.00    +0.027 C 
BRANCH  15  16
ATOM     16  C   UNL A   1     -24.611  -2.562  29.313  0.00  0.00    -0.022 A 
ATOM     17  C   UNL A   1     -23.952  -3.244  28.875  0.00  0.00    -0.004 A 
ATOM     18  C   UNL A   1     -23.997  -4.541  28.530  0.00  0.00    -0.000 A 
ATOM     19  C   UNL A   1     -25.152  -5.288  28.990  0.00  0.00    -0.000 A 
ATOM     20  C   UNL A   1     -26.143  -4.520  29.656  0.00  0.00    -0.000 A 
ATOM     21  C   UNL A   1     -25.979  -3.188  29.839  0.00  0.00    -0.004 A 
ENDBRANCH  15  16
ENDBRANCH   1  15
TORSDOF 6
ENDMDL
ENDMDL
