MODEL 3983
MODEL 1
REMARK VINA RESULT:    -4.399      0.000      0.000
REMARK INTER + INTRA:          -4.399
REMARK INTER:                  -4.399
REMARK INTRA:                   0.000
REMARK UNBOUND:                 0.000
REMARK  Name = No_3983-gen_results/8p0m/2024-11-27-11-27-31/
REMARK  0 active torsions:
REMARK  status: ('A' for Active; 'I' for Inactive)
REMARK                            x       y       z     vdW  Elec       q    Type
REMARK                         _______ _______ _______ _____ _____    ______ ____
ROOT
ATOM      1  C   UNL A   1     -25.488  -2.626  29.904  0.00  0.00    +0.011 A 
ATOM      2  C   UNL A   1     -26.204  -3.398  29.953  0.00  0.00    +0.001 A 
ATOM      3  C   UNL A   1     -24.265  -3.007  29.186  0.00  0.00    +0.058 A 
ATOM      4  C   UNL A   1     -24.021  -4.261  28.803  0.00  0.00    +0.011 A 
ATOM      5  C   UNL A   1     -26.162  -4.805  29.637  0.00  0.00    +0.000 A 
ATOM      6  C   UNL A   1     -25.009  -5.145  28.994  0.00  0.00    +0.001 A 
ATOM      7 CL   UNL A   1     -23.083  -1.734  28.955  0.00  0.00    -0.082 Cl
ENDROOT
TORSDOF 0
ENDMDL
ENDMDL
