MODEL 3984
MODEL 1
REMARK VINA RESULT:    -7.579      0.000      0.000
REMARK INTER + INTRA:          -7.799
REMARK INTER:                  -8.908
REMARK INTRA:                   1.109
REMARK UNBOUND:                 1.109
REMARK  Name = No_3984-gen_results/8p0m/2024-11-27-11-27-31/
REMARK  3 active torsions:
REMARK  status: ('A' for Active; 'I' for Inactive)
REMARK    1  A    between atoms: C_15  and  C_20
REMARK    2  A    between atoms: C_19  and  C_23
REMARK    3  A    between atoms: C_23  and  C_26
REMARK                            x       y       z     vdW  Elec       q    Type
REMARK                         _______ _______ _______ _____ _____    ______ ____
ROOT
ATOM      1  C   UNL A   1     -23.992  -3.258  28.582  0.00  0.00    -0.000 A 
ATOM      2  C   UNL A   1     -24.251  -2.131  28.934  0.00  0.00    -0.004 A 
ATOM      3  C   UNL A   1     -25.359  -1.865  29.732  0.00  0.00    -0.019 A 
ATOM      4  C   UNL A   1     -26.258  -2.919  30.126  0.00  0.00    -0.004 A 
ATOM      5  C   UNL A   1     -25.896  -4.187  29.656  0.00  0.00    -0.000 A 
ATOM      6  C   UNL A   1     -24.847  -4.383  28.889  0.00  0.00    -0.000 A 
ATOM      7  C   UNL A   1     -23.452  -0.922  28.599  0.00  0.00    -0.000 A 
ATOM      8  C   UNL A   1     -23.799   0.131  28.086  0.00  0.00    -0.000 A 
ATOM      9  C   UNL A   1     -22.039  -1.039  28.997  0.00  0.00    -0.000 A 
ATOM     10  C   UNL A   1     -25.152   0.433  27.760  0.00  0.00    -0.004 A 
ATOM     11  C   UNL A   1     -22.890   1.245  27.760  0.00  0.00    -0.000 A 
ATOM     12  C   UNL A   1     -21.582   1.185  27.994  0.00  0.00    -0.000 A 
ATOM     13  C   UNL A   1     -21.113  -0.030  28.692  0.00  0.00    -0.000 A 
ATOM     14  C   UNL A   1     -25.481   0.938  26.508  0.00  0.00    +0.006 A 
ATOM     15  C   UNL A   1     -26.834   0.840  26.080  0.00  0.00    +0.080 A 
ATOM     16  C   UNL A   1     -27.879   0.524  26.979  0.00  0.00    +0.006 A 
ATOM     17  C   UNL A   1     -27.578   0.044  28.231  0.00  0.00    -0.004 A 
ATOM     18  C   UNL A   1     -26.251  -0.065  28.576  0.00  0.00    -0.019 A 
ATOM     19  C   UNL A   1     -25.844  -0.357  29.904  0.00  0.00    +0.041 C 
ATOM     20  C   UNL A   1     -24.892   0.379  30.753  0.00  0.00    +0.009 C 
ENDROOT
BRANCH  15  21
ATOM     21  C   UNL A   1     -27.240   1.428  24.757  0.00  0.00    +0.388 C 
ATOM     22  O   UNL A   1     -27.476   2.511  24.603  0.00  0.00    -0.241 OA
ATOM     23  O   UNL A   1     -27.663   0.511  23.851  0.00  0.00    -0.241 OA
ENDBRANCH  15  21
BRANCH  19  24
ATOM     24  C   UNL A   1     -27.153  -0.491  30.787  0.00  0.00    +0.029 C 
ATOM     25  C   UNL A   1     -27.112   0.169  32.026  0.00  0.00    +0.005 C 
BRANCH  24  26
ATOM     26  C   UNL A   1     -28.345  -1.109  30.357  0.00  0.00    -0.026 C 
ATOM     27  C   UNL A   1     -29.249  -1.073  31.362  0.00  0.00    -0.005 C 
ENDBRANCH  24  26
ENDBRANCH  19  24
TORSDOF 3
ENDMDL
ENDMDL
