REMARK  Name = outputs/IAG933/test6/raw/output_3984_IAG933_linker_design_.xyz
REMARK  9 active torsions:
REMARK  status: ('A' for Active; 'I' for Inactive)
REMARK    1  A    between atoms: C_1  and  C_2
REMARK    2  A    between atoms: C_1  and  C_8
REMARK    3  A    between atoms: C_13  and  N_38
REMARK    4  A    between atoms: C_14  and  C_15
REMARK    5  A    between atoms: C_21  and  O_22
REMARK    6  A    between atoms: O_22  and  C_23
REMARK    7  A    between atoms: C_23  and  C_24
REMARK    8  A    between atoms: C_32  and  C_41
REMARK    9  A    between atoms: C_35  and  C_39
REMARK                            x       y       z     vdW  Elec       q    Type
REMARK                         _______ _______ _______ _____ _____    ______ ____
ROOT
ATOM      1  O   UNL A   1     -23.602   2.942  25.364  0.00  0.00    -0.198 OA
ATOM      2  F   UNL A   1     -21.061   1.945  26.169  0.00  0.00    -0.232 F 
ATOM      3  O   UNL A   1     -24.385   1.896  29.187  0.00  0.00    -0.203 OA
ATOM      4  C   UNL A   1     -22.110   1.610  26.727  0.00  0.00    +0.217 C 
ATOM      5  C   UNL A   1     -23.565   1.753  26.049  0.00  0.00    +0.263 C 
ATOM      6  N   UNL A   1     -24.519   1.341  26.963  0.00  0.00    -0.257 N 
ATOM      7  C   UNL A   1     -23.950   1.014  28.159  0.00  0.00    +0.209 C 
ATOM      8  C   UNL A   1     -22.418   1.451  28.186  0.00  0.00    +0.117 C 
ENDROOT
BRANCH   6   9
ATOM      9  C   UNL A   1     -25.688   1.614  26.461  0.00  0.00    +0.090 C 
ATOM     10  C   UNL A   1     -26.250   2.920  26.395  0.00  0.00    +0.090 C 
ATOM     11  C   UNL A   1     -27.438   3.091  25.645  0.00  0.00    +0.108 C 
ATOM     12  N   UNL A   1     -28.075   2.089  25.003  0.00  0.00    -0.208 NA
ATOM     13  C   UNL A   1     -27.543   0.849  25.079  0.00  0.00    +0.255 C 
ATOM     14  C   UNL A   1     -26.354   0.576  25.777  0.00  0.00    +0.206 C 
ATOM     15  F   UNL A   1     -25.860  -0.681  25.795  0.00  0.00    -0.198 F 
BRANCH  10  16
ATOM     16  C   UNL A   1     -25.642   4.093  27.123  0.00  0.00    +0.268 C 
ATOM     17  N   UNL A   1     -25.614   5.252  26.449  0.00  0.00    -0.200 NA
ATOM     18  C   UNL A   1     -25.026   6.479  26.963  0.00  0.00    +0.139 C 
ATOM     19  O   UNL A   1     -25.143   3.966  28.243  0.00  0.00    -0.268 OA
ENDBRANCH  10  16
BRANCH  13  20
ATOM     20  O   UNL A   1     -28.193  -0.208  24.477  0.00  0.00    -0.456 OA
BRANCH  20  21
ATOM     21  C   UNL A   1     -29.460   0.005  23.866  0.00  0.00    +0.243 C 
BRANCH  21  22
ATOM     22  C   UNL A   1     -30.065  -1.377  23.573  0.00  0.00    +0.229 C 
ATOM     23  O   UNL A   1     -30.729  -1.878  24.721  0.00  0.00    -0.216 OA
ENDBRANCH  21  22
ENDBRANCH  20  21
ENDBRANCH  13  20
ENDBRANCH   6   9
BRANCH   8  24
ATOM     24  C   UNL A   1     -21.826   0.342  29.071  0.00  0.00    +0.186 C 
ATOM     25  C   UNL A   1     -20.543   0.215  28.458  0.00  0.00    +0.306 C 
ATOM     26  F   UNL A   1     -19.920   1.217  28.177  0.00  0.00    -0.201 F 
ATOM     27  O   UNL A   1     -21.589  -1.050  29.313  0.00  0.00    -0.322 OA
ENDBRANCH   8  24
BRANCH   7  30
ATOM     28  C   UNL A   1     -24.855  -1.012  30.143  0.00  0.00    +0.112 C 
ATOM     29  N   UNL A   1     -23.680  -0.510  29.862  0.00  0.00    -0.209 NA
ATOM     30  C   UNL A   1     -24.098  -0.300  28.635  0.00  0.00    +0.139 C 
BRANCH  28  31
ATOM     31  C   UNL A   1     -24.973  -2.505  29.788  0.00  0.00    -0.005 C 
ATOM     32  C   UNL A   1     -23.906  -3.173  29.146  0.00  0.00    -0.003 C 
ATOM     33  C   UNL A   1     -23.989  -4.549  28.853  0.00  0.00    -0.000 C 
ATOM     34  C   UNL A   1     -25.137  -5.280  29.205  0.00  0.00    -0.000 C 
ATOM     35  C   UNL A   1     -26.232  -4.611  29.784  0.00  0.00    -0.000 C 
ATOM     36  C   UNL A   1     -26.155  -3.232  30.065  0.00  0.00    -0.003 C 
ENDBRANCH  28  31
BRANCH  28  37
ATOM     37  C   UNL A   1     -25.387  -0.679  31.571  0.00  0.00    +0.093 C 
ATOM     38  C   UNL A   1     -25.189   0.773  32.028  0.00  0.00    +0.021 C 
ATOM     39  C   UNL A   1     -25.336   0.684  33.544  0.00  0.00    +0.020 C 
ATOM     40  C   UNL A   1     -24.829  -0.715  33.905  0.00  0.00    +0.089 C 
ATOM     41  N   UNL A   1     -24.758  -1.481  32.646  0.00  0.00    -0.218 NA
ENDBRANCH  28  37
ENDBRANCH   7  30
TORSDOF 9
