MODEL 3985
MODEL 1
REMARK VINA RESULT:    -4.342      0.000      0.000
REMARK INTER + INTRA:          -4.342
REMARK INTER:                  -4.342
REMARK INTRA:                   0.000
REMARK UNBOUND:                 0.000
REMARK  Name = No_3985-gen_results/8p0m/2024-11-27-11-27-31/
REMARK  0 active torsions:
REMARK  status: ('A' for Active; 'I' for Inactive)
REMARK                            x       y       z     vdW  Elec       q    Type
REMARK                         _______ _______ _______ _____ _____    ______ ____
ROOT
ATOM      1  C   UNL A   1     -24.115  -4.820  28.573  0.00  0.00    +0.000 A 
ATOM      2  C   UNL A   1     -24.947  -5.286  29.024  0.00  0.00    +0.000 A 
ATOM      3  C   UNL A   1     -24.080  -3.366  28.772  0.00  0.00    +0.000 A 
ATOM      4  C   UNL A   1     -25.098  -2.692  29.309  0.00  0.00    +0.000 A 
ATOM      5  C   UNL A   1     -26.156  -4.779  29.626  0.00  0.00    +0.000 A 
ATOM      6  C   UNL A   1     -26.115  -3.425  29.780  0.00  0.00    +0.000 A 
ENDROOT
TORSDOF 0
ENDMDL
ENDMDL
