REMARK  Name = outputs/IAG933/test6/raw/output_3985_IAG933_linker_design_.xyz
REMARK  11 active torsions:
REMARK  status: ('A' for Active; 'I' for Inactive)
REMARK    1  A    between atoms: C_1  and  C_2
REMARK    2  A    between atoms: C_1  and  C_8
REMARK    3  A    between atoms: C_1  and  N_34
REMARK    4  A    between atoms: C_13  and  C_41
REMARK    5  A    between atoms: C_14  and  C_15
REMARK    6  A    between atoms: C_21  and  O_22
REMARK    7  A    between atoms: O_22  and  C_23
REMARK    8  A    between atoms: C_23  and  C_24
REMARK    9  A    between atoms: C_35  and  C_36
REMARK   10  A    between atoms: C_36  and  C_42
REMARK   11  A    between atoms: C_39  and  C_40
REMARK                            x       y       z     vdW  Elec       q    Type
REMARK                         _______ _______ _______ _____ _____    ______ ____
ROOT
ATOM      1  C   UNL A   1     -23.198   0.385  28.704  0.00  0.00    +0.060 A 
ATOM      2  C   UNL A   1     -23.524   1.163  27.698  0.00  0.00    +0.023 A 
ATOM      3  C   UNL A   1     -21.820   0.141  29.022  0.00  0.00    +0.017 C 
ATOM      4  N   UNL A   1     -24.650  -0.026  29.198  0.00  0.00    -0.322 N 
ATOM      5  C   UNL A   1     -20.840   0.792  28.283  0.00  0.00    +0.002 C 
ATOM      6  C   UNL A   1     -21.211   1.671  27.260  0.00  0.00    +0.010 C 
ATOM      7  C   UNL A   1     -22.550   1.762  26.944  0.00  0.00    +0.070 C 
ATOM      8  C   UNL A   1     -24.916   1.178  27.605  0.00  0.00    +0.006 A 
ATOM      9  C   UNL A   1     -25.572   0.531  28.531  0.00  0.00    +0.092 A 
ENDROOT
BRANCH   8  10
ATOM     10  C   UNL A   1     -25.688   1.614  26.461  0.00  0.00    +0.094 C 
ATOM     11  C   UNL A   1     -26.250   2.920  26.395  0.00  0.00    +0.059 C 
ATOM     12  C   UNL A   1     -27.438   3.091  25.645  0.00  0.00    +0.102 C 
ATOM     13  N   UNL A   1     -28.075   2.089  25.003  0.00  0.00    -0.212 NA
ATOM     14  C   UNL A   1     -27.543   0.849  25.079  0.00  0.00    +0.234 C 
ATOM     15  C   UNL A   1     -26.354   0.576  25.777  0.00  0.00    +0.244 C 
ATOM     16  F   UNL A   1     -25.860  -0.681  25.795  0.00  0.00    -0.227 F 
BRANCH  11  17
ATOM     17  C   UNL A   1     -25.642   4.093  27.123  0.00  0.00    +0.263 C 
ATOM     18  N   UNL A   1     -25.614   5.252  26.449  0.00  0.00    -0.200 NA
ATOM     19  C   UNL A   1     -25.026   6.479  26.963  0.00  0.00    +0.139 C 
ATOM     20  O   UNL A   1     -25.143   3.966  28.243  0.00  0.00    -0.269 OA
ENDBRANCH  11  17
BRANCH  14  21
ATOM     21  O   UNL A   1     -28.193  -0.208  24.477  0.00  0.00    -0.459 OA
BRANCH  21  22
ATOM     22  C   UNL A   1     -29.460   0.005  23.866  0.00  0.00    +0.242 C 
BRANCH  22  23
ATOM     23  C   UNL A   1     -30.065  -1.377  23.573  0.00  0.00    +0.229 C 
ATOM     24  O   UNL A   1     -30.729  -1.878  24.721  0.00  0.00    -0.216 OA
ENDBRANCH  22  23
ENDBRANCH  21  22
ENDBRANCH  14  21
ENDBRANCH   8  10
BRANCH   9  26
ATOM     25  O   UNL A   1     -27.649  -0.661  28.709  0.00  0.00    -0.290 OA
ATOM     26  C   UNL A   1     -27.123   0.450  28.769  0.00  0.00    +0.188 C 
BRANCH  26  28
ATOM     27  C   UNL A   1     -29.289   1.507  29.648  0.00  0.00    +0.009 C 
ATOM     28  C   UNL A   1     -27.915   1.636  28.919  0.00  0.00    +0.071 C 
ENDBRANCH  26  28
ENDBRANCH   9  26
BRANCH   7  30
ATOM     29  N   UNL A   1     -23.130   2.755  24.747  0.00  0.00    -0.191 NA
ATOM     30  C   UNL A   1     -22.870   2.321  25.683  0.00  0.00    +0.101 C 
ENDBRANCH   7  30
BRANCH   4  31
ATOM     31  C   UNL A   1     -24.855  -1.012  30.143  0.00  0.00    +0.124 C 
BRANCH  31  32
ATOM     32  C   UNL A   1     -24.973  -2.505  29.788  0.00  0.00    -0.000 C 
ATOM     33  C   UNL A   1     -23.906  -3.173  29.146  0.00  0.00    -0.002 C 
ATOM     34  C   UNL A   1     -23.989  -4.549  28.853  0.00  0.00    -0.000 C 
ATOM     35  C   UNL A   1     -25.137  -5.280  29.205  0.00  0.00    -0.000 C 
ATOM     36  C   UNL A   1     -26.232  -4.611  29.784  0.00  0.00    -0.000 C 
ATOM     37  C   UNL A   1     -26.155  -3.232  30.065  0.00  0.00    -0.002 C 
ENDBRANCH  31  32
BRANCH  31  38
ATOM     38  C   UNL A   1     -25.387  -0.679  31.571  0.00  0.00    +0.098 C 
ATOM     39  C   UNL A   1     -25.189   0.773  32.028  0.00  0.00    +0.021 C 
ATOM     40  C   UNL A   1     -25.336   0.684  33.544  0.00  0.00    +0.020 C 
ATOM     41  C   UNL A   1     -24.829  -0.715  33.905  0.00  0.00    +0.089 C 
ATOM     42  N   UNL A   1     -24.758  -1.481  32.646  0.00  0.00    -0.217 NA
ENDBRANCH  31  38
ENDBRANCH   4  31
TORSDOF 11
