MODEL 3987
MODEL 1
REMARK VINA RESULT:    -3.479      0.000      0.000
REMARK INTER + INTRA:          -3.479
REMARK INTER:                  -3.479
REMARK INTRA:                   0.000
REMARK UNBOUND:                 0.000
REMARK  Name = No_3987-gen_results/8p0m/2024-11-27-11-27-31/
REMARK  0 active torsions:
REMARK  status: ('A' for Active; 'I' for Inactive)
REMARK                            x       y       z     vdW  Elec       q    Type
REMARK                         _______ _______ _______ _____ _____    ______ ____
ROOT
ATOM      1  F   UNL A   1      -7.731 -10.520  19.654  0.00  0.00    -0.140 F 
ATOM      2  C   UNL A   1      -7.726  -9.797  20.457  0.00  0.00    +0.561 C 
ATOM      3  F   UNL A   1      -7.216 -10.193  21.481  0.00  0.00    -0.140 F 
ATOM      4  F   UNL A   1      -9.032  -9.475  20.690  0.00  0.00    -0.140 F 
ATOM      5  F   UNL A   1      -7.141  -8.675  19.999  0.00  0.00    -0.140 F 
ENDROOT
TORSDOF 0
ENDMDL
ENDMDL
