REMARK  Name = outputs/IAG933/test6/raw/output_3988_IAG933_linker_design_.xyz
REMARK  6 active torsions:
REMARK  status: ('A' for Active; 'I' for Inactive)
REMARK    1  A    between atoms: C_1  and  C_2
REMARK    2  A    between atoms: C_1  and  C_8
REMARK    3  A    between atoms: C_1  and  N_37
REMARK    4  A    between atoms: C_21  and  O_22
REMARK    5  A    between atoms: O_22  and  C_23
REMARK    6  A    between atoms: C_23  and  C_24
REMARK                            x       y       z     vdW  Elec       q    Type
REMARK                         _______ _______ _______ _____ _____    ______ ____
ROOT
ATOM      1  C   UNL A   1     -25.688   1.614  26.461  0.00  0.00    +0.095 C 
ATOM      2  C   UNL A   1     -26.250   2.920  26.395  0.00  0.00    +0.057 C 
ATOM      3  C   UNL A   1     -25.642   4.093  27.123  0.00  0.00    +0.221 C 
ATOM      4  N   UNL A   1     -25.614   5.252  26.449  0.00  0.00    -0.236 NA
ATOM      5  C   UNL A   1     -25.026   6.479  26.963  0.00  0.00    +0.155 C 
ATOM      6  O   UNL A   1     -25.143   3.966  28.243  0.00  0.00    -0.433 OA
ATOM      7  C   UNL A   1     -27.438   3.091  25.645  0.00  0.00    +0.102 C 
ATOM      8  N   UNL A   1     -28.075   2.089  25.003  0.00  0.00    -0.212 NA
ATOM      9  C   UNL A   1     -27.543   0.849  25.079  0.00  0.00    +0.234 C 
ATOM     10  C   UNL A   1     -26.354   0.576  25.777  0.00  0.00    +0.244 C 
ATOM     11  F   UNL A   1     -25.860  -0.681  25.795  0.00  0.00    -0.227 F 
ATOM     12  C   UNL A   1     -21.976   2.347  25.587  0.00  0.00    +0.323 C 
ATOM     13  C   UNL A   1     -21.998   0.660  28.795  0.00  0.00    +0.054 C 
ATOM     14  O   UNL A   1     -21.299   1.889  26.713  0.00  0.00    -0.453 OA
ATOM     15  C   UNL A   1     -22.986   0.375  29.625  0.00  0.00    +0.069 C 
ATOM     16  C   UNL A   1     -26.827   3.683  29.662  0.00  0.00    +0.063 C 
ATOM     17  C   UNL A   1     -23.463   1.583  26.852  0.00  0.00    +0.101 C 
ATOM     18  C   UNL A   1     -28.042   4.238  30.237  0.00  0.00    +0.195 C 
ATOM     19  O   UNL A   1     -25.267   4.976  30.371  0.00  0.00    -0.279 OA
ATOM     20  C   UNL A   1     -26.458   2.075  29.346  0.00  0.00    +0.015 C 
ATOM     21  N   UNL A   1     -24.337   0.234  29.473  0.00  0.00    -0.282 N 
ATOM     22  C   UNL A   1     -25.049   1.496  28.900  0.00  0.00    +0.049 C 
ATOM     23  C   UNL A   1     -26.364   4.987  31.117  0.00  0.00    +0.328 C 
ATOM     24  N   UNL A   1     -23.256   1.975  25.634  0.00  0.00    -0.192 NA
ATOM     25  I   UNL A   1     -30.087   4.521  30.798  0.00  0.00    -0.037 I 
ATOM     26  C   UNL A   1     -22.270   1.418  27.476  0.00  0.00    +0.157 C 
ATOM     27  O   UNL A   1     -27.434   4.995  31.083  0.00  0.00    -0.305 OA
ATOM     28 CL   UNL A   1     -25.697   4.153  32.661  0.00  0.00    -0.050 Cl
ATOM     29  C   UNL A   1     -25.968   4.233  29.442  0.00  0.00    +0.316 C 
ATOM     30  C   UNL A   1     -24.756   1.539  27.474  0.00  0.00    +0.017 C 
ENDROOT
BRANCH  21  31
ATOM     31  C   UNL A   1     -24.855  -1.012  30.143  0.00  0.00    +0.116 C 
BRANCH  31  32
ATOM     32  C   UNL A   1     -24.973  -2.505  29.788  0.00  0.00    -0.003 C 
ATOM     33  C   UNL A   1     -23.906  -3.173  29.146  0.00  0.00    -0.003 C 
ATOM     34  C   UNL A   1     -23.989  -4.549  28.853  0.00  0.00    -0.000 C 
ATOM     35  C   UNL A   1     -25.137  -5.280  29.205  0.00  0.00    -0.000 C 
ATOM     36  C   UNL A   1     -26.232  -4.611  29.784  0.00  0.00    -0.000 C 
ATOM     37  C   UNL A   1     -26.155  -3.232  30.065  0.00  0.00    -0.003 C 
ENDBRANCH  31  32
BRANCH  31  38
ATOM     38  C   UNL A   1     -25.387  -0.679  31.571  0.00  0.00    +0.095 C 
ATOM     39  C   UNL A   1     -25.189   0.773  32.028  0.00  0.00    +0.021 C 
ATOM     40  C   UNL A   1     -25.336   0.684  33.544  0.00  0.00    +0.020 C 
ATOM     41  C   UNL A   1     -24.829  -0.715  33.905  0.00  0.00    +0.089 C 
ATOM     42  N   UNL A   1     -24.758  -1.481  32.646  0.00  0.00    -0.217 NA
ENDBRANCH  31  38
ENDBRANCH  21  31
BRANCH   9  43
ATOM     43  O   UNL A   1     -28.193  -0.208  24.477  0.00  0.00    -0.459 OA
BRANCH  43  44
ATOM     44  C   UNL A   1     -29.460   0.005  23.866  0.00  0.00    +0.242 C 
BRANCH  44  45
ATOM     45  C   UNL A   1     -30.065  -1.377  23.573  0.00  0.00    +0.229 C 
ATOM     46  O   UNL A   1     -30.729  -1.878  24.721  0.00  0.00    -0.216 OA
ENDBRANCH  44  45
ENDBRANCH  43  44
ENDBRANCH   9  43
TORSDOF 6
