REMARK  Name = No_3989-gen_results/8p0m/2024-11-27-11-27-31/
REMARK  7 active torsions:
REMARK  status: ('A' for Active; 'I' for Inactive)
REMARK    1  A    between atoms: C_3  and  C_4
REMARK    2  A    between atoms: C_7  and  O_13
REMARK    3  A    between atoms: O_13  and  C_14
REMARK    4  A    between atoms: C_14  and  C_15
REMARK    5  A    between atoms: C_14  and  C_19
REMARK    6  A    between atoms: N_17  and  C_18
REMARK    7  A    between atoms: C_18  and  C_25
REMARK                            x       y       z     vdW  Elec       q    Type
REMARK                         _______ _______ _______ _____ _____    ______ ____
ROOT
ATOM      1  C   UNL A   1     -31.289   2.819  29.603  0.00  0.00    +0.265 C 
ENDROOT
BRANCH   1   2
ATOM      2  C   UNL A   1     -32.642   2.723  30.357  0.00  0.00    +0.026 A 
ATOM      3  C   UNL A   1     -33.445   1.751  29.988  0.00  0.00    -0.000 A 
ATOM      4  C   UNL A   1     -34.573   1.774  29.963  0.00  0.00    -0.000 A 
ATOM      5  C   UNL A   1     -35.306   2.860  30.703  0.00  0.00    -0.000 A 
ATOM      6  C   UNL A   1     -34.497   3.904  31.115  0.00  0.00    -0.000 A 
ATOM      7  C   UNL A   1     -33.157   3.879  30.921  0.00  0.00    -0.000 A 
ENDBRANCH   1   2
BRANCH   1   8
ATOM      8  C   UNL A   1     -31.053   4.125  29.318  0.00  0.00    +0.286 C 
ATOM      9  O   UNL A   1     -31.330   4.617  28.288  0.00  0.00    -0.269 OA
ATOM     10  N   UNL A   1     -30.320   4.912  30.237  0.00  0.00    -0.197 NA
BRANCH  10  11
ATOM     11  C   UNL A   1     -29.904   6.253  29.990  0.00  0.00    +0.142 C 
BRANCH  11  12
ATOM     12  C   UNL A   1     -28.949   6.607  30.032  0.00  0.00    -0.001 A 
ATOM     13  C   UNL A   1     -27.913   5.976  30.933  0.00  0.00    -0.003 A 
ATOM     14  C   UNL A   1     -26.543   6.320  30.940  0.00  0.00    -0.000 A 
ATOM     15  C   UNL A   1     -26.081   7.186  30.019  0.00  0.00    -0.000 A 
ATOM     16  C   UNL A   1     -26.906   7.827  29.111  0.00  0.00    -0.000 A 
ATOM     17  C   UNL A   1     -28.242   7.497  29.120  0.00  0.00    -0.003 A 
ENDBRANCH  11  12
ENDBRANCH  10  11
ENDBRANCH   1   8
BRANCH   1  18
ATOM     18  O   UNL A   1     -30.455   2.221  30.233  0.00  0.00    -0.465 OA
BRANCH  18  23
ATOM     19  C   UNL A   1     -28.016  -0.814  28.878  0.00  0.00    +0.000 A 
ATOM     20  C   UNL A   1     -28.469  -0.785  29.829  0.00  0.00    +0.003 A 
ATOM     21  C   UNL A   1     -28.182   0.428  28.113  0.00  0.00    +0.003 A 
ATOM     22  C   UNL A   1     -29.426   0.110  30.418  0.00  0.00    +0.037 A 
ATOM     23  C   UNL A   1     -29.623   1.220  29.735  0.00  0.00    +0.140 A 
ATOM     24  C   UNL A   1     -28.961   1.453  28.551  0.00  0.00    +0.037 A 
BRANCH  21  25
ATOM     25  C   UNL A   1     -27.450   0.643  26.850  0.00  0.00    +0.000 A 
ATOM     26  C   UNL A   1     -27.860   1.457  25.908  0.00  0.00    +0.000 A 
ATOM     27  C   UNL A   1     -27.173   1.574  24.703  0.00  0.00    +0.000 A 
ATOM     28  C   UNL A   1     -26.089   0.747  24.413  0.00  0.00    +0.000 A 
ATOM     29  C   UNL A   1     -25.636  -0.119  25.397  0.00  0.00    +0.000 A 
ATOM     30  C   UNL A   1     -26.281  -0.206  26.582  0.00  0.00    +0.000 A 
ENDBRANCH  21  25
ENDBRANCH  18  23
ENDBRANCH   1  18
TORSDOF 7
