MODEL 398
MODEL 1
REMARK VINA RESULT:    -6.455      0.000      0.000
REMARK INTER + INTRA:         -10.299
REMARK INTER:                  -8.719
REMARK INTRA:                  -1.580
REMARK UNBOUND:                -1.580
REMARK  Name = No_398-gen_results/8p0m/2024-11-27-11-27-31/
REMARK  6 active torsions:
REMARK  status: ('A' for Active; 'I' for Inactive)
REMARK    1  A    between atoms: C_3  and  C_7
REMARK    2  A    between atoms: C_6  and  C_19
REMARK    3  A    between atoms: C_7  and  C_15
REMARK    4  A    between atoms: C_8  and  C_9
REMARK    5  A    between atoms: C_19  and  N_20
REMARK    6  A    between atoms: N_20  and  C_21
REMARK                            x       y       z     vdW  Elec       q    Type
REMARK                         _______ _______ _______ _____ _____    ______ ____
ROOT
ATOM      1  C   UNL A   1     -24.276  -0.226  29.634  0.00  0.00    +0.071 C 
ATOM      2  C   UNL A   1     -24.521  -1.129  28.824  0.00  0.00    +0.004 C 
ENDROOT
BRANCH   1   5
ATOM      3  C   UNL A   1     -22.972  -1.124  31.652  0.00  0.00    -0.000 A 
ATOM      4  C   UNL A   1     -22.962  -1.302  32.690  0.00  0.00    -0.000 A 
ATOM      5  C   UNL A   1     -24.146  -0.574  31.090  0.00  0.00    +0.004 A 
ATOM      6  C   UNL A   1     -25.257  -0.285  31.856  0.00  0.00    -0.003 A 
ATOM      7  C   UNL A   1     -23.995  -1.085  33.721  0.00  0.00    -0.003 A 
ATOM      8  C   UNL A   1     -25.137  -0.560  33.225  0.00  0.00    -0.001 A 
BRANCH   8   9
ATOM      9  C   UNL A   1     -26.321  -0.253  34.118  0.00  0.00    +0.139 C 
BRANCH   9  10
ATOM     10  N   UNL A   1     -26.442   0.682  34.902  0.00  0.00    -0.232 NA
BRANCH  10  11
ATOM     11  C   UNL A   1     -27.041   1.659  34.842  0.00  0.00    +0.081 C 
ATOM     12  C   UNL A   1     -26.584   2.891  34.217  0.00  0.00    +0.019 C 
ENDBRANCH  10  11
ENDBRANCH   9  10
ENDBRANCH   8   9
ENDBRANCH   1   5
BRANCH   2  13
ATOM     13  C   UNL A   1     -24.760  -2.499  29.154  0.00  0.00    -0.000 A 
ATOM     14  C   UNL A   1     -23.892  -3.517  28.604  0.00  0.00    -0.000 A 
ATOM     15  C   UNL A   1     -24.219  -4.882  28.640  0.00  0.00    -0.000 A 
ATOM     16  C   UNL A   1     -25.393  -5.240  29.316  0.00  0.00    -0.000 A 
ATOM     17  C   UNL A   1     -25.946  -3.142  29.612  0.00  0.00    -0.000 A 
ATOM     18  C   UNL A   1     -26.277  -4.382  29.638  0.00  0.00    -0.000 A 
ENDBRANCH   2  13
BRANCH   1  19
ATOM     19  C   UNL A   1     -24.064   1.137  29.304  0.00  0.00    +0.419 C 
ATOM     20  F   UNL A   1     -23.492   1.289  28.177  0.00  0.00    -0.166 F 
ATOM     21  F   UNL A   1     -25.166   1.884  29.271  0.00  0.00    -0.166 F 
ATOM     22  F   UNL A   1     -23.183   1.694  30.180  0.00  0.00    -0.166 F 
ENDBRANCH   1  19
TORSDOF 6
ENDMDL
ENDMDL
