REMARK  Name = outputs/IAG933/test6/raw/output_399_IAG933_linker_design_.xyz
REMARK  11 active torsions:
REMARK  status: ('A' for Active; 'I' for Inactive)
REMARK    1  A    between atoms: C_1  and  C_2
REMARK    2  A    between atoms: C_1  and  C_8
REMARK    3  A    between atoms: C_9  and  C_29
REMARK    4  A    between atoms: C_13  and  C_46
REMARK    5  A    between atoms: C_14  and  C_15
REMARK    6  A    between atoms: C_21  and  O_22
REMARK    7  A    between atoms: O_22  and  C_23
REMARK    8  A    between atoms: C_23  and  C_24
REMARK    9  A    between atoms: C_29  and  C_39
REMARK   10  A    between atoms: C_29  and  O_43
REMARK   11  A    between atoms: C_42  and  O_43
REMARK                            x       y       z     vdW  Elec       q    Type
REMARK                         _______ _______ _______ _____ _____    ______ ____
ROOT
ATOM      1  C   UNL A   1     -24.942   1.692  31.013  0.00  0.00    +0.176 C 
ENDROOT
BRANCH   1   7
ATOM      2  C   UNL A   1     -25.806   6.703  33.153  0.00  0.00    +0.095 C 
ATOM      3  C   UNL A   1     -25.384   3.808  32.281  0.00  0.00    +0.234 C 
ATOM      4  N   UNL A   1     -26.311   4.366  33.187  0.00  0.00    -0.230 N 
ATOM      5  C   UNL A   1     -28.194   3.395  32.156  0.00  0.00    +0.023 C 
ATOM      6  O   UNL A   1     -24.152   3.786  32.463  0.00  0.00    -0.274 OA
ATOM      7  C   UNL A   1     -25.868   3.060  31.079  0.00  0.00    +0.117 C 
ATOM      8  O   UNL A   1     -25.793   5.893  35.439  0.00  0.00    -0.275 OA
ATOM      9  C   UNL A   1     -27.344   2.509  31.130  0.00  0.00    +0.015 C 
ATOM     10  C   UNL A   1     -27.650   4.789  32.588  0.00  0.00    +0.101 C 
ATOM     11  C   UNL A   1     -25.952   5.545  34.046  0.00  0.00    +0.232 C 
ENDBRANCH   1   7
BRANCH   1  13
ATOM     12  C   UNL A   1     -25.387  -0.679  31.571  0.00  0.00    +0.081 C 
ATOM     13  C   UNL A   1     -25.189   0.773  32.028  0.00  0.00    +0.058 C 
ATOM     14  C   UNL A   1     -25.336   0.684  33.544  0.00  0.00    +0.024 C 
ATOM     15  C   UNL A   1     -24.829  -0.715  33.905  0.00  0.00    +0.089 C 
ATOM     16  N   UNL A   1     -24.758  -1.481  32.646  0.00  0.00    -0.219 NA
BRANCH  12  17
ATOM     17  C   UNL A   1     -24.855  -1.012  30.143  0.00  0.00    +0.044 C 
BRANCH  17  18
ATOM     18  C   UNL A   1     -24.973  -2.505  29.788  0.00  0.00    -0.021 C 
ATOM     19  C   UNL A   1     -23.906  -3.173  29.146  0.00  0.00    -0.004 C 
ATOM     20  C   UNL A   1     -23.989  -4.549  28.853  0.00  0.00    -0.000 C 
ATOM     21  C   UNL A   1     -25.137  -5.280  29.205  0.00  0.00    -0.000 C 
ATOM     22  C   UNL A   1     -26.232  -4.611  29.784  0.00  0.00    -0.000 C 
ATOM     23  C   UNL A   1     -26.155  -3.232  30.065  0.00  0.00    -0.004 C 
ENDBRANCH  17  18
ENDBRANCH  12  17
ENDBRANCH   1  13
BRANCH   1  24
ATOM     24  O   UNL A   1     -24.428   1.624  29.649  0.00  0.00    -0.478 OA
BRANCH  24  30
ATOM     25  C   UNL A   1     -21.842   2.077  25.976  0.00  0.00    +0.001 C 
ATOM     26  C   UNL A   1     -22.303   1.233  28.379  0.00  0.00    +0.123 C 
ATOM     27  C   UNL A   1     -23.283   1.986  25.708  0.00  0.00    -0.001 C 
ATOM     28  N   UNL A   1     -21.953   0.486  29.476  0.00  0.00    -0.125 NA
ATOM     29  C   UNL A   1     -21.356   1.622  27.307  0.00  0.00    +0.021 C 
ATOM     30  C   UNL A   1     -23.715   1.497  28.308  0.00  0.00    +0.151 C 
ATOM     31  C   UNL A   1     -24.205   1.661  26.851  0.00  0.00    +0.020 C 
BRANCH  31  32
ATOM     32  C   UNL A   1     -25.688   1.614  26.461  0.00  0.00    +0.095 C 
ATOM     33  C   UNL A   1     -26.250   2.920  26.395  0.00  0.00    +0.059 C 
ATOM     34  C   UNL A   1     -27.438   3.091  25.645  0.00  0.00    +0.102 C 
ATOM     35  N   UNL A   1     -28.075   2.089  25.003  0.00  0.00    -0.212 NA
ATOM     36  C   UNL A   1     -27.543   0.849  25.079  0.00  0.00    +0.234 C 
ATOM     37  C   UNL A   1     -26.354   0.576  25.777  0.00  0.00    +0.244 C 
ATOM     38  F   UNL A   1     -25.860  -0.681  25.795  0.00  0.00    -0.227 F 
BRANCH  33  39
ATOM     39  C   UNL A   1     -25.642   4.093  27.123  0.00  0.00    +0.263 C 
ATOM     40  N   UNL A   1     -25.614   5.252  26.449  0.00  0.00    -0.200 NA
ATOM     41  C   UNL A   1     -25.026   6.479  26.963  0.00  0.00    +0.139 C 
ATOM     42  O   UNL A   1     -25.143   3.966  28.243  0.00  0.00    -0.269 OA
ENDBRANCH  33  39
BRANCH  36  43
ATOM     43  O   UNL A   1     -28.193  -0.208  24.477  0.00  0.00    -0.459 OA
BRANCH  43  44
ATOM     44  C   UNL A   1     -29.460   0.005  23.866  0.00  0.00    +0.242 C 
BRANCH  44  45
ATOM     45  C   UNL A   1     -30.065  -1.377  23.573  0.00  0.00    +0.229 C 
ATOM     46  O   UNL A   1     -30.729  -1.878  24.721  0.00  0.00    -0.216 OA
ENDBRANCH  44  45
ENDBRANCH  43  44
ENDBRANCH  36  43
ENDBRANCH  31  32
ENDBRANCH  24  30
ENDBRANCH   1  24
TORSDOF 11
