MODEL 3990
MODEL 1
REMARK VINA RESULT:    -6.225      0.000      0.000
REMARK INTER + INTRA:          -9.119
REMARK INTER:                  -8.409
REMARK INTRA:                  -0.710
REMARK UNBOUND:                -0.710
REMARK  Name = No_3990-gen_results/8p0m/2024-11-27-11-27-31/
REMARK  6 active torsions:
REMARK  status: ('A' for Active; 'I' for Inactive)
REMARK    1  A    between atoms: C_2  and  C_13
REMARK    2  A    between atoms: C_4  and  C_6
REMARK    3  A    between atoms: C_13  and  O_15
REMARK    4  A    between atoms: O_15  and  C_16
REMARK    5  A    between atoms: C_16  and  C_17
REMARK    6  A    between atoms: C_17  and  C_18
REMARK                            x       y       z     vdW  Elec       q    Type
REMARK                         _______ _______ _______ _____ _____    ______ ____
ROOT
ATOM      1  C   UNL A   1     -29.246 -10.493  32.679  0.00  0.00    +0.006 A 
ATOM      2  C   UNL A   1     -28.461 -11.191  32.767  0.00  0.00    +0.076 A 
ATOM      3  C   UNL A   1     -29.758 -10.265  31.275  0.00  0.00    +0.000 A 
ATOM      4  C   UNL A   1     -29.277 -11.074  30.224  0.00  0.00    +0.000 A 
ATOM      5  C   UNL A   1     -27.817 -12.170  31.862  0.00  0.00    +0.006 A 
ATOM      6  C   UNL A   1     -28.292 -12.007  30.538  0.00  0.00    +0.000 A 
ENDROOT
BRANCH   4   7
ATOM      7  C   UNL A   1     -29.720 -10.925  28.889  0.00  0.00    +0.000 A 
ATOM      8  C   UNL A   1     -30.791 -10.313  28.564  0.00  0.00    +0.000 A 
ATOM      9  C   UNL A   1     -31.162 -10.016  27.168  0.00  0.00    +0.000 A 
ATOM     10  C   UNL A   1     -29.347 -12.185  28.138  0.00  0.00    +0.000 A 
ATOM     11  C   UNL A   1     -29.399 -11.776  26.591  0.00  0.00    +0.000 A 
ATOM     12  C   UNL A   1     -30.447 -10.863  26.241  0.00  0.00    +0.000 A 
ENDBRANCH   4   7
BRANCH   2  13
ATOM     13  C   UNL A   1     -27.851 -11.384  34.257  0.00  0.00    +0.341 C 
ATOM     14  O   UNL A   1     -27.255 -12.303  34.628  0.00  0.00    -0.245 OA
BRANCH  13  15
ATOM     15  O   UNL A   1     -27.842 -10.273  34.966  0.00  0.00    -0.445 OA
BRANCH  15  16
ATOM     16  C   UNL A   1     -26.792  -9.441  34.984  0.00  0.00    +0.215 C 
BRANCH  16  17
ATOM     17  C   UNL A   1     -26.900  -8.299  35.586  0.00  0.00    +0.096 C 
BRANCH  17  18
ATOM     18  C   UNL A   1     -28.007  -8.088  36.417  0.00  0.00    +0.100 C 
ATOM     19  N   UNL A   1     -28.078  -7.171  37.099  0.00  0.00    -0.151 NA
ENDBRANCH  17  18
ENDBRANCH  16  17
ENDBRANCH  15  16
ENDBRANCH  13  15
ENDBRANCH   2  13
TORSDOF 6
ENDMDL
ENDMDL
