REMARK  Name = No_3991-gen_results/8p0m/2024-11-27-11-27-31/
REMARK  1 active torsions:
REMARK  status: ('A' for Active; 'I' for Inactive)
REMARK    1  A    between atoms: C_3  and  C_4
REMARK                            x       y       z     vdW  Elec       q    Type
REMARK                         _______ _______ _______ _____ _____    ______ ____
ROOT
ATOM      1 BR   UNL A   1     -28.115  -0.626  29.081  0.00  0.00    -0.049 Br
ATOM      2  C   UNL A   1     -28.069   0.210  30.172  0.00  0.00    +0.036 C 
ATOM      3  C   UNL A   1     -27.520   1.489  30.013  0.00  0.00    -0.019 C 
ENDROOT
BRANCH   3   4
ATOM      4  C   UNL A   1     -27.013   1.902  28.790  0.00  0.00    +0.027 C 
ATOM      5  C   UNL A   1     -27.043   0.997  27.711  0.00  0.00    +0.005 C 
ENDBRANCH   3   4
TORSDOF 1
