MODEL 3991
MODEL 1
REMARK VINA RESULT:    -3.591      0.000      0.000
REMARK INTER + INTRA:          -3.840
REMARK INTER:                  -3.801
REMARK INTRA:                  -0.039
REMARK UNBOUND:                -0.039
REMARK  Name = No_3991-gen_results/8p0m/2024-11-27-11-27-31/
REMARK  1 active torsions:
REMARK  status: ('A' for Active; 'I' for Inactive)
REMARK    1  A    between atoms: C_3  and  C_4
REMARK                            x       y       z     vdW  Elec       q    Type
REMARK                         _______ _______ _______ _____ _____    ______ ____
ROOT
ATOM      1 BR   UNL A   1      -9.253 -10.504  17.539  0.00  0.00    -0.049 Br
ATOM      2  C   UNL A   1     -10.033  -9.768  18.399  0.00  0.00    +0.036 C 
ATOM      3  C   UNL A   1      -9.448  -9.263  19.568  0.00  0.00    -0.019 C 
ENDROOT
BRANCH   3   4
ATOM      4  C   UNL A   1      -8.117  -9.515  19.866  0.00  0.00    +0.027 C 
ATOM      5  C   UNL A   1      -7.211  -8.436  19.856  0.00  0.00    +0.005 C 
ENDBRANCH   3   4
TORSDOF 1
ENDMDL
ENDMDL
