MODEL 3992
MODEL 1
REMARK VINA RESULT:    -7.771      0.000      0.000
REMARK INTER + INTRA:         -15.489
REMARK INTER:                 -10.951
REMARK INTRA:                  -4.538
REMARK UNBOUND:                -4.538
REMARK  Name = No_3992-gen_results/8p0m/2024-11-27-11-27-31/
REMARK  7 active torsions:
REMARK  status: ('A' for Active; 'I' for Inactive)
REMARK    1  A    between atoms: C_2  and  C_5
REMARK    2  A    between atoms: C_3  and  C_10
REMARK    3  A    between atoms: C_10  and  C_11
REMARK    4  A    between atoms: C_10  and  C_12
REMARK    5  A    between atoms: C_12  and  C_13
REMARK    6  A    between atoms: C_13  and  C_14
REMARK    7  A    between atoms: C_20  and  C_22
REMARK                            x       y       z     vdW  Elec       q    Type
REMARK                         _______ _______ _______ _____ _____    ______ ____
ROOT
ATOM      1  C   UNL A   1     -24.786   0.015  28.030  0.00  0.00    +0.045 C 
ENDROOT
BRANCH   1   4
ATOM      2  C   UNL A   1     -24.753  -2.509  28.481  0.00  0.00    +0.003 A 
ATOM      3  C   UNL A   1     -25.130  -3.299  29.069  0.00  0.00    +0.080 A 
ATOM      4  C   UNL A   1     -25.381  -1.214  28.769  0.00  0.00    -0.018 A 
ATOM      5  C   UNL A   1     -26.446  -1.095  29.563  0.00  0.00    -0.004 A 
ATOM      6  C   UNL A   1     -26.870  -2.213  30.214  0.00  0.00    -0.000 A 
ATOM      7  C   UNL A   1     -26.215  -3.370  29.977  0.00  0.00    +0.007 A 
BRANCH   3   8
ATOM      8  C   UNL A   1     -24.514  -4.755  28.893  0.00  0.00    +0.388 C 
ATOM      9  O   UNL A   1     -23.525  -4.796  28.318  0.00  0.00    -0.241 OA
ATOM     10  O   UNL A   1     -25.041  -5.738  29.585  0.00  0.00    -0.241 OA
ENDBRANCH   3   8
ENDBRANCH   1   4
BRANCH   1  11
ATOM     11  C   UNL A   1     -25.301   0.518  26.935  0.00  0.00    -0.018 A 
ATOM     12  C   UNL A   1     -26.178   1.423  27.061  0.00  0.00    -0.004 A 
ATOM     13  C   UNL A   1     -25.342  -0.300  25.780  0.00  0.00    -0.004 A 
ATOM     14  C   UNL A   1     -26.168   0.028  24.718  0.00  0.00    -0.000 A 
ATOM     15  C   UNL A   1     -26.915   1.151  24.738  0.00  0.00    -0.000 A 
ATOM     16  C   UNL A   1     -26.979   1.946  25.888  0.00  0.00    -0.000 A 
BRANCH  12  17
ATOM     17  C   UNL A   1     -26.325   2.339  28.221  0.00  0.00    -0.000 A 
ATOM     18  C   UNL A   1     -25.709   3.559  28.270  0.00  0.00    -0.000 A 
ATOM     19  C   UNL A   1     -25.969   4.403  29.288  0.00  0.00    -0.000 A 
ATOM     20  C   UNL A   1     -26.948   4.076  30.272  0.00  0.00    -0.000 A 
ATOM     21  C   UNL A   1     -27.583   2.834  30.247  0.00  0.00    -0.000 A 
ATOM     22  C   UNL A   1     -27.281   1.975  29.192  0.00  0.00    -0.000 A 
ENDBRANCH  12  17
ENDBRANCH   1  11
BRANCH   1  23
ATOM     23  C   UNL A   1     -23.638   0.668  28.594  0.00  0.00    +0.013 C 
ATOM     24  C   UNL A   1     -22.487   0.830  27.806  0.00  0.00    +0.001 C 
BRANCH  23  25
ATOM     25  C   UNL A   1     -23.545   1.166  29.941  0.00  0.00    +0.027 C 
BRANCH  25  26
ATOM     26  C   UNL A   1     -23.621   0.535  31.061  0.00  0.00    -0.022 A 
ATOM     27  C   UNL A   1     -22.958  -0.653  31.323  0.00  0.00    -0.004 A 
ATOM     28  C   UNL A   1     -23.224  -1.384  32.523  0.00  0.00    -0.000 A 
ATOM     29  C   UNL A   1     -24.188  -0.934  33.437  0.00  0.00    -0.000 A 
ATOM     30  C   UNL A   1     -25.034   0.138  33.045  0.00  0.00    -0.000 A 
ATOM     31  C   UNL A   1     -24.835   0.760  31.865  0.00  0.00    -0.004 A 
ENDBRANCH  25  26
ENDBRANCH  23  25
ENDBRANCH   1  23
TORSDOF 7
ENDMDL
ENDMDL
