REMARK  Name = outputs/IAG933/test6/raw/output_3993_IAG933_linker_design_.xyz
REMARK  13 active torsions:
REMARK  status: ('A' for Active; 'I' for Inactive)
REMARK    1  A    between atoms: C_1  and  C_2
REMARK    2  A    between atoms: C_1  and  C_8
REMARK    3  A    between atoms: C_1  and  N_29
REMARK    4  A    between atoms: C_14  and  C_15
REMARK    5  A    between atoms: C_15  and  O_18
REMARK    6  A    between atoms: O_18  and  C_42
REMARK    7  A    between atoms: C_21  and  O_22
REMARK    8  A    between atoms: O_22  and  C_23
REMARK    9  A    between atoms: C_23  and  C_24
REMARK   10  A    between atoms: N_35  and  C_39
REMARK   11  A    between atoms: C_37  and  C_42
REMARK   12  A    between atoms: C_42  and  C_49
REMARK   13  A    between atoms: C_43  and  C_49
REMARK                            x       y       z     vdW  Elec       q    Type
REMARK                         _______ _______ _______ _____ _____    ______ ____
ROOT
ATOM      1  C   UNL A   1     -24.885   3.050  29.339  0.00  0.00    +0.169 C 
ENDROOT
BRANCH   1   6
ATOM      2  N   UNL A   1     -24.197   0.031  29.374  0.00  0.00    -0.270 NA
ATOM      3  C   UNL A   1     -22.904   1.596  26.135  0.00  0.00    +0.002 C 
ATOM      4  C   UNL A   1     -21.134   1.217  27.815  0.00  0.00    +0.001 C 
ATOM      5  C   UNL A   1     -21.921   0.398  28.855  0.00  0.00    +0.017 C 
ATOM      6  C   UNL A   1     -23.881   2.150  28.446  0.00  0.00    +0.056 C 
ATOM      7  C   UNL A   1     -23.003   0.506  30.079  0.00  0.00    +0.072 C 
ATOM      8  C   UNL A   1     -21.456   1.686  26.385  0.00  0.00    +0.000 C 
ATOM      9  C   UNL A   1     -23.651   1.380  27.267  0.00  0.00    +0.020 C 
ATOM     10  C   UNL A   1     -24.626   0.844  28.419  0.00  0.00    +0.061 C 
BRANCH   2  11
ATOM     11  C   UNL A   1     -24.855  -1.012  30.143  0.00  0.00    +0.096 C 
BRANCH  11  12
ATOM     12  C   UNL A   1     -24.973  -2.505  29.788  0.00  0.00    -0.006 C 
ATOM     13  C   UNL A   1     -23.906  -3.173  29.146  0.00  0.00    -0.003 C 
ATOM     14  C   UNL A   1     -23.989  -4.549  28.853  0.00  0.00    -0.000 C 
ATOM     15  C   UNL A   1     -25.137  -5.280  29.205  0.00  0.00    -0.000 C 
ATOM     16  C   UNL A   1     -26.232  -4.611  29.784  0.00  0.00    -0.000 C 
ATOM     17  C   UNL A   1     -26.155  -3.232  30.065  0.00  0.00    -0.003 C 
ENDBRANCH  11  12
BRANCH  11  18
ATOM     18  C   UNL A   1     -25.387  -0.679  31.571  0.00  0.00    +0.092 C 
ATOM     19  C   UNL A   1     -25.189   0.773  32.028  0.00  0.00    +0.021 C 
ATOM     20  C   UNL A   1     -25.336   0.684  33.544  0.00  0.00    +0.020 C 
ATOM     21  C   UNL A   1     -24.829  -0.715  33.905  0.00  0.00    +0.089 C 
ATOM     22  N   UNL A   1     -24.758  -1.481  32.646  0.00  0.00    -0.218 NA
ENDBRANCH  11  18
ENDBRANCH   2  11
ENDBRANCH   1   6
BRANCH   1  23
ATOM     23  O   UNL A   1     -25.143   3.966  28.243  0.00  0.00    -0.464 OA
BRANCH  23  24
ATOM     24  C   UNL A   1     -25.642   4.093  27.123  0.00  0.00    +0.222 C 
ATOM     25  N   UNL A   1     -25.614   5.252  26.449  0.00  0.00    -0.236 NA
ATOM     26  C   UNL A   1     -25.026   6.479  26.963  0.00  0.00    +0.155 C 
BRANCH  24  28
ATOM     27  C   UNL A   1     -25.688   1.614  26.461  0.00  0.00    +0.041 C 
ATOM     28  C   UNL A   1     -26.250   2.920  26.395  0.00  0.00    +0.074 C 
ATOM     29  C   UNL A   1     -27.438   3.091  25.645  0.00  0.00    +0.107 C 
ATOM     30  N   UNL A   1     -28.075   2.089  25.003  0.00  0.00    -0.208 NA
ATOM     31  C   UNL A   1     -27.543   0.849  25.079  0.00  0.00    +0.253 C 
ATOM     32  C   UNL A   1     -26.354   0.576  25.777  0.00  0.00    +0.193 C 
ATOM     33  F   UNL A   1     -25.860  -0.681  25.795  0.00  0.00    -0.199 F 
BRANCH  31  34
ATOM     34  O   UNL A   1     -28.193  -0.208  24.477  0.00  0.00    -0.456 OA
BRANCH  34  35
ATOM     35  C   UNL A   1     -29.460   0.005  23.866  0.00  0.00    +0.243 C 
BRANCH  35  36
ATOM     36  C   UNL A   1     -30.065  -1.377  23.573  0.00  0.00    +0.229 C 
ATOM     37  O   UNL A   1     -30.729  -1.878  24.721  0.00  0.00    -0.216 OA
ENDBRANCH  35  36
ENDBRANCH  34  35
ENDBRANCH  31  34
ENDBRANCH  24  28
ENDBRANCH  23  24
ENDBRANCH   1  23
BRANCH   1  38
ATOM     38  C   UNL A   1     -25.929   3.801  30.355  0.00  0.00    +0.045 C 
BRANCH  38  46
ATOM     39  O   UNL A   1     -28.494   6.474  28.350  0.00  0.00    -0.222 OA
ATOM     40  C   UNL A   1     -28.917   5.441  29.335  0.00  0.00    +0.168 C 
ATOM     41  C   UNL A   1     -28.254   4.493  30.444  0.00  0.00    +0.047 C 
ATOM     42  C   UNL A   1     -29.032   2.497  31.613  0.00  0.00    +0.016 C 
ATOM     43  N   UNL A   1     -29.656   3.224  29.242  0.00  0.00    -0.246 NA
ATOM     44  C   UNL A   1     -28.571   3.275  30.334  0.00  0.00    +0.050 C 
ATOM     45  C   UNL A   1     -30.920   4.825  27.799  0.00  0.00    +0.020 C 
ATOM     46  C   UNL A   1     -27.284   3.318  29.859  0.00  0.00    +0.021 C 
ATOM     47  C   UNL A   1     -29.616   4.392  28.424  0.00  0.00    +0.090 C 
BRANCH  43  48
ATOM     48  C   UNL A   1     -29.983   2.027  28.512  0.00  0.00    +0.259 C 
ATOM     49  O   UNL A   1     -28.846   1.500  27.904  0.00  0.00    -0.201 OA
ENDBRANCH  43  48
ENDBRANCH  38  46
ENDBRANCH   1  38
TORSDOF 13
