MODEL 3993
MODEL 1
REMARK VINA RESULT:    -6.890      0.000      0.000
REMARK INTER + INTRA:          -8.282
REMARK INTER:                  -7.695
REMARK INTRA:                  -0.587
REMARK UNBOUND:                -0.587
REMARK  Name = No_3993-gen_results/8p0m/2024-11-27-11-27-31/
REMARK  2 active torsions:
REMARK  status: ('A' for Active; 'I' for Inactive)
REMARK    1  A    between atoms: C_3  and  C_7
REMARK    2  A    between atoms: C_7  and  C_8
REMARK                            x       y       z     vdW  Elec       q    Type
REMARK                         _______ _______ _______ _____ _____    ______ ____
ROOT
ATOM      1  C   UNL A   1     -23.341  -1.369  28.906  0.00  0.00    +0.045 C 
ATOM      2  C   UNL A   1     -22.804  -0.822  30.333  0.00  0.00    +0.009 C 
ENDROOT
BRANCH   1   5
ATOM      3  C   UNL A   1     -24.689  -4.783  28.816  0.00  0.00    -0.000 A 
ATOM      4  C   UNL A   1     -23.941  -3.834  28.756  0.00  0.00    -0.004 A 
ATOM      5  C   UNL A   1     -24.261  -2.541  29.131  0.00  0.00    -0.018 A 
ATOM      6  C   UNL A   1     -25.569  -2.323  29.657  0.00  0.00    -0.004 A 
ATOM      7  C   UNL A   1     -26.322  -3.416  29.861  0.00  0.00    -0.000 A 
ATOM      8  C   UNL A   1     -25.920  -4.605  29.516  0.00  0.00    -0.000 A 
ENDBRANCH   1   5
BRANCH   1   9
ATOM      9  C   UNL A   1     -23.805  -0.196  28.441  0.00  0.00    -0.018 A 
ATOM     10  C   UNL A   1     -24.387   0.022  27.189  0.00  0.00    -0.004 A 
ATOM     11  C   UNL A   1     -24.190   1.220  26.458  0.00  0.00    -0.000 A 
ATOM     12  C   UNL A   1     -23.322   1.726  26.204  0.00  0.00    -0.000 A 
ATOM     13  C   UNL A   1     -22.370   1.854  27.390  0.00  0.00    -0.000 A 
ATOM     14  C   UNL A   1     -22.664   0.939  28.623  0.00  0.00    -0.004 A 
ENDBRANCH   1   9
TORSDOF 2
ENDMDL
ENDMDL
