MODEL 3994
MODEL 1
REMARK VINA RESULT:    -8.451      0.000      0.000
REMARK INTER + INTRA:          -8.912
REMARK INTER:                  -9.686
REMARK INTRA:                   0.774
REMARK UNBOUND:                 0.774
REMARK  Name = No_3994-gen_results/8p0m/2024-11-27-11-27-31/
REMARK  4 active torsions:
REMARK  status: ('A' for Active; 'I' for Inactive)
REMARK    1  A    between atoms: C_5  and  C_9
REMARK    2  A    between atoms: N_7  and  C_15
REMARK    3  A    between atoms: C_15  and  C_16
REMARK    4  A    between atoms: C_19  and  C_21
REMARK                            x       y       z     vdW  Elec       q    Type
REMARK                         _______ _______ _______ _____ _____    ______ ____
ROOT
ATOM      1  C   UNL A   1     -25.689  -2.974  30.004  0.00  0.00    +0.049 A 
ATOM      2  C   UNL A   1     -26.115  -4.072  29.730  0.00  0.00    +0.040 A 
ATOM      3  C   UNL A   1     -27.381  -4.508  30.071  0.00  0.00    +0.001 A 
ATOM      4  C   UNL A   1     -28.240  -3.597  30.748  0.00  0.00    +0.006 A 
ATOM      5  C   UNL A   1     -27.780  -2.331  30.880  0.00  0.00    +0.081 A 
ATOM      6  C   UNL A   1     -26.568  -1.992  30.485  0.00  0.00    +0.021 A 
ATOM      7  N   UNL A   1     -24.388  -2.597  29.603  0.00  0.00    -0.285 N 
ATOM      8  C   UNL A   1     -23.532  -2.806  29.060  0.00  0.00    +0.186 C 
ATOM      9  N   UNL A   1     -23.659  -4.214  28.680  0.00  0.00    -0.162 NA
ATOM     10  C   UNL A   1     -24.900  -4.902  28.955  0.00  0.00    +0.261 C 
ATOM     11  F   UNL A   1     -25.108  -6.104  28.598  0.00  0.00    -0.213 F 
ENDROOT
BRANCH   5  12
ATOM     12  C   UNL A   1     -28.704  -1.391  31.565  0.00  0.00    +0.388 C 
ATOM     13  O   UNL A   1     -29.680  -1.679  32.217  0.00  0.00    -0.241 OA
ATOM     14  O   UNL A   1     -28.568  -0.120  31.308  0.00  0.00    -0.241 OA
ENDBRANCH   5  12
BRANCH   7  15
ATOM     15  C   UNL A   1     -24.096  -1.001  30.175  0.00  0.00    +0.179 C 
BRANCH  15  16
ATOM     16  C   UNL A   1     -23.059  -0.311  29.544  0.00  0.00    +0.252 C 
ATOM     17  O   UNL A   1     -21.976  -0.418  29.788  0.00  0.00    -0.273 OA
ATOM     18  N   UNL A   1     -23.512   0.576  28.662  0.00  0.00    -0.223 N 
ATOM     19  C   UNL A   1     -24.807   0.865  28.273  0.00  0.00    +0.255 C 
ATOM     20  C   UNL A   1     -22.483   1.432  27.943  0.00  0.00    +0.123 C 
ATOM     21  O   UNL A   1     -25.415   1.404  29.192  0.00  0.00    -0.270 OA
BRANCH  19  22
ATOM     22  C   UNL A   1     -25.230   0.617  27.026  0.00  0.00    +0.054 A 
ATOM     23  C   UNL A   1     -24.730   0.310  26.059  0.00  0.00    +0.004 A 
ATOM     24  C   UNL A   1     -25.276   0.005  24.734  0.00  0.00    +0.000 A 
ATOM     25  C   UNL A   1     -26.649   0.064  24.707  0.00  0.00    +0.000 A 
ATOM     26  C   UNL A   1     -27.389   0.372  25.805  0.00  0.00    +0.000 A 
ATOM     27  C   UNL A   1     -26.748   0.619  26.957  0.00  0.00    +0.004 A 
ENDBRANCH  19  22
ENDBRANCH  15  16
ENDBRANCH   7  15
TORSDOF 4
ENDMDL
ENDMDL
