MODEL 3995
MODEL 1
REMARK VINA RESULT:    -7.551      0.000      0.000
REMARK INTER + INTRA:         -12.566
REMARK INTER:                  -9.758
REMARK INTRA:                  -2.808
REMARK UNBOUND:                -2.808
REMARK  Name = No_3995-gen_results/8p0m/2024-11-27-11-27-31/
REMARK  5 active torsions:
REMARK  status: ('A' for Active; 'I' for Inactive)
REMARK    1  A    between atoms: C_3  and  C_7
REMARK    2  A    between atoms: C_7  and  C_8
REMARK    3  A    between atoms: C_7  and  C_9
REMARK    4  A    between atoms: C_8  and  C_10
REMARK    5  A    between atoms: C_9  and  C_17
REMARK                            x       y       z     vdW  Elec       q    Type
REMARK                         _______ _______ _______ _____ _____    ______ ____
ROOT
ATOM      1  C   UNL A   1     -23.790  -1.407  29.908  0.00  0.00    +0.031 C 
ENDROOT
BRANCH   1   4
ATOM      2  C   UNL A   1     -23.832  -3.642  28.929  0.00  0.00    -0.004 A 
ATOM      3  C   UNL A   1     -24.307  -4.571  28.785  0.00  0.00    -0.000 A 
ATOM      4  C   UNL A   1     -24.540  -2.642  29.632  0.00  0.00    -0.022 A 
ATOM      5  C   UNL A   1     -25.819  -2.851  30.109  0.00  0.00    -0.004 A 
ATOM      6  C   UNL A   1     -26.366  -4.104  29.881  0.00  0.00    -0.000 A 
ATOM      7  C   UNL A   1     -25.623  -5.061  29.223  0.00  0.00    -0.000 A 
ENDBRANCH   1   4
BRANCH   1   8
ATOM      8  C   UNL A   1     -23.921  -0.714  31.142  0.00  0.00    +0.027 C 
ATOM      9  C   UNL A   1     -23.240  -1.294  32.271  0.00  0.00    +0.005 C 
BRANCH   8  10
ATOM     10  C   UNL A   1     -24.413   0.548  31.159  0.00  0.00    -0.022 A 
ATOM     11  C   UNL A   1     -24.132   1.481  31.417  0.00  0.00    -0.004 A 
ATOM     12  C   UNL A   1     -24.859   2.754  31.432  0.00  0.00    -0.000 A 
ATOM     13  C   UNL A   1     -25.687   2.780  30.765  0.00  0.00    -0.000 A 
ATOM     14  C   UNL A   1     -25.883   0.650  30.413  0.00  0.00    -0.004 A 
ATOM     15  C   UNL A   1     -26.524   1.743  30.313  0.00  0.00    -0.000 A 
ENDBRANCH   8  10
ENDBRANCH   1   8
BRANCH   1  16
ATOM     16  C   UNL A   1     -22.689  -1.026  29.083  0.00  0.00    +0.031 C 
BRANCH  16  17
ATOM     17  C   UNL A   1     -22.993   0.154  28.187  0.00  0.00    -0.022 A 
ATOM     18  C   UNL A   1     -22.282   1.078  28.113  0.00  0.00    -0.004 A 
ATOM     19  C   UNL A   1     -22.622   2.186  27.144  0.00  0.00    -0.000 A 
ATOM     20  C   UNL A   1     -23.866   2.154  26.480  0.00  0.00    -0.000 A 
ATOM     21  C   UNL A   1     -24.239   0.108  27.392  0.00  0.00    -0.004 A 
ATOM     22  C   UNL A   1     -24.627   1.058  26.548  0.00  0.00    -0.000 A 
ENDBRANCH  16  17
ENDBRANCH   1  16
TORSDOF 5
ENDMDL
ENDMDL
