REMARK  Name = No_3995-gen_results/8p0m/2024-11-27-11-27-31/
REMARK  5 active torsions:
REMARK  status: ('A' for Active; 'I' for Inactive)
REMARK    1  A    between atoms: C_3  and  C_7
REMARK    2  A    between atoms: C_7  and  C_8
REMARK    3  A    between atoms: C_7  and  C_9
REMARK    4  A    between atoms: C_8  and  C_10
REMARK    5  A    between atoms: C_9  and  C_17
REMARK                            x       y       z     vdW  Elec       q    Type
REMARK                         _______ _______ _______ _____ _____    ______ ____
ROOT
ATOM      1  C   UNL A   1     -26.441   0.088  27.247  0.00  0.00    +0.031 C 
ENDROOT
BRANCH   1   4
ATOM      2  C   UNL A   1     -28.016  -0.814  28.878  0.00  0.00    -0.004 A 
ATOM      3  C   UNL A   1     -28.469  -0.785  29.829  0.00  0.00    -0.000 A 
ATOM      4  C   UNL A   1     -27.136   0.236  28.535  0.00  0.00    -0.022 A 
ATOM      5  C   UNL A   1     -26.875   1.282  29.398  0.00  0.00    -0.004 A 
ATOM      6  C   UNL A   1     -27.507   1.238  30.630  0.00  0.00    -0.000 A 
ATOM      7  C   UNL A   1     -28.329   0.174  30.935  0.00  0.00    -0.000 A 
ENDBRANCH   1   4
BRANCH   1   8
ATOM      8  C   UNL A   1     -26.931   0.694  26.059  0.00  0.00    +0.027 C 
ATOM      9  C   UNL A   1     -26.142   0.491  24.871  0.00  0.00    +0.005 C 
BRANCH   8  10
ATOM     10  C   UNL A   1     -28.197   1.175  26.018  0.00  0.00    -0.022 A 
ATOM     11  C   UNL A   1     -29.089   0.961  25.600  0.00  0.00    -0.004 A 
ATOM     12  C   UNL A   1     -30.372   1.670  25.615  0.00  0.00    -0.000 A 
ATOM     13  C   UNL A   1     -30.492   2.318  26.449  0.00  0.00    -0.000 A 
ATOM     14  C   UNL A   1     -28.418   2.429  27.070  0.00  0.00    -0.004 A 
ATOM     15  C   UNL A   1     -29.532   3.027  27.196  0.00  0.00    -0.000 A 
ENDBRANCH   8  10
ENDBRANCH   1   8
BRANCH   1  16
ATOM     16  C   UNL A   1     -25.103  -0.409  27.197  0.00  0.00    +0.031 C 
BRANCH  16  17
ATOM     17  C   UNL A   1     -24.532  -0.727  28.561  0.00  0.00    -0.022 A 
ATOM     18  C   UNL A   1     -24.406  -1.824  28.943  0.00  0.00    -0.004 A 
ATOM     19  C   UNL A   1     -23.765  -2.061  30.290  0.00  0.00    -0.000 A 
ATOM     20  C   UNL A   1     -23.489  -0.953  31.118  0.00  0.00    -0.000 A 
ATOM     21  C   UNL A   1     -24.130   0.409  29.419  0.00  0.00    -0.004 A 
ATOM     22  C   UNL A   1     -23.596   0.285  30.628  0.00  0.00    -0.000 A 
ENDBRANCH  16  17
ENDBRANCH   1  16
TORSDOF 5
