MODEL 3997
MODEL 1
REMARK VINA RESULT:    -6.787      0.000      0.000
REMARK INTER + INTRA:          -7.990
REMARK INTER:                  -7.581
REMARK INTRA:                  -0.409
REMARK UNBOUND:                -0.409
REMARK  Name = No_3997-gen_results/8p0m/2024-11-27-11-27-31/
REMARK  2 active torsions:
REMARK  status: ('A' for Active; 'I' for Inactive)
REMARK    1  A    between atoms: C_3  and  C_11
REMARK    2  A    between atoms: C_5  and  C_7
REMARK                            x       y       z     vdW  Elec       q    Type
REMARK                         _______ _______ _______ _____ _____    ______ ____
ROOT
ATOM      1  N   UNL A   1     -29.568  -9.556  31.883  0.00  0.00    -0.216 NA
ATOM      2  C   UNL A   1     -29.766 -10.331  30.945  0.00  0.00    +0.222 A 
ATOM      3  C   UNL A   1     -29.194 -11.442  30.682  0.00  0.00    +0.046 A 
ATOM      4  C   UNL A   1     -28.262 -11.948  31.705  0.00  0.00    +0.012 A 
ATOM      5  C   UNL A   1     -28.141 -11.176  32.799  0.00  0.00    +0.099 A 
ATOM      6  C   UNL A   1     -28.900 -10.082  32.931  0.00  0.00    +0.108 A 
ATOM      7  F   UNL A   1     -30.615  -9.823  29.884  0.00  0.00    -0.183 F 
ENDROOT
BRANCH   3   8
ATOM      8  C   UNL A   1     -29.336 -12.209  29.352  0.00  0.00    +0.004 A 
ATOM      9  C   UNL A   1     -30.000 -13.446  29.420  0.00  0.00    +0.003 A 
ATOM     10  C   UNL A   1     -30.185 -14.111  28.142  0.00  0.00    +0.042 A 
ATOM     11  C   UNL A   1     -29.701 -13.577  26.939  0.00  0.00    +0.196 A 
ATOM     12  C   UNL A   1     -29.065 -12.382  26.995  0.00  0.00    +0.042 A 
ATOM     13  C   UNL A   1     -28.866 -11.744  28.158  0.00  0.00    +0.003 A 
ATOM     14  O   UNL A   1     -29.863 -14.261  25.837  0.00  0.00    -0.287 OA
ENDBRANCH   3   8
BRANCH   5  15
ATOM     15  C   UNL A   1     -27.233 -11.688  33.832  0.00  0.00    +0.389 C 
ATOM     16  O   UNL A   1     -26.749 -12.648  33.666  0.00  0.00    -0.240 OA
ATOM     17  O   UNL A   1     -26.723 -10.875  34.752  0.00  0.00    -0.240 OA
ENDBRANCH   5  15
TORSDOF 2
ENDMDL
ENDMDL
