REMARK  Name = outputs/IAG933/test6/raw/output_3997_IAG933_linker_design_.xyz
REMARK  13 active torsions:
REMARK  status: ('A' for Active; 'I' for Inactive)
REMARK    1  A    between atoms: C_1  and  C_2
REMARK    2  A    between atoms: C_1  and  C_8
REMARK    3  A    between atoms: C_1  and  C_30
REMARK    4  A    between atoms: C_13  and  C_35
REMARK    5  A    between atoms: C_14  and  C_15
REMARK    6  A    between atoms: C_21  and  O_22
REMARK    7  A    between atoms: O_22  and  C_23
REMARK    8  A    between atoms: C_23  and  C_24
REMARK    9  A    between atoms: C_29  and  C_32
REMARK   10  A    between atoms: N_33  and  C_38
REMARK   11  A    between atoms: C_34  and  C_40
REMARK   12  A    between atoms: C_40  and  O_41
REMARK   13  A    between atoms: C_40  and  N_43
REMARK                            x       y       z     vdW  Elec       q    Type
REMARK                         _______ _______ _______ _____ _____    ______ ____
ROOT
ATOM      1  O   UNL A   1     -23.093   2.008  25.819  0.00  0.00    -0.287 OA
ATOM      2  C   UNL A   1     -24.404  -0.088  29.184  0.00  0.00    +0.001 C 
ATOM      3  C   UNL A   1     -22.618   0.809  27.781  0.00  0.00    +0.038 C 
ATOM      4  C   UNL A   1     -24.800   1.209  27.330  0.00  0.00    +0.041 C 
ATOM      5  C   UNL A   1     -25.332   0.608  28.477  0.00  0.00    +0.077 C 
ATOM      6  C   UNL A   1     -23.052   0.058  28.846  0.00  0.00    +0.001 C 
ATOM      7  C   UNL A   1     -23.479   1.429  26.914  0.00  0.00    +0.193 C 
ENDROOT
BRANCH   4   8
ATOM      8  C   UNL A   1     -25.688   1.614  26.461  0.00  0.00    +0.097 C 
ATOM      9  C   UNL A   1     -26.250   2.920  26.395  0.00  0.00    +0.059 C 
ATOM     10  C   UNL A   1     -27.438   3.091  25.645  0.00  0.00    +0.102 C 
ATOM     11  N   UNL A   1     -28.075   2.089  25.003  0.00  0.00    -0.212 NA
ATOM     12  C   UNL A   1     -27.543   0.849  25.079  0.00  0.00    +0.234 C 
ATOM     13  C   UNL A   1     -26.354   0.576  25.777  0.00  0.00    +0.244 C 
ATOM     14  F   UNL A   1     -25.860  -0.681  25.795  0.00  0.00    -0.227 F 
BRANCH   9  15
ATOM     15  C   UNL A   1     -25.642   4.093  27.123  0.00  0.00    +0.263 C 
ATOM     16  N   UNL A   1     -25.614   5.252  26.449  0.00  0.00    -0.200 NA
ATOM     17  C   UNL A   1     -25.026   6.479  26.963  0.00  0.00    +0.139 C 
ATOM     18  O   UNL A   1     -25.143   3.966  28.243  0.00  0.00    -0.269 OA
ENDBRANCH   9  15
BRANCH  12  19
ATOM     19  O   UNL A   1     -28.193  -0.208  24.477  0.00  0.00    -0.459 OA
BRANCH  19  20
ATOM     20  C   UNL A   1     -29.460   0.005  23.866  0.00  0.00    +0.242 C 
BRANCH  20  21
ATOM     21  C   UNL A   1     -30.065  -1.377  23.573  0.00  0.00    +0.229 C 
ATOM     22  O   UNL A   1     -30.729  -1.878  24.721  0.00  0.00    -0.216 OA
ENDBRANCH  20  21
ENDBRANCH  19  20
ENDBRANCH  12  19
ENDBRANCH   4   8
BRANCH   3  23
ATOM     23  C   UNL A   1     -21.196   0.975  27.504  0.00  0.00    +0.003 C 
ATOM     24  C   UNL A   1     -20.411   2.039  27.527  0.00  0.00    +0.000 C 
ENDBRANCH   3  23
BRANCH   5  25
ATOM     25  N   UNL A   1     -26.675   0.706  28.890  0.00  0.00    -0.245 NA
ATOM     26  C   UNL A   1     -27.741  -0.318  28.660  0.00  0.00    +0.122 C 
BRANCH  26  27
ATOM     27  C   UNL A   1     -29.179  -0.207  29.192  0.00  0.00    +0.259 C 
BRANCH  27  31
ATOM     28  C   UNL A   1     -32.074   1.904  28.545  0.00  0.00    +0.052 C 
ATOM     29  C   UNL A   1     -30.593   1.990  28.183  0.00  0.00    +0.215 C 
ATOM     30  O   UNL A   1     -30.472   1.392  26.879  0.00  0.00    -0.205 OA
ATOM     31  N   UNL A   1     -29.774   1.193  29.227  0.00  0.00    -0.218 NA
ATOM     32  C   UNL A   1     -32.038   1.622  30.013  0.00  0.00    +0.022 C 
ATOM     33  C   UNL A   1     -30.687   1.198  30.396  0.00  0.00    +0.077 C 
ENDBRANCH  27  31
BRANCH  27  35
ATOM     34  O   UNL A   1     -29.541  -2.310  30.024  0.00  0.00    -0.033 OA
ATOM     35  O   UNL A   1     -29.683  -0.989  30.235  0.00  0.00    -0.168 OA
ENDBRANCH  27  35
ENDBRANCH  26  27
ENDBRANCH   5  25
BRANCH   2  36
ATOM     36  C   UNL A   1     -24.855  -1.012  30.143  0.00  0.00    +0.062 C 
BRANCH  36  37
ATOM     37  C   UNL A   1     -24.973  -2.505  29.788  0.00  0.00    -0.017 C 
ATOM     38  C   UNL A   1     -23.906  -3.173  29.146  0.00  0.00    -0.004 C 
ATOM     39  C   UNL A   1     -23.989  -4.549  28.853  0.00  0.00    -0.000 C 
ATOM     40  C   UNL A   1     -25.137  -5.280  29.205  0.00  0.00    -0.000 C 
ATOM     41  C   UNL A   1     -26.232  -4.611  29.784  0.00  0.00    -0.000 C 
ATOM     42  C   UNL A   1     -26.155  -3.232  30.065  0.00  0.00    -0.004 C 
ENDBRANCH  36  37
BRANCH  36  43
ATOM     43  C   UNL A   1     -25.387  -0.679  31.571  0.00  0.00    +0.081 C 
ATOM     44  C   UNL A   1     -25.189   0.773  32.028  0.00  0.00    +0.019 C 
ATOM     45  C   UNL A   1     -25.336   0.684  33.544  0.00  0.00    +0.020 C 
ATOM     46  C   UNL A   1     -24.829  -0.715  33.905  0.00  0.00    +0.089 C 
ATOM     47  N   UNL A   1     -24.758  -1.481  32.646  0.00  0.00    -0.219 NA
ENDBRANCH  36  43
ENDBRANCH   2  36
TORSDOF 13
