MODEL 3998
MODEL 1
REMARK VINA RESULT:    -8.523      0.000      0.000
REMARK INTER + INTRA:          -8.523
REMARK INTER:                  -8.523
REMARK INTRA:                   0.000
REMARK UNBOUND:                 0.000
REMARK  Name = No_3998-gen_results/8p0m/2024-11-27-11-27-31/
REMARK  0 active torsions:
REMARK  status: ('A' for Active; 'I' for Inactive)
REMARK                            x       y       z     vdW  Elec       q    Type
REMARK                         _______ _______ _______ _____ _____    ______ ____
ROOT
ATOM      1  C   UNL A   1     -25.801 -15.544   7.436  0.00  0.00    +0.105 C 
ATOM      2  C   UNL A   1     -26.155 -14.955   6.637  0.00  0.00    +0.120 C 
ATOM      3  N   UNL A   1     -26.741 -16.342   8.069  0.00  0.00    -0.277 N 
ATOM      4  C   UNL A   1     -27.901 -15.843   8.534  0.00  0.00    +0.086 C 
ATOM      5  C   UNL A   1     -27.312 -13.959   6.916  0.00  0.00    +0.024 C 
ATOM      6  C   UNL A   1     -27.752 -14.124   7.822  0.00  0.00    +0.096 C 
ATOM      7  C   UNL A   1     -26.376 -17.628   8.707  0.00  0.00    +0.250 C 
ATOM      8  C   UNL A   1     -26.502 -18.735   7.723  0.00  0.00    +0.071 A 
ATOM      9  C   UNL A   1     -25.618 -19.244   7.131  0.00  0.00    +0.105 A 
ATOM     10  C   UNL A   1     -25.749 -20.363   6.203  0.00  0.00    +0.154 A 
ATOM     11  C   UNL A   1     -26.958 -21.006   6.171  0.00  0.00    +0.038 A 
ATOM     12  C   UNL A   1     -28.000 -20.546   6.976  0.00  0.00    +0.003 A 
ATOM     13  C   UNL A   1     -27.815 -19.381   7.816  0.00  0.00    +0.006 A 
ATOM     14  O   UNL A   1     -26.030 -17.705   9.873  0.00  0.00    -0.270 OA
ATOM     15  C   UNL A   1     -28.875 -13.344   8.611  0.00  0.00    +0.227 C 
ATOM     16  N   UNL A   1     -29.771 -13.725   9.192  0.00  0.00    -0.281 N 
ATOM     17  O   UNL A   1     -28.750 -12.124   8.312  0.00  0.00    -0.275 OA
ATOM     18  C   UNL A   1     -30.718 -12.921   9.938  0.00  0.00    +0.093 C 
ATOM     19  O   UNL A   1     -24.680 -20.820   5.537  0.00  0.00    -0.471 OA
ATOM     20  C   UNL A   1     -23.450 -20.683   6.129  0.00  0.00    +0.243 C 
ATOM     21  N   UNL A   1     -24.295 -18.707   7.077  0.00  0.00    -0.216 NA
ATOM     22  C   UNL A   1     -23.209 -19.425   6.612  0.00  0.00    +0.196 C 
ATOM     23  C   UNL A   1     -25.280 -14.379   5.402  0.00  0.00    +0.323 C 
ATOM     24  O   UNL A   1     -25.726 -14.012   4.502  0.00  0.00    -0.250 OA
ATOM     25  O   UNL A   1     -24.075 -14.918   5.483  0.00  0.00    -0.421 OA
ATOM     26  N   UNL A   1     -22.493 -18.596   5.708  0.00  0.00    -0.249 NA
ATOM     27  C   UNL A   1     -21.702 -17.541   6.056  0.00  0.00    +0.103 C 
ATOM     28  C   UNL A   1     -22.346 -18.955   4.342  0.00  0.00    +0.091 C 
ATOM     29  C   UNL A   1     -22.316 -16.220   5.740  0.00  0.00    +0.032 C 
ATOM     30  C   UNL A   1     -23.359 -15.891   5.143  0.00  0.00    +0.180 C 
ATOM     31  C   UNL A   1     -31.548 -13.510  10.685  0.00  0.00    +0.022 C 
ATOM     32  C   UNL A   1     -31.623 -14.896  10.775  0.00  0.00    +0.004 C 
ATOM     33  C   UNL A   1     -30.744 -15.757  10.141  0.00  0.00    +0.020 C 
ATOM     34  C   UNL A   1     -29.907 -15.209   9.414  0.00  0.00    +0.077 C 
ATOM     35  C   UNL A   1     -29.150 -16.104   8.526  0.00  0.00    +0.040 C 
ENDROOT
TORSDOF 0
ENDMDL
ENDMDL
