MODEL 3999
MODEL 1
REMARK VINA RESULT:    -6.335      0.000      0.000
REMARK INTER + INTRA:          -7.900
REMARK INTER:                  -7.447
REMARK INTRA:                  -0.453
REMARK UNBOUND:                -0.453
REMARK  Name = No_3999-gen_results/8p0m/2024-11-27-11-27-31/
REMARK  3 active torsions:
REMARK  status: ('A' for Active; 'I' for Inactive)
REMARK    1  A    between atoms: C_5  and  C_11
REMARK    2  A    between atoms: C_7  and  C_18
REMARK    3  A    between atoms: C_8  and  C_15
REMARK                            x       y       z     vdW  Elec       q    Type
REMARK                         _______ _______ _______ _____ _____    ______ ____
ROOT
ATOM      1  C   UNL A   1     -22.521 -20.003   7.217  0.00  0.00    +0.006 A 
ATOM      2  C   UNL A   1     -21.332 -20.221   7.191  0.00  0.00    +0.006 A 
ATOM      3  C   UNL A   1     -20.799 -21.368   7.769  0.00  0.00    +0.000 A 
ATOM      4  C   UNL A   1     -19.356 -21.744   7.812  0.00  0.00    +0.004 A 
ATOM      5  C   UNL A   1     -18.474 -20.919   7.054  0.00  0.00    +0.072 A 
ATOM      6  C   UNL A   1     -19.045 -19.793   6.426  0.00  0.00    +0.010 A 
ATOM      7  C   UNL A   1     -20.347 -19.478   6.468  0.00  0.00    +0.080 A 
ATOM      8  C   UNL A   1     -23.379 -20.581   8.304  0.00  0.00    +0.068 A 
ATOM      9  C   UNL A   1     -22.918 -21.832   8.852  0.00  0.00    +0.006 A 
ATOM     10  C   UNL A   1     -21.583 -22.194   8.689  0.00  0.00    +0.000 A 
ENDROOT
BRANCH   5  11
ATOM     11  C   UNL A   1     -17.055 -21.288   6.979  0.00  0.00    +0.419 C 
ATOM     12  F   UNL A   1     -16.343 -20.287   6.799  0.00  0.00    -0.166 F 
ATOM     13  F   UNL A   1     -16.778 -22.251   6.070  0.00  0.00    -0.166 F 
ATOM     14  F   UNL A   1     -16.609 -21.770   8.199  0.00  0.00    -0.166 F 
ENDBRANCH   5  11
BRANCH   8  15
ATOM     15  C   UNL A   1     -24.813 -20.306   8.409  0.00  0.00    +0.333 C 
ATOM     16  O   UNL A   1     -25.324 -19.274   8.762  0.00  0.00    -0.254 OA
ATOM     17  F   UNL A   1     -25.527 -21.050   7.626  0.00  0.00    -0.159 F 
ENDBRANCH   8  15
BRANCH   7  18
ATOM     18  C   UNL A   1     -20.770 -18.262   5.712  0.00  0.00    +0.388 C 
ATOM     19  O   UNL A   1     -20.644 -17.161   6.053  0.00  0.00    -0.241 OA
ATOM     20  O   UNL A   1     -21.187 -18.491   4.463  0.00  0.00    -0.241 OA
ENDBRANCH   7  18
TORSDOF 3
ENDMDL
ENDMDL
