MODEL 39
MODEL 1
REMARK VINA RESULT:    -6.850      0.000      0.000
REMARK INTER + INTRA:          -8.131
REMARK INTER:                  -7.651
REMARK INTRA:                  -0.480
REMARK UNBOUND:                -0.480
REMARK  Name = No_39-gen_results/8p0m/2024-11-27-11-27-31/
REMARK  2 active torsions:
REMARK  status: ('A' for Active; 'I' for Inactive)
REMARK    1  A    between atoms: C_2  and  C_10
REMARK    2  A    between atoms: C_5  and  C_6
REMARK                            x       y       z     vdW  Elec       q    Type
REMARK                         _______ _______ _______ _____ _____    ______ ____
ROOT
ATOM      1  C   UNL A   1     -29.669 -10.131  31.655  0.00  0.00    +0.000 A 
ATOM      2  C   UNL A   1     -29.521 -10.792  30.653  0.00  0.00    +0.000 A 
ATOM      3  C   UNL A   1     -28.588 -11.804  30.536  0.00  0.00    +0.000 A 
ATOM      4  C   UNL A   1     -27.786 -12.106  31.672  0.00  0.00    +0.007 A 
ATOM      5  C   UNL A   1     -28.106 -11.458  32.816  0.00  0.00    +0.080 A 
ATOM      6  C   UNL A   1     -29.052 -10.527  32.807  0.00  0.00    +0.007 A 
ENDROOT
BRANCH   2   7
ATOM      7  C   UNL A   1     -30.257 -10.444  29.281  0.00  0.00    +0.003 A 
ATOM      8  C   UNL A   1     -30.923  -9.728  29.055  0.00  0.00    +0.000 A 
ATOM      9  C   UNL A   1     -31.413  -9.350  27.922  0.00  0.00    +0.003 A 
ATOM     10  C   UNL A   1     -31.092 -10.046  26.693  0.00  0.00    +0.042 A 
ATOM     11  C   UNL A   1     -30.142 -11.058  26.911  0.00  0.00    +0.196 A 
ATOM     12  C   UNL A   1     -29.621 -11.329  28.211  0.00  0.00    +0.042 A 
ATOM     13  O   UNL A   1     -29.715 -11.743  25.837  0.00  0.00    -0.287 OA
ENDBRANCH   2   7
BRANCH   5  14
ATOM     14  C   UNL A   1     -27.373 -11.832  33.954  0.00  0.00    +0.388 C 
ATOM     15  O   UNL A   1     -26.729 -12.876  34.057  0.00  0.00    -0.241 OA
ATOM     16  O   UNL A   1     -26.870 -10.777  34.712  0.00  0.00    -0.241 OA
ENDBRANCH   5  14
TORSDOF 2
ENDMDL
ENDMDL
