REMARK  Name = No_4000-gen_results/8p0m/2024-11-27-11-27-31/
REMARK  2 active torsions:
REMARK  status: ('A' for Active; 'I' for Inactive)
REMARK    1  A    between atoms: C_7  and  C_8
REMARK    2  A    between atoms: C_8  and  N_9
REMARK                            x       y       z     vdW  Elec       q    Type
REMARK                         _______ _______ _______ _____ _____    ______ ____
ROOT
ATOM      1  C   UNL A   1     -30.843   1.485  27.931  0.00  0.00    +0.059 C 
ATOM      2  C   UNL A   1     -30.582   2.716  27.059  0.00  0.00    +0.017 C 
ENDROOT
BRANCH   1   9
ATOM      3  C   UNL A   1     -28.016  -0.814  28.878  0.00  0.00    +0.087 C 
ATOM      4  C   UNL A   1     -27.064  -0.119  28.608  0.00  0.00    +0.241 C 
ATOM      5  O   UNL A   1     -25.859  -0.406  28.904  0.00  0.00    -0.273 OA
ATOM      6  N   UNL A   1     -27.183   1.038  27.743  0.00  0.00    -0.205 NA
ATOM      7  C   UNL A   1     -29.311  -0.098  29.045  0.00  0.00    +0.013 C 
ATOM      8  C   UNL A   1     -28.436   1.574  27.564  0.00  0.00    +0.116 C 
ATOM      9  C   UNL A   1     -29.530   0.892  28.101  0.00  0.00    +0.037 C 
ENDBRANCH   1   9
BRANCH   1  10
ATOM     10  N   UNL A   1     -31.625   1.621  28.787  0.00  0.00    -0.274 NA
ATOM     11  C   UNL A   1     -31.558   1.570  29.919  0.00  0.00    +0.072 C 
ATOM     12  C   UNL A   1     -31.981   1.997  30.848  0.00  0.00    +0.017 C 
ATOM     13  C   UNL A   1     -32.980   3.085  30.667  0.00  0.00    +0.003 C 
ATOM     14  C   UNL A   1     -33.403   3.223  29.369  0.00  0.00    +0.017 C 
ATOM     15  C   UNL A   1     -33.093   1.856  28.294  0.00  0.00    +0.072 C 
ENDBRANCH   1  10
TORSDOF 2
