MODEL 4000
MODEL 1
REMARK VINA RESULT:    -5.757      0.000      0.000
REMARK INTER + INTRA:          -6.966
REMARK INTER:                  -6.430
REMARK INTRA:                  -0.536
REMARK UNBOUND:                -0.536
REMARK  Name = No_4000-gen_results/8p0m/2024-11-27-11-27-31/
REMARK  2 active torsions:
REMARK  status: ('A' for Active; 'I' for Inactive)
REMARK    1  A    between atoms: C_7  and  C_8
REMARK    2  A    between atoms: C_8  and  N_9
REMARK                            x       y       z     vdW  Elec       q    Type
REMARK                         _______ _______ _______ _____ _____    ______ ____
ROOT
ATOM      1  C   UNL A   1     -22.876  -1.012  30.352  0.00  0.00    +0.059 C 
ATOM      2  C   UNL A   1     -22.874  -0.848  31.874  0.00  0.00    +0.017 C 
ENDROOT
BRANCH   1   9
ATOM      3  C   UNL A   1     -26.396  -2.349  30.357  0.00  0.00    +0.087 C 
ATOM      4  C   UNL A   1     -26.239  -3.390  29.762  0.00  0.00    +0.241 C 
ATOM      5  O   UNL A   1     -27.133  -4.290  29.642  0.00  0.00    -0.273 OA
ATOM      6  N   UNL A   1     -25.062  -3.639  28.954  0.00  0.00    -0.205 NA
ATOM      7  C   UNL A   1     -25.163  -1.742  30.930  0.00  0.00    +0.013 C 
ATOM      8  C   UNL A   1     -23.950  -2.866  29.193  0.00  0.00    +0.116 C 
ATOM      9  C   UNL A   1     -24.065  -1.800  30.087  0.00  0.00    +0.037 C 
ENDBRANCH   1   9
BRANCH   1  10
ATOM     10  N   UNL A   1     -22.550  -0.076  29.737  0.00  0.00    -0.274 NA
ATOM     11  C   UNL A   1     -21.713   0.116  28.994  0.00  0.00    +0.072 C 
ATOM     12  C   UNL A   1     -21.454   0.693  28.086  0.00  0.00    +0.017 C 
ATOM     13  C   UNL A   1     -22.548   1.520  27.508  0.00  0.00    +0.003 C 
ATOM     14  C   UNL A   1     -23.640   1.629  28.332  0.00  0.00    +0.017 C 
ATOM     15  C   UNL A   1     -23.384   1.217  30.031  0.00  0.00    +0.072 C 
ENDBRANCH   1  10
TORSDOF 2
ENDMDL
ENDMDL
