REMARK  Name = No_4001-gen_results/8p0m/2024-11-27-11-27-31/
REMARK  4 active torsions:
REMARK  status: ('A' for Active; 'I' for Inactive)
REMARK    1  A    between atoms: C_3  and  C_8
REMARK    2  A    between atoms: C_6  and  O_7
REMARK    3  A    between atoms: O_7  and  C_14
REMARK    4  A    between atoms: C_14  and  C_15
REMARK                            x       y       z     vdW  Elec       q    Type
REMARK                         _______ _______ _______ _____ _____    ______ ____
ROOT
ATOM      1  C   UNL A   1     -28.016  -0.814  28.878  0.00  0.00    +0.037 A 
ATOM      2  C   UNL A   1     -27.064  -0.119  28.608  0.00  0.00    +0.003 A 
ATOM      3  C   UNL A   1     -25.765  -0.390  29.036  0.00  0.00    +0.002 A 
ATOM      4  C   UNL A   1     -25.530  -1.530  29.901  0.00  0.00    +0.003 A 
ATOM      5  C   UNL A   1     -26.689  -2.289  30.181  0.00  0.00    +0.037 A 
ATOM      6  C   UNL A   1     -27.873  -1.951  29.737  0.00  0.00    +0.139 A 
ENDROOT
BRANCH   3   7
ATOM      7  C   UNL A   1     -24.539   0.421  28.742  0.00  0.00    +0.021 A 
ATOM      8  C   UNL A   1     -24.526   1.274  27.727  0.00  0.00    +0.125 A 
ATOM      9  C   UNL A   1     -23.317   1.986  27.403  0.00  0.00    +0.165 A 
ATOM     10  C   UNL A   1     -22.131   1.737  28.050  0.00  0.00    +0.039 A 
ATOM     11  C   UNL A   1     -23.298   0.137  29.377  0.00  0.00    +0.002 A 
ATOM     12  C   UNL A   1     -22.101   0.819  29.041  0.00  0.00    +0.003 A 
ATOM     13  O   UNL A   1     -23.394   2.896  26.383  0.00  0.00    -0.439 OA
ATOM     14  C   UNL A   1     -24.455   2.580  25.531  0.00  0.00    +0.241 C 
ATOM     15  N   UNL A   1     -25.454   1.490  26.844  0.00  0.00    -0.197 NA
ATOM     16  C   UNL A   1     -25.473   2.145  25.751  0.00  0.00    +0.039 C 
ENDBRANCH   3   7
BRANCH   6  17
ATOM     17  O   UNL A   1     -28.930  -2.730  30.115  0.00  0.00    -0.464 OA
BRANCH  17  18
ATOM     18  C   UNL A   1     -29.310  -2.754  31.453  0.00  0.00    +0.319 C 
BRANCH  18  19
ATOM     19  C   UNL A   1     -29.796  -4.048  31.813  0.00  0.00    +0.408 C 
ATOM     20  O   UNL A   1     -29.678  -4.319  33.007  0.00  0.00    -0.241 OA
ATOM     21  O   UNL A   1     -30.571  -4.637  31.052  0.00  0.00    -0.241 OA
ENDBRANCH  18  19
ENDBRANCH  17  18
ENDBRANCH   6  17
TORSDOF 4
