MODEL 4002
MODEL 1
REMARK VINA RESULT:    -7.655      0.000      0.000
REMARK INTER + INTRA:         -10.984
REMARK INTER:                  -9.893
REMARK INTRA:                  -1.091
REMARK UNBOUND:                -1.091
REMARK  Name = No_4002-gen_results/8p0m/2024-11-27-11-27-31/
REMARK  5 active torsions:
REMARK  status: ('A' for Active; 'I' for Inactive)
REMARK    1  A    between atoms: C_4  and  C_11
REMARK    2  A    between atoms: C_7  and  C_17
REMARK    3  A    between atoms: N_19  and  C_20
REMARK    4  A    between atoms: C_20  and  C_22
REMARK    5  A    between atoms: C_23  and  C_24
REMARK                            x       y       z     vdW  Elec       q    Type
REMARK                         _______ _______ _______ _____ _____    ______ ____
ROOT
ATOM      1  C   UNL A   1     -27.900   2.100  23.932  0.00  0.00    +0.005 A 
ATOM      2  C   UNL A   1     -28.981   2.209  23.402  0.00  0.00    +0.000 A 
ATOM      3  C   UNL A   1     -29.896   1.162  23.294  0.00  0.00    +0.000 A 
ATOM      4  C   UNL A   1     -31.227   1.203  22.656  0.00  0.00    +0.000 A 
ATOM      5  C   UNL A   1     -32.131   0.090  22.526  0.00  0.00    +0.000 A 
ATOM      6  C   UNL A   1     -31.764  -1.050  23.250  0.00  0.00    +0.000 A 
ATOM      7  C   UNL A   1     -27.471   0.721  24.348  0.00  0.00    +0.055 A 
ATOM      8  C   UNL A   1     -28.338  -0.348  24.361  0.00  0.00    +0.005 A 
ATOM      9  C   UNL A   1     -29.591  -0.204  23.793  0.00  0.00    +0.000 A 
ATOM     10  C   UNL A   1     -30.511  -1.252  23.788  0.00  0.00    +0.000 A 
ENDROOT
BRANCH   4  11
ATOM     11  C   UNL A   1     -31.972   2.410  22.392  0.00  0.00    +0.000 A 
ATOM     12  C   UNL A   1     -32.477   3.176  23.048  0.00  0.00    +0.000 A 
ATOM     13  C   UNL A   1     -33.210   4.386  22.651  0.00  0.00    +0.000 A 
ATOM     14  C   UNL A   1     -33.380   4.633  21.288  0.00  0.00    +0.000 A 
ATOM     15  C   UNL A   1     -32.771   3.721  20.399  0.00  0.00    +0.000 A 
ATOM     16  C   UNL A   1     -32.086   2.650  20.818  0.00  0.00    +0.000 A 
ENDBRANCH   4  11
BRANCH   7  17
ATOM     17  C   UNL A   1     -26.076   0.580  24.925  0.00  0.00    +0.265 C 
ATOM     18  O   UNL A   1     -25.288  -0.156  24.518  0.00  0.00    -0.268 OA
ATOM     19  N   UNL A   1     -25.627   1.664  25.588  0.00  0.00    -0.199 NA
BRANCH  19  20
ATOM     20  C   UNL A   1     -24.272   1.725  26.114  0.00  0.00    +0.118 C 
ATOM     21  C   UNL A   1     -23.392   2.266  25.630  0.00  0.00    +0.028 C 
BRANCH  20  22
ATOM     22  C   UNL A   1     -24.246   1.086  27.423  0.00  0.00    -0.005 C 
ATOM     23  C   UNL A   1     -23.457   0.098  27.792  0.00  0.00    -0.003 C 
BRANCH  23  24
ATOM     24  C   UNL A   1     -23.228  -0.319  29.038  0.00  0.00    -0.005 C 
ATOM     25  C   UNL A   1     -21.914  -0.408  29.436  0.00  0.00    -0.026 C 
ATOM     26  C   UNL A   1     -20.912  -0.093  28.550  0.00  0.00    +0.031 C 
ENDBRANCH  23  24
ENDBRANCH  20  22
ENDBRANCH  19  20
ENDBRANCH   7  17
TORSDOF 5
ENDMDL
ENDMDL
