MODEL 4003
MODEL 1
REMARK VINA RESULT:    -7.206      0.000      0.000
REMARK INTER + INTRA:          -7.862
REMARK INTER:                  -7.628
REMARK INTRA:                  -0.235
REMARK UNBOUND:                -0.235
REMARK  Name = No_4003-gen_results/8p0m/2024-11-27-11-27-31/
REMARK  1 active torsions:
REMARK  status: ('A' for Active; 'I' for Inactive)
REMARK    1  A    between atoms: C_5  and  C_12
REMARK                            x       y       z     vdW  Elec       q    Type
REMARK                         _______ _______ _______ _____ _____    ______ ____
ROOT
ATOM      1  C   UNL A   1     -26.063  -1.452  29.956  0.00  0.00    +0.120 C 
ATOM      2  C   UNL A   1     -25.345  -0.674  29.373  0.00  0.00    -0.006 A 
ATOM      3  C   UNL A   1     -24.124  -0.995  28.875  0.00  0.00    -0.023 A 
ATOM      4  C   UNL A   1     -23.234  -0.055  28.158  0.00  0.00    -0.001 A 
ATOM      5  C   UNL A   1     -23.721   1.279  27.963  0.00  0.00    +0.071 A 
ATOM      6  C   UNL A   1     -25.026   1.554  28.432  0.00  0.00    +0.004 A 
ATOM      7  C   UNL A   1     -25.795   0.630  29.090  0.00  0.00    -0.003 A 
ATOM      8  N   UNL A   1     -26.055  -2.804  29.630  0.00  0.00    -0.277 N 
ATOM      9  C   UNL A   1     -26.602  -3.735  29.824  0.00  0.00    +0.226 C 
ATOM     10  O   UNL A   1     -27.619  -3.668  30.579  0.00  0.00    -0.275 OA
ATOM     11  C   UNL A   1     -26.048  -5.123  29.644  0.00  0.00    +0.085 C 
ATOM     12  C   UNL A   1     -24.919  -5.396  29.355  0.00  0.00    +0.011 C 
ATOM     13  C   UNL A   1     -24.252  -4.323  28.660  0.00  0.00    +0.021 C 
ATOM     14  C   UNL A   1     -24.616  -3.014  28.892  0.00  0.00    +0.080 C 
ATOM     15  C   UNL A   1     -23.701  -2.362  28.683  0.00  0.00    +0.046 C 
ENDROOT
BRANCH   5  16
ATOM     16  C   UNL A   1     -22.961   2.268  27.270  0.00  0.00    +0.419 C 
ATOM     17  F   UNL A   1     -23.350   3.199  27.356  0.00  0.00    -0.166 F 
ATOM     18  F   UNL A   1     -21.610   2.089  27.696  0.00  0.00    -0.166 F 
ATOM     19  F   UNL A   1     -22.982   1.943  25.960  0.00  0.00    -0.166 F 
ENDBRANCH   5  16
TORSDOF 1
ENDMDL
ENDMDL
