REMARK  Name = outputs/IAG933/test6/raw/output_4003_IAG933_linker_design_.xyz
REMARK  12 active torsions:
REMARK  status: ('A' for Active; 'I' for Inactive)
REMARK    1  A    between atoms: C_1  and  C_2
REMARK    2  A    between atoms: C_1  and  C_8
REMARK    3  A    between atoms: C_1  and  N_30
REMARK    4  A    between atoms: C_13  and  C_33
REMARK    5  A    between atoms: C_14  and  C_15
REMARK    6  A    between atoms: C_21  and  O_22
REMARK    7  A    between atoms: O_22  and  C_23
REMARK    8  A    between atoms: C_23  and  C_24
REMARK    9  A    between atoms: C_28  and  N_42
REMARK   10  A    between atoms: C_29  and  O_36
REMARK   11  A    between atoms: C_31  and  C_34
REMARK   12  A    between atoms: C_32  and  C_39
REMARK                            x       y       z     vdW  Elec       q    Type
REMARK                         _______ _______ _______ _____ _____    ______ ____
ROOT
ATOM      1  C   UNL A   1     -23.329   1.477  27.229  0.00  0.00    +0.125 C 
ATOM      2  C   UNL A   1     -22.458   1.089  28.303  0.00  0.00    +0.219 C 
ATOM      3  N   UNL A   1     -24.349   0.009  29.238  0.00  0.00    -0.288 N 
ATOM      4  C   UNL A   1     -25.174   0.731  28.590  0.00  0.00    +0.163 C 
ATOM      5  C   UNL A   1     -24.686   1.289  27.406  0.00  0.00    +0.030 C 
ATOM      6  C   UNL A   1     -23.006   0.281  29.300  0.00  0.00    +0.106 C 
ENDROOT
BRANCH   5   7
ATOM      7  C   UNL A   1     -25.688   1.614  26.461  0.00  0.00    +0.038 C 
ATOM      8  C   UNL A   1     -26.250   2.920  26.395  0.00  0.00    +0.076 C 
ATOM      9  C   UNL A   1     -27.438   3.091  25.645  0.00  0.00    +0.107 C 
ATOM     10  N   UNL A   1     -28.075   2.089  25.003  0.00  0.00    -0.208 NA
ATOM     11  C   UNL A   1     -27.543   0.849  25.079  0.00  0.00    +0.253 C 
ATOM     12  C   UNL A   1     -26.354   0.576  25.777  0.00  0.00    +0.193 C 
ATOM     13  F   UNL A   1     -25.860  -0.681  25.795  0.00  0.00    -0.199 F 
BRANCH   8  14
ATOM     14  C   UNL A   1     -25.642   4.093  27.123  0.00  0.00    +0.266 C 
ATOM     15  N   UNL A   1     -25.614   5.252  26.449  0.00  0.00    -0.200 NA
ATOM     16  C   UNL A   1     -25.026   6.479  26.963  0.00  0.00    +0.139 C 
ATOM     17  O   UNL A   1     -25.143   3.966  28.243  0.00  0.00    -0.268 OA
ENDBRANCH   8  14
BRANCH  11  18
ATOM     18  O   UNL A   1     -28.193  -0.208  24.477  0.00  0.00    -0.456 OA
BRANCH  18  19
ATOM     19  C   UNL A   1     -29.460   0.005  23.866  0.00  0.00    +0.243 C 
BRANCH  19  20
ATOM     20  C   UNL A   1     -30.065  -1.377  23.573  0.00  0.00    +0.229 C 
ATOM     21  O   UNL A   1     -30.729  -1.878  24.721  0.00  0.00    -0.216 OA
ENDBRANCH  19  20
ENDBRANCH  18  19
ENDBRANCH  11  18
ENDBRANCH   5   7
BRANCH   4  23
ATOM     22  C   UNL A   1     -27.606   1.644  29.378  0.00  0.00    -0.002 C 
ATOM     23  C   UNL A   1     -26.550   1.008  29.035  0.00  0.00    -0.058 C 
BRANCH  22  24
ATOM     24  C   UNL A   1     -28.487   2.808  29.505  0.00  0.00    +0.328 C 
ATOM     25  O   UNL A   1     -29.444   2.976  28.749  0.00  0.00    -0.257 OA
ATOM     26  N   UNL A   1     -28.133   3.654  30.446  0.00  0.00    -0.076 NA
ENDBRANCH  22  24
ENDBRANCH   4  23
BRANCH   1  28
ATOM     27  N   UNL A   1     -22.489   2.399  25.082  0.00  0.00    +0.004 NA
ATOM     28  N   UNL A   1     -22.701   2.028  26.127  0.00  0.00    -0.127 NA
ENDBRANCH   1  28
BRANCH   2  29
ATOM     29  O   UNL A   1     -21.143   1.345  28.140  0.00  0.00    -0.289 OA
ATOM     30  F   UNL A   1     -20.508   2.393  27.576  0.00  0.00    +0.014 F 
ENDBRANCH   2  29
BRANCH   3  31
ATOM     31  C   UNL A   1     -24.855  -1.012  30.143  0.00  0.00    +0.112 C 
BRANCH  31  32
ATOM     32  C   UNL A   1     -24.973  -2.505  29.788  0.00  0.00    -0.003 C 
ATOM     33  C   UNL A   1     -23.906  -3.173  29.146  0.00  0.00    -0.003 C 
ATOM     34  C   UNL A   1     -23.989  -4.549  28.853  0.00  0.00    -0.000 C 
ATOM     35  C   UNL A   1     -25.137  -5.280  29.205  0.00  0.00    -0.000 C 
ATOM     36  C   UNL A   1     -26.232  -4.611  29.784  0.00  0.00    -0.000 C 
ATOM     37  C   UNL A   1     -26.155  -3.232  30.065  0.00  0.00    -0.003 C 
ENDBRANCH  31  32
BRANCH  31  38
ATOM     38  C   UNL A   1     -25.387  -0.679  31.571  0.00  0.00    +0.095 C 
ATOM     39  C   UNL A   1     -25.189   0.773  32.028  0.00  0.00    +0.021 C 
ATOM     40  C   UNL A   1     -25.336   0.684  33.544  0.00  0.00    +0.020 C 
ATOM     41  C   UNL A   1     -24.829  -0.715  33.905  0.00  0.00    +0.089 C 
ATOM     42  N   UNL A   1     -24.758  -1.481  32.646  0.00  0.00    -0.217 NA
ENDBRANCH  31  38
ENDBRANCH   3  31
TORSDOF 12
