REMARK  Name = outputs/IAG933/test6/raw/output_4004_IAG933_linker_design_.xyz
REMARK  18 active torsions:
REMARK  status: ('A' for Active; 'I' for Inactive)
REMARK    1  A    between atoms: C_1  and  C_2
REMARK    2  A    between atoms: C_1  and  C_8
REMARK    3  A    between atoms: C_1  and  C_36
REMARK    4  A    between atoms: C_13  and  O_41
REMARK    5  A    between atoms: C_14  and  C_15
REMARK    6  A    between atoms: C_21  and  O_22
REMARK    7  A    between atoms: O_22  and  C_23
REMARK    8  A    between atoms: C_23  and  C_24
REMARK    9  A    between atoms: C_29  and  C_45
REMARK   10  A    between atoms: N_31  and  C_37
REMARK   11  A    between atoms: O_32  and  C_33
REMARK   12  A    between atoms: O_32  and  C_44
REMARK   13  A    between atoms: C_34  and  C_36
REMARK   14  A    between atoms: C_34  and  O_41
REMARK   15  A    between atoms: C_34  and  C_45
REMARK   16  A    between atoms: C_35  and  C_36
REMARK   17  A    between atoms: C_35  and  O_38
REMARK   18  A    between atoms: O_38  and  C_44
REMARK                            x       y       z     vdW  Elec       q    Type
REMARK                         _______ _______ _______ _____ _____    ______ ____
ROOT
ATOM      1  C   UNL A   1     -25.531  -0.076  29.122  0.00  0.00    +0.075 C 
ENDROOT
BRANCH   1   2
ATOM      2  C   UNL A   1     -24.855  -1.012  30.143  0.00  0.00    +0.044 C 
BRANCH   2   3
ATOM      3  C   UNL A   1     -24.973  -2.505  29.788  0.00  0.00    -0.021 C 
ATOM      4  C   UNL A   1     -23.906  -3.173  29.146  0.00  0.00    -0.004 C 
ATOM      5  C   UNL A   1     -23.989  -4.549  28.853  0.00  0.00    -0.000 C 
ATOM      6  C   UNL A   1     -25.137  -5.280  29.205  0.00  0.00    -0.000 C 
ATOM      7  C   UNL A   1     -26.232  -4.611  29.784  0.00  0.00    -0.000 C 
ATOM      8  C   UNL A   1     -26.155  -3.232  30.065  0.00  0.00    -0.004 C 
ENDBRANCH   2   3
BRANCH   2   9
ATOM      9  C   UNL A   1     -25.387  -0.679  31.571  0.00  0.00    +0.077 C 
ATOM     10  C   UNL A   1     -25.189   0.773  32.028  0.00  0.00    +0.019 C 
ATOM     11  C   UNL A   1     -25.336   0.684  33.544  0.00  0.00    +0.020 C 
ATOM     12  C   UNL A   1     -24.829  -0.715  33.905  0.00  0.00    +0.089 C 
ATOM     13  N   UNL A   1     -24.758  -1.481  32.646  0.00  0.00    -0.219 NA
ENDBRANCH   2   9
ENDBRANCH   1   2
BRANCH   1  14
ATOM     14  C   UNL A   1     -24.362   0.481  28.150  0.00  0.00    +0.169 C 
BRANCH  14  15
ATOM     15  O   UNL A   1     -24.459   1.314  27.027  0.00  0.00    -0.476 OA
BRANCH  15  16
ATOM     16  C   UNL A   1     -25.688   1.614  26.461  0.00  0.00    +0.176 C 
ATOM     17  C   UNL A   1     -26.250   2.920  26.395  0.00  0.00    +0.111 C 
ATOM     18  C   UNL A   1     -27.438   3.091  25.645  0.00  0.00    +0.110 C 
ATOM     19  N   UNL A   1     -28.075   2.089  25.003  0.00  0.00    -0.208 NA
ATOM     20  C   UNL A   1     -27.543   0.849  25.079  0.00  0.00    +0.256 C 
ATOM     21  C   UNL A   1     -26.354   0.576  25.777  0.00  0.00    +0.227 C 
ATOM     22  F   UNL A   1     -25.860  -0.681  25.795  0.00  0.00    -0.196 F 
BRANCH  17  23
ATOM     23  C   UNL A   1     -25.642   4.093  27.123  0.00  0.00    +0.269 C 
ATOM     24  N   UNL A   1     -25.614   5.252  26.449  0.00  0.00    -0.200 NA
ATOM     25  C   UNL A   1     -25.026   6.479  26.963  0.00  0.00    +0.139 C 
ATOM     26  O   UNL A   1     -25.143   3.966  28.243  0.00  0.00    -0.268 OA
ENDBRANCH  17  23
BRANCH  20  27
ATOM     27  O   UNL A   1     -28.193  -0.208  24.477  0.00  0.00    -0.456 OA
BRANCH  27  28
ATOM     28  C   UNL A   1     -29.460   0.005  23.866  0.00  0.00    +0.243 C 
BRANCH  28  29
ATOM     29  C   UNL A   1     -30.065  -1.377  23.573  0.00  0.00    +0.229 C 
ATOM     30  O   UNL A   1     -30.729  -1.878  24.721  0.00  0.00    -0.216 OA
ENDBRANCH  28  29
ENDBRANCH  27  28
ENDBRANCH  20  27
ENDBRANCH  15  16
ENDBRANCH  14  15
BRANCH  14  31
ATOM     31  C   UNL A   1     -23.188   0.878  29.061  0.00  0.00    +0.044 C 
BRANCH  31  32
ATOM     32  C   UNL A   1     -22.033   1.496  28.248  0.00  0.00    +0.004 C 
ATOM     33  C   UNL A   1     -21.872   1.851  26.762  0.00  0.00    +0.000 C 
ENDBRANCH  31  32
ENDBRANCH  14  31
ENDBRANCH   1  14
BRANCH   1  34
ATOM     34  C   UNL A   1     -26.748  -0.707  28.331  0.00  0.00    +0.150 C 
BRANCH  34  35
ATOM     35  O   UNL A   1     -28.017  -1.131  28.938  0.00  0.00    -0.316 OA
BRANCH  35  36
ATOM     36  C   UNL A   1     -29.291  -0.416  28.718  0.00  0.00    +0.364 C 
BRANCH  36  37
ATOM     37  O   UNL A   1     -30.436  -1.240  28.983  0.00  0.00    -0.403 OA
BRANCH  37  39
ATOM     38  N   UNL A   1     -29.610  -1.587  30.935  0.00  0.00    -0.142 NA
ATOM     39  C   UNL A   1     -29.997  -2.118  29.811  0.00  0.00    +0.427 C 
ATOM     40  O   UNL A   1     -30.013  -3.306  29.411  0.00  0.00    -0.224 OA
BRANCH  38  42
ATOM     41  C   UNL A   1     -29.407  -0.140  34.766  0.00  0.00    +0.000 C 
ATOM     42  C   UNL A   1     -29.691  -1.283  32.255  0.00  0.00    +0.077 C 
ATOM     43  C   UNL A   1     -28.352  -0.828  34.169  0.00  0.00    +0.001 C 
ATOM     44  C   UNL A   1     -30.690  -0.186  34.187  0.00  0.00    +0.001 C 
ATOM     45  C   UNL A   1     -30.795  -0.681  32.883  0.00  0.00    +0.017 C 
ATOM     46  C   UNL A   1     -28.624  -1.525  33.063  0.00  0.00    +0.017 C 
ENDBRANCH  38  42
ENDBRANCH  37  39
ENDBRANCH  36  37
ENDBRANCH  35  36
ENDBRANCH  34  35
ENDBRANCH   1  34
TORSDOF 18
