MODEL 4004
MODEL 1
REMARK VINA RESULT:    -6.369      0.000      0.000
REMARK INTER + INTRA:         -13.551
REMARK INTER:                 -11.581
REMARK INTRA:                  -1.970
REMARK UNBOUND:                -1.970
REMARK  Name = No_4004-gen_results/8p0m/2024-11-27-11-27-31/
REMARK  14 active torsions:
REMARK  status: ('A' for Active; 'I' for Inactive)
REMARK    1  A    between atoms: C_2  and  C_12
REMARK    2  A    between atoms: C_10  and  O_15
REMARK    3  A    between atoms: O_15  and  C_16
REMARK    4  A    between atoms: C_16  and  C_17
REMARK    5  A    between atoms: C_16  and  C_25
REMARK    6  A    between atoms: C_17  and  O_18
REMARK    7  A    between atoms: O_18  and  C_19
REMARK    8  A    between atoms: C_19  and  C_20
REMARK    9  A    between atoms: C_25  and  O_26
REMARK   10  A    between atoms: O_26  and  C_27
REMARK   11  A    between atoms: C_27  and  C_28
REMARK   12  A    between atoms: C_28  and  C_30
REMARK   13  A    between atoms: C_30  and  N_32
REMARK   14  A    between atoms: N_32  and  C_33
REMARK                            x       y       z     vdW  Elec       q    Type
REMARK                         _______ _______ _______ _____ _____    ______ ____
ROOT
ATOM      1  C   UNL A   1     -22.544  -1.317  29.336  0.00  0.00    +0.225 C 
ENDROOT
BRANCH   1   2
ATOM      2  O   UNL A   1     -23.653  -1.641  28.655  0.00  0.00    -0.474 OA
BRANCH   2  12
ATOM      3  C   UNL A   1     -28.283  -1.953  30.603  0.00  0.00    +0.013 A 
ATOM      4  C   UNL A   1     -27.644  -1.176  30.291  0.00  0.00    +0.080 A 
ATOM      5  C   UNL A   1     -27.788  -3.354  30.322  0.00  0.00    +0.035 A 
ATOM      6  C   UNL A   1     -26.486  -3.538  29.812  0.00  0.00    +0.009 A 
ATOM      7  C   UNL A   1     -26.257  -1.096  29.781  0.00  0.00    +0.010 A 
ATOM      8  C   UNL A   1     -25.765  -2.366  29.516  0.00  0.00    +0.035 A 
ATOM      9  C   UNL A   1     -25.974  -4.832  29.512  0.00  0.00    +0.001 A 
ATOM     10  C   UNL A   1     -24.939  -5.071  29.199  0.00  0.00    +0.003 A 
ATOM     11  C   UNL A   1     -24.036  -3.909  28.891  0.00  0.00    +0.037 A 
ATOM     12  C   UNL A   1     -24.464  -2.626  28.987  0.00  0.00    +0.139 A 
ATOM     13 BR   UNL A   1     -28.854  -4.880  30.679  0.00  0.00    -0.049 Br
BRANCH   4  14
ATOM     14  C   UNL A   1     -28.167   0.336  30.625  0.00  0.00    +0.388 C 
ATOM     15  O   UNL A   1     -27.432   1.305  30.287  0.00  0.00    -0.241 OA
ATOM     16  O   UNL A   1     -29.287   0.486  31.081  0.00  0.00    -0.241 OA
ENDBRANCH   4  14
ENDBRANCH   2  12
ENDBRANCH   1   2
BRANCH   1  17
ATOM     17  C   UNL A   1     -22.761  -1.140  30.750  0.00  0.00    +0.191 C 
BRANCH  17  18
ATOM     18  O   UNL A   1     -22.900  -0.074  31.148  0.00  0.00    -0.318 OA
BRANCH  18  19
ATOM     19  C   UNL A   1     -24.065   0.423  31.603  0.00  0.00    +0.365 C 
ATOM     20  O   UNL A   1     -24.070   1.893  31.556  0.00  0.00    -0.180 OA
BRANCH  19  21
ATOM     21  C   UNL A   1     -24.531  -0.019  32.873  0.00  0.00    +0.453 C 
ATOM     22  F   UNL A   1     -25.027   0.753  33.475  0.00  0.00    -0.165 F 
ATOM     23  F   UNL A   1     -23.628  -0.770  33.681  0.00  0.00    -0.165 F 
ATOM     24  F   UNL A   1     -25.492  -1.015  32.791  0.00  0.00    -0.165 F 
ENDBRANCH  19  21
ENDBRANCH  18  19
ENDBRANCH  17  18
ENDBRANCH   1  17
BRANCH   1  25
ATOM     25  C   UNL A   1     -21.901  -0.035  28.816  0.00  0.00    +0.188 C 
BRANCH  25  26
ATOM     26  O   UNL A   1     -22.605   0.620  28.001  0.00  0.00    -0.347 OA
BRANCH  26  27
ATOM     27  C   UNL A   1     -23.030   1.848  28.174  0.00  0.00    +0.178 C 
BRANCH  27  28
ATOM     28  C   UNL A   1     -24.130   2.221  27.486  0.00  0.00    +0.216 C 
ATOM     29  O   UNL A   1     -24.514   3.382  27.594  0.00  0.00    -0.217 OA
BRANCH  28  30
ATOM     30  C   UNL A   1     -24.067   1.975  25.894  0.00  0.00    +0.204 C 
ATOM     31 CL   UNL A   1     -22.758   2.370  25.132  0.00  0.00    -0.088 Cl
BRANCH  30  32
ATOM     32  N   UNL A   1     -24.504   0.648  25.691  0.00  0.00    -0.219 NA
BRANCH  32  33
ATOM     33  C   UNL A   1     -25.480   0.329  24.870  0.00  0.00    +0.082 C 
ATOM     34  C   UNL A   1     -26.753   0.936  24.985  0.00  0.00    +0.019 C 
ENDBRANCH  32  33
ENDBRANCH  30  32
ENDBRANCH  28  30
ENDBRANCH  27  28
ENDBRANCH  26  27
ENDBRANCH  25  26
ENDBRANCH   1  25
TORSDOF 14
ENDMDL
ENDMDL
