REMARK  Name = outputs/IAG933/test6/raw/output_4005_IAG933_linker_design_.xyz
REMARK  16 active torsions:
REMARK  status: ('A' for Active; 'I' for Inactive)
REMARK    1  A    between atoms: C_1  and  C_2
REMARK    2  A    between atoms: C_1  and  C_8
REMARK    3  A    between atoms: C_1  and  C_40
REMARK    4  A    between atoms: C_13  and  C_29
REMARK    5  A    between atoms: C_14  and  C_15
REMARK    6  A    between atoms: C_21  and  O_22
REMARK    7  A    between atoms: O_22  and  C_23
REMARK    8  A    between atoms: C_23  and  C_24
REMARK    9  A    between atoms: C_28  and  C_31
REMARK   10  A    between atoms: C_28  and  C_41
REMARK   11  A    between atoms: C_30  and  C_41
REMARK   12  A    between atoms: C_30  and  C_43
REMARK   13  A    between atoms: C_31  and  C_37
REMARK   14  A    between atoms: C_32  and  C_43
REMARK   15  A    between atoms: C_41  and  C_42
REMARK   16  A    between atoms: C_43  and  C_45
REMARK                            x       y       z     vdW  Elec       q    Type
REMARK                         _______ _______ _______ _____ _____    ______ ____
ROOT
ATOM      1  C   UNL A   1     -24.521   1.406  27.309  0.00  0.00    +0.029 C 
ATOM      2  C   UNL A   1     -21.704   0.736  28.469  0.00  0.00    +0.025 C 
ATOM      3  C   UNL A   1     -24.824   1.143  28.700  0.00  0.00    +0.022 C 
ATOM      4  C   UNL A   1     -22.027   1.870  27.473  0.00  0.00    +0.005 C 
ATOM      5  C   UNL A   1     -23.182   1.539  26.518  0.00  0.00    +0.005 C 
ATOM      6  C   UNL A   1     -24.057  -0.053  29.264  0.00  0.00    -0.043 C 
ATOM      7  C   UNL A   1     -22.607  -0.173  29.191  0.00  0.00    -0.034 C 
ENDROOT
BRANCH   1   8
ATOM      8  C   UNL A   1     -25.688   1.614  26.461  0.00  0.00    +0.016 C 
ATOM      9  C   UNL A   1     -26.250   2.920  26.395  0.00  0.00    +0.073 C 
ATOM     10  C   UNL A   1     -27.438   3.091  25.645  0.00  0.00    +0.106 C 
ATOM     11  N   UNL A   1     -28.075   2.089  25.003  0.00  0.00    -0.208 NA
ATOM     12  C   UNL A   1     -27.543   0.849  25.079  0.00  0.00    +0.253 C 
ATOM     13  C   UNL A   1     -26.354   0.576  25.777  0.00  0.00    +0.189 C 
ATOM     14  F   UNL A   1     -25.860  -0.681  25.795  0.00  0.00    -0.200 F 
BRANCH   9  15
ATOM     15  C   UNL A   1     -25.642   4.093  27.123  0.00  0.00    +0.266 C 
ATOM     16  N   UNL A   1     -25.614   5.252  26.449  0.00  0.00    -0.200 NA
ATOM     17  C   UNL A   1     -25.026   6.479  26.963  0.00  0.00    +0.139 C 
ATOM     18  O   UNL A   1     -25.143   3.966  28.243  0.00  0.00    -0.268 OA
ENDBRANCH   9  15
BRANCH  12  19
ATOM     19  O   UNL A   1     -28.193  -0.208  24.477  0.00  0.00    -0.456 OA
BRANCH  19  20
ATOM     20  C   UNL A   1     -29.460   0.005  23.866  0.00  0.00    +0.243 C 
BRANCH  20  21
ATOM     21  C   UNL A   1     -30.065  -1.377  23.573  0.00  0.00    +0.229 C 
ATOM     22  O   UNL A   1     -30.729  -1.878  24.721  0.00  0.00    -0.216 OA
ENDBRANCH  20  21
ENDBRANCH  19  20
ENDBRANCH  12  19
ENDBRANCH   1   8
BRANCH   6  23
ATOM     23  C   UNL A   1     -24.855  -1.012  30.143  0.00  0.00    +0.056 C 
BRANCH  23  24
ATOM     24  C   UNL A   1     -24.973  -2.505  29.788  0.00  0.00    -0.017 C 
ATOM     25  C   UNL A   1     -23.906  -3.173  29.146  0.00  0.00    -0.004 C 
ATOM     26  C   UNL A   1     -23.989  -4.549  28.853  0.00  0.00    -0.000 C 
ATOM     27  C   UNL A   1     -25.137  -5.280  29.205  0.00  0.00    -0.000 C 
ATOM     28  C   UNL A   1     -26.232  -4.611  29.784  0.00  0.00    -0.000 C 
ATOM     29  C   UNL A   1     -26.155  -3.232  30.065  0.00  0.00    -0.004 C 
ENDBRANCH  23  24
BRANCH  23  30
ATOM     30  C   UNL A   1     -25.387  -0.679  31.571  0.00  0.00    +0.081 C 
ATOM     31  C   UNL A   1     -25.189   0.773  32.028  0.00  0.00    +0.019 C 
ATOM     32  C   UNL A   1     -25.336   0.684  33.544  0.00  0.00    +0.020 C 
ATOM     33  C   UNL A   1     -24.829  -0.715  33.905  0.00  0.00    +0.089 C 
ATOM     34  N   UNL A   1     -24.758  -1.481  32.646  0.00  0.00    -0.219 NA
ENDBRANCH  23  30
ENDBRANCH   6  23
BRANCH   3  35
ATOM     35  C   UNL A   1     -26.426   1.157  28.798  0.00  0.00    +0.004 C 
BRANCH  35  36
ATOM     36  C   UNL A   1     -27.634   0.255  29.258  0.00  0.00    +0.003 C 
BRANCH  36  37
ATOM     37  C   UNL A   1     -28.779   0.830  30.141  0.00  0.00    +0.034 C 
BRANCH  37  39
ATOM     38  O   UNL A   1     -30.450  -0.183  31.632  0.00  0.00    -0.220 OA
ATOM     39  C   UNL A   1     -29.584  -0.218  30.567  0.00  0.00    +0.182 C 
ENDBRANCH  37  39
BRANCH  37  40
ATOM     40  C   UNL A   1     -29.703   1.946  29.527  0.00  0.00    +0.014 C 
BRANCH  40  41
ATOM     41  C   UNL A   1     -30.252   1.334  28.283  0.00  0.00    +0.103 C 
BRANCH  41  42
ATOM     42  C   UNL A   1     -30.453  -0.063  27.789  0.00  0.00    +0.364 C 
ATOM     43  O   UNL A   1     -29.639  -0.344  26.869  0.00  0.00    -0.246 OA
ATOM     44  O   UNL A   1     -31.183  -0.880  28.351  0.00  0.00    -0.246 OA
ENDBRANCH  41  42
BRANCH  41  46
ATOM     45  C   UNL A   1     -31.049   3.625  27.725  0.00  0.00    +0.001 C 
ATOM     46  C   UNL A   1     -31.244   2.154  27.447  0.00  0.00    +0.011 C 
ENDBRANCH  41  46
ENDBRANCH  40  41
ENDBRANCH  37  40
ENDBRANCH  36  37
ENDBRANCH  35  36
ENDBRANCH   3  35
TORSDOF 16
