REMARK  Name = outputs/IAG933/test6/raw/output_4006_IAG933_linker_design_.xyz
REMARK  11 active torsions:
REMARK  status: ('A' for Active; 'I' for Inactive)
REMARK    1  A    between atoms: C_1  and  C_2
REMARK    2  A    between atoms: C_1  and  C_8
REMARK    3  A    between atoms: C_1  and  C_41
REMARK    4  A    between atoms: C_13  and  N_39
REMARK    5  A    between atoms: C_14  and  C_15
REMARK    6  A    between atoms: C_21  and  O_22
REMARK    7  A    between atoms: O_22  and  C_23
REMARK    8  A    between atoms: C_23  and  C_24
REMARK    9  A    between atoms: C_29  and  C_41
REMARK   10  A    between atoms: C_32  and  C_34
REMARK   11  A    between atoms: C_40  and  C_41
REMARK                            x       y       z     vdW  Elec       q    Type
REMARK                         _______ _______ _______ _____ _____    ______ ____
ROOT
ATOM      1  C   UNL A   1     -24.415   0.535  28.270  0.00  0.00    +0.156 C 
ATOM      2  O   UNL A   1     -22.535  -0.233  29.627  0.00  0.00    -0.287 OA
ATOM      3  C   UNL A   1     -23.077   0.527  28.712  0.00  0.00    +0.224 C 
ATOM      4  N   UNL A   1     -24.536   1.296  27.130  0.00  0.00    -0.244 N 
ATOM      5  O   UNL A   1     -22.939   2.588  25.907  0.00  0.00    -0.267 OA
ATOM      6  C   UNL A   1     -22.445   1.296  27.765  0.00  0.00    +0.230 C 
ATOM      7  C   UNL A   1     -23.305   1.815  26.830  0.00  0.00    +0.284 C 
ATOM      8  F   UNL A   1     -21.086   1.422  27.656  0.00  0.00    -0.196 F 
ENDROOT
BRANCH   4   9
ATOM      9  C   UNL A   1     -25.688   1.614  26.461  0.00  0.00    +0.093 C 
ATOM     10  C   UNL A   1     -26.250   2.920  26.395  0.00  0.00    +0.090 C 
ATOM     11  C   UNL A   1     -27.438   3.091  25.645  0.00  0.00    +0.108 C 
ATOM     12  N   UNL A   1     -28.075   2.089  25.003  0.00  0.00    -0.208 NA
ATOM     13  C   UNL A   1     -27.543   0.849  25.079  0.00  0.00    +0.255 C 
ATOM     14  C   UNL A   1     -26.354   0.576  25.777  0.00  0.00    +0.207 C 
ATOM     15  F   UNL A   1     -25.860  -0.681  25.795  0.00  0.00    -0.198 F 
BRANCH  10  16
ATOM     16  C   UNL A   1     -25.642   4.093  27.123  0.00  0.00    +0.268 C 
ATOM     17  N   UNL A   1     -25.614   5.252  26.449  0.00  0.00    -0.200 NA
ATOM     18  C   UNL A   1     -25.026   6.479  26.963  0.00  0.00    +0.139 C 
ATOM     19  O   UNL A   1     -25.143   3.966  28.243  0.00  0.00    -0.268 OA
ENDBRANCH  10  16
BRANCH  13  20
ATOM     20  O   UNL A   1     -28.193  -0.208  24.477  0.00  0.00    -0.456 OA
BRANCH  20  21
ATOM     21  C   UNL A   1     -29.460   0.005  23.866  0.00  0.00    +0.243 C 
BRANCH  21  22
ATOM     22  C   UNL A   1     -30.065  -1.377  23.573  0.00  0.00    +0.229 C 
ATOM     23  O   UNL A   1     -30.729  -1.878  24.721  0.00  0.00    -0.216 OA
ENDBRANCH  21  22
ENDBRANCH  20  21
ENDBRANCH  13  20
ENDBRANCH   4   9
BRANCH   1  24
ATOM     24  C   UNL A   1     -25.493  -0.091  29.091  0.00  0.00    +0.096 C 
BRANCH  24  26
ATOM     25  C   UNL A   1     -27.014   1.841  30.192  0.00  0.00    -0.064 C 
ATOM     26  C   UNL A   1     -26.443   0.984  29.615  0.00  0.00    -0.085 C 
BRANCH  25  28
ATOM     27  C   UNL A   1     -29.518   4.260  31.915  0.00  0.00    +0.006 C 
ATOM     28  C   UNL A   1     -27.593   2.949  31.018  0.00  0.00    +0.042 C 
ATOM     29  C   UNL A   1     -26.697   3.842  31.608  0.00  0.00    +0.009 C 
ATOM     30  C   UNL A   1     -28.993   3.188  31.231  0.00  0.00    +0.009 C 
ATOM     31  I   UNL A   1     -29.283   6.619  33.464  0.00  0.00    -0.043 I 
ATOM     32  C   UNL A   1     -28.584   5.135  32.455  0.00  0.00    +0.030 C 
ATOM     33  C   UNL A   1     -27.196   4.905  32.355  0.00  0.00    +0.006 C 
ENDBRANCH  25  28
ENDBRANCH  24  26
BRANCH  24  34
ATOM     34  C   UNL A   1     -24.855  -1.012  30.143  0.00  0.00    +0.052 C 
BRANCH  34  35
ATOM     35  C   UNL A   1     -24.973  -2.505  29.788  0.00  0.00    -0.020 C 
ATOM     36  C   UNL A   1     -23.906  -3.173  29.146  0.00  0.00    -0.004 C 
ATOM     37  C   UNL A   1     -23.989  -4.549  28.853  0.00  0.00    -0.000 C 
ATOM     38  C   UNL A   1     -25.137  -5.280  29.205  0.00  0.00    -0.000 C 
ATOM     39  C   UNL A   1     -26.232  -4.611  29.784  0.00  0.00    -0.000 C 
ATOM     40  C   UNL A   1     -26.155  -3.232  30.065  0.00  0.00    -0.004 C 
ENDBRANCH  34  35
BRANCH  34  41
ATOM     41  C   UNL A   1     -25.387  -0.679  31.571  0.00  0.00    +0.078 C 
ATOM     42  C   UNL A   1     -25.189   0.773  32.028  0.00  0.00    +0.019 C 
ATOM     43  C   UNL A   1     -25.336   0.684  33.544  0.00  0.00    +0.020 C 
ATOM     44  C   UNL A   1     -24.829  -0.715  33.905  0.00  0.00    +0.089 C 
ATOM     45  N   UNL A   1     -24.758  -1.481  32.646  0.00  0.00    -0.219 NA
ENDBRANCH  34  41
ENDBRANCH  24  34
ENDBRANCH   1  24
TORSDOF 11
