MODEL 4006
MODEL 1
REMARK VINA RESULT:    -4.258      0.000      0.000
REMARK INTER + INTRA:          -4.258
REMARK INTER:                  -4.258
REMARK INTRA:                   0.000
REMARK UNBOUND:                 0.000
REMARK  Name = No_4006-gen_results/8p0m/2024-11-27-11-27-31/
REMARK  0 active torsions:
REMARK  status: ('A' for Active; 'I' for Inactive)
REMARK                            x       y       z     vdW  Elec       q    Type
REMARK                         _______ _______ _______ _____ _____    ______ ____
ROOT
ATOM      1  C   UNL A   1     -24.960  -5.366  28.945  0.00  0.00    +0.000 A 
ATOM      2  C   UNL A   1     -24.158  -4.720  28.723  0.00  0.00    +0.000 A 
ATOM      3  C   UNL A   1     -26.122  -4.767  29.619  0.00  0.00    +0.000 A 
ATOM      4  C   UNL A   1     -26.196  -3.358  29.820  0.00  0.00    +0.000 A 
ATOM      5  C   UNL A   1     -24.007  -3.240  28.772  0.00  0.00    +0.000 A 
ATOM      6  C   UNL A   1     -25.063  -2.648  29.400  0.00  0.00    +0.000 A 
ENDROOT
TORSDOF 0
ENDMDL
ENDMDL
