MODEL 4007
MODEL 1
REMARK VINA RESULT:    -6.388      0.000      0.000
REMARK INTER + INTRA:          -6.822
REMARK INTER:                  -6.761
REMARK INTRA:                  -0.061
REMARK UNBOUND:                -0.061
REMARK  Name = No_4007-gen_results/8p0m/2024-11-27-11-27-31/
REMARK  1 active torsions:
REMARK  status: ('A' for Active; 'I' for Inactive)
REMARK    1  A    between atoms: C_5  and  O_7
REMARK                            x       y       z     vdW  Elec       q    Type
REMARK                         _______ _______ _______ _____ _____    ______ ____
ROOT
ATOM      1  C   UNL A   1      -7.412  -0.538  11.194  0.00  0.00    +0.003 A 
ATOM      2  C   UNL A   1      -7.937   0.400  10.639  0.00  0.00    +0.000 A 
ATOM      3  C   UNL A   1      -7.527   0.945   9.434  0.00  0.00    +0.003 A 
ATOM      4  C   UNL A   1      -6.415   0.328   8.788  0.00  0.00    +0.037 A 
ATOM      5  C   UNL A   1      -5.950  -0.802   9.358  0.00  0.00    +0.139 A 
ATOM      6  C   UNL A   1      -6.478  -1.293  10.481  0.00  0.00    +0.037 A 
ATOM      7  C   UNL A   1      -9.063   1.239  11.328  0.00  0.00    -0.000 A 
ATOM      8  C   UNL A   1      -9.232   1.318  12.418  0.00  0.00    -0.000 A 
ATOM      9  C   UNL A   1      -9.881   2.120  13.038  0.00  0.00    -0.000 A 
ATOM     10  C   UNL A   1     -10.811   3.067  12.401  0.00  0.00    -0.000 A 
ATOM     11  C   UNL A   1     -10.641   3.068  11.013  0.00  0.00    -0.000 A 
ATOM     12  C   UNL A   1      -9.710   2.188  10.406  0.00  0.00    -0.004 A 
ATOM     13  C   UNL A   1      -9.568   2.355   8.998  0.00  0.00    -0.022 A 
ATOM     14  C   UNL A   1      -8.343   1.791   8.430  0.00  0.00    -0.004 A 
ATOM     15  C   UNL A   1      -9.679   3.807   8.509  0.00  0.00    +0.031 C 
ENDROOT
BRANCH   5  16
ATOM     16  O   UNL A   1      -4.935  -1.421   8.693  0.00  0.00    -0.471 OA
ATOM     17  C   UNL A   1      -4.927  -1.398   7.370  0.00  0.00    +0.253 C 
ENDBRANCH   5  16
TORSDOF 1
ENDMDL
ENDMDL
