REMARK  Name = No_4007-gen_results/8p0m/2024-11-27-11-27-31/
REMARK  1 active torsions:
REMARK  status: ('A' for Active; 'I' for Inactive)
REMARK    1  A    between atoms: C_5  and  O_7
REMARK                            x       y       z     vdW  Elec       q    Type
REMARK                         _______ _______ _______ _____ _____    ______ ____
ROOT
ATOM      1  C   UNL A   1     -28.016  -0.814  28.878  0.00  0.00    +0.003 A 
ATOM      2  C   UNL A   1     -27.064  -0.119  28.608  0.00  0.00    +0.000 A 
ATOM      3  C   UNL A   1     -26.972   0.714  27.506  0.00  0.00    +0.003 A 
ATOM      4  C   UNL A   1     -28.105   0.774  26.642  0.00  0.00    +0.037 A 
ATOM      5  C   UNL A   1     -29.201   0.104  27.053  0.00  0.00    +0.139 A 
ATOM      6  C   UNL A   1     -29.210  -0.603  28.185  0.00  0.00    +0.037 A 
ATOM      7  C   UNL A   1     -25.719  -0.221  29.401  0.00  0.00    -0.000 A 
ATOM      8  C   UNL A   1     -25.378  -1.098  29.981  0.00  0.00    -0.000 A 
ATOM      9  C   UNL A   1     -24.279  -1.367  30.392  0.00  0.00    -0.000 A 
ATOM     10  C   UNL A   1     -23.164  -0.406  30.393  0.00  0.00    -0.000 A 
ATOM     11  C   UNL A   1     -23.489   0.728  29.642  0.00  0.00    -0.000 A 
ATOM     12  C   UNL A   1     -24.773   0.853  29.055  0.00  0.00    -0.004 A 
ATOM     13  C   UNL A   1     -24.942   2.011  28.241  0.00  0.00    -0.022 A 
ATOM     14  C   UNL A   1     -26.061   1.946  27.301  0.00  0.00    -0.004 A 
ATOM     15  C   UNL A   1     -23.694   2.426  27.447  0.00  0.00    +0.031 C 
ENDROOT
BRANCH   5  16
ATOM     16  O   UNL A   1     -30.299   0.228  26.257  0.00  0.00    -0.471 OA
ATOM     17  C   UNL A   1     -30.262  -0.269  25.031  0.00  0.00    +0.253 C 
ENDBRANCH   5  16
TORSDOF 1
