REMARK  Name = No_4008-gen_results/8p0m/2024-11-27-11-27-31/
REMARK  9 active torsions:
REMARK  status: ('A' for Active; 'I' for Inactive)
REMARK    1  A    between atoms: C_2  and  C_21
REMARK    2  A    between atoms: C_3  and  C_7
REMARK    3  A    between atoms: C_6  and  C_24
REMARK    4  A    between atoms: N_8  and  C_10
REMARK    5  A    between atoms: C_15  and  C_16
REMARK    6  A    between atoms: C_24  and  O_25
REMARK    7  A    between atoms: O_25  and  C_27
REMARK    8  A    between atoms: C_28  and  C_33
REMARK    9  A    between atoms: C_33  and  N_34
REMARK                            x       y       z     vdW  Elec       q    Type
REMARK                         _______ _______ _______ _____ _____    ______ ____
ROOT
ATOM      1  C   UNL A   1     -28.016  -0.814  28.878  0.00  0.00    +0.011 A 
ATOM      2  C   UNL A   1     -28.469  -0.785  29.829  0.00  0.00    +0.080 A 
ATOM      3  C   UNL A   1     -27.087   0.290  28.638  0.00  0.00    +0.056 A 
ATOM      4  C   UNL A   1     -26.832   1.249  29.587  0.00  0.00    +0.011 A 
ATOM      5  C   UNL A   1     -28.391   0.080  31.006  0.00  0.00    +0.013 A 
ATOM      6  C   UNL A   1     -27.494   1.152  30.784  0.00  0.00    +0.076 A 
ENDROOT
BRANCH   3   7
ATOM      7  C   UNL A   1     -26.317   0.399  27.365  0.00  0.00    +0.269 C 
ATOM      8  N   UNL A   1     -25.072   0.157  27.430  0.00  0.00    -0.175 NA
ATOM      9  O   UNL A   1     -26.800   1.008  26.378  0.00  0.00    -0.268 OA
BRANCH   8  10
ATOM     10  C   UNL A   1     -24.135   0.639  27.079  0.00  0.00    +0.073 A 
ATOM     11  C   UNL A   1     -23.994   1.527  26.054  0.00  0.00    +0.017 A 
ATOM     12  C   UNL A   1     -22.747   2.224  25.757  0.00  0.00    +0.001 A 
ATOM     13  C   UNL A   1     -21.733   2.067  26.702  0.00  0.00    +0.000 A 
ATOM     14  C   UNL A   1     -21.871   1.244  27.850  0.00  0.00    +0.001 A 
ATOM     15  C   UNL A   1     -23.029   0.624  28.079  0.00  0.00    +0.013 A 
BRANCH  15  16
ATOM     16  C   UNL A   1     -23.080  -0.185  29.250  0.00  0.00    +0.004 C 
ATOM     17  C   UNL A   1     -22.124  -0.825  29.750  0.00  0.00    +0.095 C 
ATOM     18  N   UNL A   1     -22.467  -1.505  30.955  0.00  0.00    -0.247 NA
ATOM     19  C   UNL A   1     -23.823  -1.216  31.181  0.00  0.00    +0.077 C 
ATOM     20  C   UNL A   1     -24.235  -0.420  30.107  0.00  0.00    +0.075 C 
ENDBRANCH  15  16
ENDBRANCH   8  10
ENDBRANCH   3   7
BRANCH   2  21
ATOM     21  C   UNL A   1     -29.477  -2.002  30.215  0.00  0.00    +0.388 C 
ATOM     22  O   UNL A   1     -29.969  -2.005  31.339  0.00  0.00    -0.241 OA
ATOM     23  O   UNL A   1     -29.560  -2.921  29.445  0.00  0.00    -0.241 OA
ENDBRANCH   2  21
BRANCH   6  24
ATOM     24  C   UNL A   1     -27.293   2.164  31.877  0.00  0.00    +0.346 C 
ATOM     25  O   UNL A   1     -27.498   1.602  33.134  0.00  0.00    -0.244 OA
BRANCH  24  26
ATOM     26  O   UNL A   1     -27.021   3.250  31.785  0.00  0.00    -0.421 OA
BRANCH  26  27
ATOM     27  C   UNL A   1     -26.975   4.044  30.992  0.00  0.00    +0.146 A 
ATOM     28  C   UNL A   1     -28.018   4.737  30.514  0.00  0.00    +0.030 A 
ATOM     29  C   UNL A   1     -27.986   5.366  29.260  0.00  0.00    +0.000 A 
ATOM     30  C   UNL A   1     -25.726   4.284  30.202  0.00  0.00    +0.037 A 
ATOM     31  C   UNL A   1     -25.625   4.968  29.015  0.00  0.00    +0.003 A 
ATOM     32  C   UNL A   1     -26.788   5.582  28.568  0.00  0.00    -0.000 A 
BRANCH  28  33
ATOM     33  C   UNL A   1     -29.288   4.567  31.171  0.00  0.00    +0.118 C 
BRANCH  33  34
ATOM     34  N   UNL A   1     -30.333   4.363  30.698  0.00  0.00    -0.212 NA
ATOM     35  C   UNL A   1     -31.422   3.837  31.216  0.00  0.00    +0.108 C 
ENDBRANCH  33  34
ENDBRANCH  28  33
ENDBRANCH  26  27
ENDBRANCH  24  26
ENDBRANCH   6  24
TORSDOF 9
