MODEL 4008
MODEL 1
REMARK VINA RESULT:    -7.540      0.000      0.000
REMARK INTER + INTRA:         -14.058
REMARK INTER:                 -11.508
REMARK INTRA:                  -2.550
REMARK UNBOUND:                -2.550
REMARK  Name = No_4008-gen_results/8p0m/2024-11-27-11-27-31/
REMARK  9 active torsions:
REMARK  status: ('A' for Active; 'I' for Inactive)
REMARK    1  A    between atoms: C_2  and  C_21
REMARK    2  A    between atoms: C_3  and  C_7
REMARK    3  A    between atoms: C_6  and  C_24
REMARK    4  A    between atoms: N_8  and  C_10
REMARK    5  A    between atoms: C_15  and  C_16
REMARK    6  A    between atoms: C_24  and  O_25
REMARK    7  A    between atoms: O_25  and  C_27
REMARK    8  A    between atoms: C_28  and  C_33
REMARK    9  A    between atoms: C_33  and  N_34
REMARK                            x       y       z     vdW  Elec       q    Type
REMARK                         _______ _______ _______ _____ _____    ______ ____
ROOT
ATOM      1  C   UNL A   1     -25.326   1.987  25.912  0.00  0.00    +0.011 A 
ATOM      2  C   UNL A   1     -24.741   2.319  26.723  0.00  0.00    +0.080 A 
ATOM      3  C   UNL A   1     -25.443   0.531  25.832  0.00  0.00    +0.056 A 
ATOM      4  C   UNL A   1     -24.853  -0.301  26.751  0.00  0.00    +0.011 A 
ATOM      5  C   UNL A   1     -24.018   1.688  27.827  0.00  0.00    +0.013 A 
ATOM      6  C   UNL A   1     -24.125   0.279  27.758  0.00  0.00    +0.076 A 
ENDROOT
BRANCH   3   7
ATOM      7  C   UNL A   1     -26.265  -0.129  24.776  0.00  0.00    +0.269 C 
ATOM      8  N   UNL A   1     -27.407   0.375  24.545  0.00  0.00    -0.175 NA
ATOM      9  O   UNL A   1     -25.987  -1.290  24.384  0.00  0.00    -0.268 OA
BRANCH   8  10
ATOM     10  C   UNL A   1     -28.448   0.003  24.431  0.00  0.00    +0.073 A 
ATOM     11  C   UNL A   1     -28.901  -0.930  23.546  0.00  0.00    +0.017 A 
ATOM     12  C   UNL A   1     -30.258  -1.467  23.566  0.00  0.00    +0.001 A 
ATOM     13  C   UNL A   1     -31.031  -1.102  24.668  0.00  0.00    +0.000 A 
ATOM     14  C   UNL A   1     -30.563  -0.224  25.680  0.00  0.00    +0.001 A 
ATOM     15  C   UNL A   1     -29.316   0.245  25.619  0.00  0.00    +0.013 A 
BRANCH  15  16
ATOM     16  C   UNL A   1     -28.930   1.123  26.671  0.00  0.00    +0.004 C 
ATOM     17  C   UNL A   1     -28.507   0.782  27.802  0.00  0.00    +0.095 C 
ATOM     18  N   UNL A   1     -28.151   1.887  28.630  0.00  0.00    -0.247 NA
ATOM     19  C   UNL A   1     -28.410   3.034  27.862  0.00  0.00    +0.077 C 
ATOM     20  C   UNL A   1     -28.931   2.580  26.646  0.00  0.00    +0.075 C 
ENDBRANCH  15  16
ENDBRANCH   8  10
ENDBRANCH   3   7
BRANCH   2  21
ATOM     21  C   UNL A   1     -24.597   3.926  26.932  0.00  0.00    +0.388 C 
ATOM     22  O   UNL A   1     -24.895   4.390  28.028  0.00  0.00    -0.241 OA
ATOM     23  O   UNL A   1     -24.367   4.595  25.961  0.00  0.00    -0.241 OA
ENDBRANCH   2  21
BRANCH   6  24
ATOM     24  C   UNL A   1     -23.428  -0.550  28.801  0.00  0.00    +0.346 C 
ATOM     25  O   UNL A   1     -22.105  -0.150  28.968  0.00  0.00    -0.244 OA
BRANCH  24  26
ATOM     26  O   UNL A   1     -23.839  -1.401  29.409  0.00  0.00    -0.421 OA
BRANCH  26  27
ATOM     27  C   UNL A   1     -24.444  -2.334  29.252  0.00  0.00    +0.146 A 
ATOM     28  C   UNL A   1     -25.694  -2.541  29.691  0.00  0.00    +0.030 A 
ATOM     29  C   UNL A   1     -26.222  -3.829  29.863  0.00  0.00    +0.000 A 
ATOM     30  C   UNL A   1     -23.828  -3.578  28.692  0.00  0.00    +0.037 A 
ATOM     31  C   UNL A   1     -24.345  -4.849  28.755  0.00  0.00    +0.003 A 
ATOM     32  C   UNL A   1     -25.616  -4.961  29.304  0.00  0.00    -0.000 A 
BRANCH  28  33
ATOM     33  C   UNL A   1     -26.385  -1.425  30.283  0.00  0.00    +0.118 C 
BRANCH  33  34
ATOM     34  N   UNL A   1     -26.528  -1.168  31.410  0.00  0.00    -0.212 NA
ATOM     35  C   UNL A   1     -25.805  -0.425  32.220  0.00  0.00    +0.108 C 
ENDBRANCH  33  34
ENDBRANCH  28  33
ENDBRANCH  26  27
ENDBRANCH  24  26
ENDBRANCH   6  24
TORSDOF 9
ENDMDL
ENDMDL
