MODEL 4009
MODEL 1
REMARK VINA RESULT:    -6.613      0.000      0.000
REMARK INTER + INTRA:         -15.508
REMARK INTER:                 -10.865
REMARK INTRA:                  -4.643
REMARK UNBOUND:                -4.643
REMARK  Name = No_4009-gen_results/8p0m/2024-11-27-11-27-31/
REMARK  11 active torsions:
REMARK  status: ('A' for Active; 'I' for Inactive)
REMARK    1  A    between atoms: C_2  and  C_15
REMARK    2  A    between atoms: C_3  and  C_7
REMARK    3  A    between atoms: C_15  and  O_17
REMARK    4  A    between atoms: O_17  and  C_18
REMARK    5  A    between atoms: C_18  and  C_19
REMARK    6  A    between atoms: C_21  and  C_25
REMARK    7  A    between atoms: C_23  and  C_28
REMARK    8  A    between atoms: C_25  and  O_27
REMARK    9  A    between atoms: O_27  and  C_32
REMARK   10  A    between atoms: C_32  and  C_33
REMARK   11  A    between atoms: C_33  and  C_34
REMARK                            x       y       z     vdW  Elec       q    Type
REMARK                         _______ _______ _______ _____ _____    ______ ____
ROOT
ATOM      1  C   UNL A   1     -29.138  -0.978  30.930  0.00  0.00    +0.235 C 
ENDROOT
BRANCH   1   2
ATOM      2  C   UNL A   1     -28.206   0.232  30.642  0.00  0.00    +0.021 A 
ATOM      3  C   UNL A   1     -28.144   0.600  29.304  0.00  0.00    +0.006 A 
ATOM      4  C   UNL A   1     -27.235   1.838  29.189  0.00  0.00    +0.075 A 
ATOM      5  C   UNL A   1     -26.363   2.023  30.069  0.00  0.00    +0.010 A 
ATOM      6  C   UNL A   1     -26.281   1.443  31.325  0.00  0.00    +0.071 A 
ATOM      7  C   UNL A   1     -27.177   0.410  31.604  0.00  0.00    +0.003 A 
BRANCH   6   8
ATOM      8  C   UNL A   1     -25.375   1.822  32.397  0.00  0.00    +0.419 C 
ATOM      9  F   UNL A   1     -25.087   0.948  33.175  0.00  0.00    -0.166 F 
ATOM     10  F   UNL A   1     -25.973   2.894  33.045  0.00  0.00    -0.166 F 
ATOM     11  F   UNL A   1     -24.207   2.348  31.984  0.00  0.00    -0.166 F 
ENDBRANCH   6   8
BRANCH   4  12
ATOM     12  C   UNL A   1     -27.335   2.482  27.848  0.00  0.00    +0.341 C 
ATOM     13  O   UNL A   1     -28.439   2.862  27.504  0.00  0.00    -0.245 OA
BRANCH  12  14
ATOM     14  O   UNL A   1     -26.417   2.386  26.978  0.00  0.00    -0.445 OA
BRANCH  14  15
ATOM     15  C   UNL A   1     -26.658   1.870  25.731  0.00  0.00    +0.213 C 
BRANCH  15  16
ATOM     16  C   UNL A   1     -26.895   0.387  25.770  0.00  0.00    +0.073 C 
BRANCH  16  17
ATOM     17  C   UNL A   1     -26.189  -0.257  24.801  0.00  0.00    -0.022 C 
ATOM     18  C   UNL A   1     -24.946   0.125  24.441  0.00  0.00    -0.005 C 
ENDBRANCH  16  17
ENDBRANCH  15  16
ENDBRANCH  14  15
ENDBRANCH  12  14
ENDBRANCH   4  12
ENDBRANCH   1   2
BRANCH   1  19
ATOM     19  O   UNL A   1     -28.720  -1.959  30.044  0.00  0.00    -0.440 OA
BRANCH  19  20
ATOM     20  C   UNL A   1     -28.087  -3.079  30.582  0.00  0.00    +0.342 C 
ATOM     21  O   UNL A   1     -28.590  -3.621  31.427  0.00  0.00    -0.245 OA
BRANCH  20  23
ATOM     22  C   UNL A   1     -26.074  -2.394  30.030  0.00  0.00    +0.007 A 
ATOM     23  C   UNL A   1     -26.627  -3.290  30.042  0.00  0.00    +0.078 A 
ATOM     24  C   UNL A   1     -24.793  -2.448  29.385  0.00  0.00    +0.003 A 
ATOM     25  C   UNL A   1     -24.236  -3.588  28.964  0.00  0.00    +0.030 A 
ATOM     26  C   UNL A   1     -26.219  -4.636  29.665  0.00  0.00    +0.036 A 
ATOM     27  C   UNL A   1     -25.027  -4.707  29.087  0.00  0.00    +0.140 A 
ATOM     28  F   UNL A   1     -24.552  -5.902  28.684  0.00  0.00    -0.204 F 
BRANCH  24  29
ATOM     29  C   UNL A   1     -24.011  -1.134  29.258  0.00  0.00    +0.006 A 
ATOM     30  C   UNL A   1     -23.329  -0.667  30.057  0.00  0.00    +0.035 A 
ATOM     31  C   UNL A   1     -22.665   0.652  29.846  0.00  0.00    +0.007 A 
ATOM     32  C   UNL A   1     -24.160  -0.449  27.992  0.00  0.00    +0.001 A 
ATOM     33  C   UNL A   1     -23.484   0.681  27.622  0.00  0.00    +0.000 A 
ATOM     34  C   UNL A   1     -22.775   1.257  28.613  0.00  0.00    +0.001 A 
ATOM     35 BR   UNL A   1     -23.212  -1.359  31.838  0.00  0.00    -0.049 Br
ENDBRANCH  24  29
ENDBRANCH  20  23
ENDBRANCH  19  20
ENDBRANCH   1  19
TORSDOF 11
ENDMDL
ENDMDL
