MODEL 400
MODEL 1
REMARK VINA RESULT:    -3.667      0.000      0.000
REMARK INTER + INTRA:          -3.667
REMARK INTER:                  -3.667
REMARK INTRA:                   0.000
REMARK UNBOUND:                 0.000
REMARK  Name = No_400-gen_results/8p0m/2024-11-27-11-27-31/
REMARK  0 active torsions:
REMARK  status: ('A' for Active; 'I' for Inactive)
REMARK                            x       y       z     vdW  Elec       q    Type
REMARK                         _______ _______ _______ _____ _____    ______ ____
ROOT
ATOM      1 CL   UNL A   1      -7.290  -8.462  19.802  0.00  0.00    -0.010 Cl
ATOM      2  C   UNL A   1      -7.891  -9.681  20.284  0.00  0.00    +0.477 C 
ATOM      3  F   UNL A   1      -7.892 -10.531  19.509  0.00  0.00    -0.156 F 
ATOM      4  F   UNL A   1      -7.297 -10.127  21.454  0.00  0.00    -0.156 F 
ATOM      5  F   UNL A   1      -9.196  -9.450  20.697  0.00  0.00    -0.156 F 
ENDROOT
TORSDOF 0
ENDMDL
ENDMDL
