REMARK  Name = outputs/IAG933/test6/raw/output_401_IAG933_linker_design_.xyz
REMARK  17 active torsions:
REMARK  status: ('A' for Active; 'I' for Inactive)
REMARK    1  A    between atoms: C_1  and  C_2
REMARK    2  A    between atoms: C_1  and  C_8
REMARK    3  A    between atoms: C_1  and  C_44
REMARK    4  A    between atoms: C_13  and  N_30
REMARK    5  A    between atoms: C_14  and  C_15
REMARK    6  A    between atoms: C_21  and  O_22
REMARK    7  A    between atoms: O_22  and  C_23
REMARK    8  A    between atoms: C_23  and  C_24
REMARK    9  A    between atoms: C_29  and  C_34
REMARK   10  A    between atoms: C_29  and  C_44
REMARK   11  A    between atoms: C_31  and  C_44
REMARK   12  A    between atoms: C_34  and  C_35
REMARK   13  A    between atoms: C_34  and  C_45
REMARK   14  A    between atoms: C_36  and  C_42
REMARK   15  A    between atoms: C_36  and  C_43
REMARK   16  A    between atoms: C_38  and  C_42
REMARK   17  A    between atoms: C_43  and  C_45
REMARK                            x       y       z     vdW  Elec       q    Type
REMARK                         _______ _______ _______ _____ _____    ______ ____
ROOT
ATOM      1  C   UNL A   1     -25.395  -0.300  29.040  0.00  0.00    +0.042 C 
ENDROOT
BRANCH   1   3
ATOM      2  N   UNL A   1     -24.399   1.327  27.104  0.00  0.00    -0.264 N 
ATOM      3  C   UNL A   1     -24.191   0.503  28.268  0.00  0.00    +0.035 C 
ATOM      4  C   UNL A   1     -22.307   1.121  27.484  0.00  0.00    +0.156 C 
ATOM      5  C   UNL A   1     -23.224   1.677  26.593  0.00  0.00    +0.099 C 
ATOM      6  F   UNL A   1     -21.021   1.642  27.501  0.00  0.00    -0.203 F 
ATOM      7  C   UNL A   1     -22.836   0.332  28.463  0.00  0.00    +0.042 C 
BRANCH   2   8
ATOM      8  C   UNL A   1     -25.688   1.614  26.461  0.00  0.00    +0.094 C 
ATOM      9  C   UNL A   1     -26.250   2.920  26.395  0.00  0.00    +0.090 C 
ATOM     10  C   UNL A   1     -27.438   3.091  25.645  0.00  0.00    +0.108 C 
ATOM     11  N   UNL A   1     -28.075   2.089  25.003  0.00  0.00    -0.208 NA
ATOM     12  C   UNL A   1     -27.543   0.849  25.079  0.00  0.00    +0.255 C 
ATOM     13  C   UNL A   1     -26.354   0.576  25.777  0.00  0.00    +0.207 C 
ATOM     14  F   UNL A   1     -25.860  -0.681  25.795  0.00  0.00    -0.198 F 
BRANCH   9  15
ATOM     15  C   UNL A   1     -25.642   4.093  27.123  0.00  0.00    +0.268 C 
ATOM     16  N   UNL A   1     -25.614   5.252  26.449  0.00  0.00    -0.200 NA
ATOM     17  C   UNL A   1     -25.026   6.479  26.963  0.00  0.00    +0.139 C 
ATOM     18  O   UNL A   1     -25.143   3.966  28.243  0.00  0.00    -0.268 OA
ENDBRANCH   9  15
BRANCH  12  19
ATOM     19  O   UNL A   1     -28.193  -0.208  24.477  0.00  0.00    -0.456 OA
BRANCH  19  20
ATOM     20  C   UNL A   1     -29.460   0.005  23.866  0.00  0.00    +0.243 C 
BRANCH  20  21
ATOM     21  C   UNL A   1     -30.065  -1.377  23.573  0.00  0.00    +0.229 C 
ATOM     22  O   UNL A   1     -30.729  -1.878  24.721  0.00  0.00    -0.216 OA
ENDBRANCH  20  21
ENDBRANCH  19  20
ENDBRANCH  12  19
ENDBRANCH   2   8
ENDBRANCH   1   3
BRANCH   1  23
ATOM     23  C   UNL A   1     -24.855  -1.012  30.143  0.00  0.00    +0.044 C 
BRANCH  23  24
ATOM     24  C   UNL A   1     -24.973  -2.505  29.788  0.00  0.00    -0.021 C 
ATOM     25  C   UNL A   1     -23.906  -3.173  29.146  0.00  0.00    -0.004 C 
ATOM     26  C   UNL A   1     -23.989  -4.549  28.853  0.00  0.00    -0.000 C 
ATOM     27  C   UNL A   1     -25.137  -5.280  29.205  0.00  0.00    -0.000 C 
ATOM     28  C   UNL A   1     -26.232  -4.611  29.784  0.00  0.00    -0.000 C 
ATOM     29  C   UNL A   1     -26.155  -3.232  30.065  0.00  0.00    -0.004 C 
ENDBRANCH  23  24
BRANCH  23  30
ATOM     30  C   UNL A   1     -25.387  -0.679  31.571  0.00  0.00    +0.077 C 
ATOM     31  C   UNL A   1     -25.189   0.773  32.028  0.00  0.00    +0.019 C 
ATOM     32  C   UNL A   1     -25.336   0.684  33.544  0.00  0.00    +0.020 C 
ATOM     33  C   UNL A   1     -24.829  -0.715  33.905  0.00  0.00    +0.089 C 
ATOM     34  N   UNL A   1     -24.758  -1.481  32.646  0.00  0.00    -0.219 NA
ENDBRANCH  23  30
ENDBRANCH   1  23
BRANCH   1  35
ATOM     35  C   UNL A   1     -26.907  -0.412  28.693  0.00  0.00    +0.009 C 
BRANCH  35  36
ATOM     36  C   UNL A   1     -28.273  -0.956  28.253  0.00  0.00    +0.036 C 
BRANCH  36  38
ATOM     37  O   UNL A   1     -29.480   0.623  29.638  0.00  0.00    -0.220 OA
ATOM     38  C   UNL A   1     -29.301   0.192  28.283  0.00  0.00    +0.182 C 
ENDBRANCH  36  38
BRANCH  36  39
ATOM     39  C   UNL A   1     -28.772  -2.240  29.114  0.00  0.00    +0.035 C 
BRANCH  39  41
ATOM     40  O   UNL A   1     -30.176  -3.496  30.569  0.00  0.00    -0.223 OA
ATOM     41  C   UNL A   1     -30.169  -2.419  29.838  0.00  0.00    +0.152 C 
BRANCH  41  42
ATOM     42  C   UNL A   1     -31.769  -2.050  29.541  0.00  0.00    +0.034 C 
BRANCH  42  43
ATOM     43  C   UNL A   1     -32.901  -2.535  30.471  0.00  0.00    +0.023 C 
BRANCH  43  44
ATOM     44  C   UNL A   1     -33.895  -1.426  30.623  0.00  0.00    +0.109 C 
ATOM     45  N   UNL A   1     -35.245  -1.770  30.646  0.00  0.00    -0.131 NA
ENDBRANCH  43  44
ENDBRANCH  42  43
ENDBRANCH  41  42
ENDBRANCH  39  41
ENDBRANCH  36  39
ENDBRANCH  35  36
ENDBRANCH   1  35
TORSDOF 17
