MODEL 4011
MODEL 1
REMARK VINA RESULT:    -7.065      0.000      0.000
REMARK INTER + INTRA:          -7.834
REMARK INTER:                  -7.478
REMARK INTRA:                  -0.356
REMARK UNBOUND:                -0.356
REMARK  Name = No_4011-gen_results/8p0m/2024-11-27-11-27-31/
REMARK  1 active torsions:
REMARK  status: ('A' for Active; 'I' for Inactive)
REMARK    1  A    between atoms: C_4  and  C_11
REMARK                            x       y       z     vdW  Elec       q    Type
REMARK                         _______ _______ _______ _____ _____    ______ ____
ROOT
ATOM      1  C   UNL A   1     -25.697  -0.047  25.917  0.00  0.00    +0.000 A 
ATOM      2  C   UNL A   1     -25.455  -0.703  26.904  0.00  0.00    +0.000 A 
ATOM      3  C   UNL A   1     -24.383  -0.446  27.758  0.00  0.00    +0.000 A 
ATOM      4  C   UNL A   1     -24.008  -1.198  28.971  0.00  0.00    +0.000 A 
ATOM      5  C   UNL A   1     -22.868  -0.929  29.808  0.00  0.00    +0.000 A 
ATOM      6  C   UNL A   1     -22.204   0.269  29.525  0.00  0.00    +0.000 A 
ATOM      7  C   UNL A   1     -24.690   0.995  25.517  0.00  0.00    +0.000 A 
ATOM      8  C   UNL A   1     -23.656   1.375  26.342  0.00  0.00    +0.000 A 
ATOM      9  C   UNL A   1     -23.412   0.648  27.493  0.00  0.00    +0.000 A 
ATOM     10  C   UNL A   1     -22.383   0.996  28.367  0.00  0.00    +0.000 A 
ENDROOT
BRANCH   4  11
ATOM     11  C   UNL A   1     -24.584  -2.504  29.089  0.00  0.00    +0.003 A 
ATOM     12  C   UNL A   1     -23.981  -3.642  28.771  0.00  0.00    +0.021 A 
ATOM     13  C   UNL A   1     -25.885  -2.562  29.766  0.00  0.00    +0.021 A 
ATOM     14  C   UNL A   1     -24.699  -4.906  28.853  0.00  0.00    +0.099 A 
ATOM     15  N   UNL A   1     -25.955  -4.933  29.468  0.00  0.00    -0.242 NA
ATOM     16  C   UNL A   1     -26.505  -3.770  29.913  0.00  0.00    +0.099 A 
ENDBRANCH   4  11
TORSDOF 1
ENDMDL
ENDMDL
