REMARK  Name = No_4012-gen_results/8p0m/2024-11-27-11-27-31/
REMARK  1 active torsions:
REMARK  status: ('A' for Active; 'I' for Inactive)
REMARK    1  A    between atoms: C_1  and  C_12
REMARK                            x       y       z     vdW  Elec       q    Type
REMARK                         _______ _______ _______ _____ _____    ______ ____
ROOT
ATOM      1  C   UNL A   1     -28.016  -0.814  28.878  0.00  0.00    -0.006 C 
ATOM      2  C   UNL A   1     -27.064  -0.119  28.608  0.00  0.00    +0.015 C 
ATOM      3  C   UNL A   1     -26.972   0.714  27.506  0.00  0.00    +0.173 C 
ATOM      4  C   UNL A   1     -25.820   1.491  27.116  0.00  0.00    +0.084 C 
ATOM      5  C   UNL A   1     -24.656   1.424  27.918  0.00  0.00    -0.019 A 
ATOM      6  C   UNL A   1     -23.460   2.116  27.616  0.00  0.00    -0.004 A 
ATOM      7  C   UNL A   1     -22.345   1.994  28.441  0.00  0.00    -0.000 A 
ATOM      8  C   UNL A   1     -22.366   0.991  29.443  0.00  0.00    -0.000 A 
ATOM      9  C   UNL A   1     -23.479   0.305  29.792  0.00  0.00    -0.004 A 
ATOM     10  C   UNL A   1     -24.634   0.467  29.006  0.00  0.00    -0.021 A 
ATOM     11  C   UNL A   1     -25.767  -0.267  29.341  0.00  0.00    +0.055 C 
ATOM     12  O   UNL A   1     -28.132   0.899  26.923  0.00  0.00    -0.291 OA
ATOM     13  C   UNL A   1     -25.912   2.400  26.008  0.00  0.00    +0.013 C 
ENDROOT
BRANCH   1  14
ATOM     14  C   UNL A   1     -28.711  -0.405  30.150  0.00  0.00    +0.118 C 
ATOM     15  N   UNL A   1     -29.764  -1.156  30.603  0.00  0.00    -0.233 NA
ATOM     16  C   UNL A   1     -30.628  -0.825  31.196  0.00  0.00    +0.081 C 
ATOM     17  C   UNL A   1     -31.054   0.070  31.369  0.00  0.00    +0.019 C 
ATOM     18  C   UNL A   1     -30.055   1.221  31.083  0.00  0.00    +0.025 A 
ATOM     19  C   UNL A   1     -28.087   0.450  31.173  0.00  0.00    +0.052 C 
ATOM     20  C   UNL A   1     -30.740   2.625  31.299  0.00  0.00    +0.140 A 
ATOM     21  C   UNL A   1     -28.773   1.363  31.084  0.00  0.00    -0.018 A 
ATOM     22  F   UNL A   1     -31.892   2.608  31.433  0.00  0.00    -0.204 F 
ATOM     23  C   UNL A   1     -29.976   3.781  30.971  0.00  0.00    +0.030 A 
ATOM     24  C   UNL A   1     -28.647   3.780  30.823  0.00  0.00    +0.002 A 
ATOM     25  C   UNL A   1     -28.017   2.642  30.934  0.00  0.00    -0.004 A 
ENDBRANCH   1  14
TORSDOF 1
