MODEL 4012
MODEL 1
REMARK VINA RESULT:    -8.169      0.000      0.000
REMARK INTER + INTRA:          -9.758
REMARK INTER:                  -8.646
REMARK INTRA:                  -1.112
REMARK UNBOUND:                -1.112
REMARK  Name = No_4012-gen_results/8p0m/2024-11-27-11-27-31/
REMARK  1 active torsions:
REMARK  status: ('A' for Active; 'I' for Inactive)
REMARK    1  A    between atoms: C_1  and  C_12
REMARK                            x       y       z     vdW  Elec       q    Type
REMARK                         _______ _______ _______ _____ _____    ______ ____
ROOT
ATOM      1  C   UNL A   1     -22.766   1.796  28.177  0.00  0.00    -0.006 C 
ATOM      2  C   UNL A   1     -23.437   1.001  28.793  0.00  0.00    +0.015 C 
ATOM      3  C   UNL A   1     -23.784   1.114  30.128  0.00  0.00    +0.173 C 
ATOM      4  C   UNL A   1     -24.514   0.143  30.907  0.00  0.00    +0.084 C 
ATOM      5  C   UNL A   1     -24.937  -1.051  30.276  0.00  0.00    -0.019 A 
ATOM      6  C   UNL A   1     -25.629  -2.085  30.947  0.00  0.00    -0.004 A 
ATOM      7  C   UNL A   1     -26.003  -3.242  30.268  0.00  0.00    -0.000 A 
ATOM      8  C   UNL A   1     -25.474  -3.452  28.970  0.00  0.00    -0.000 A 
ATOM      9  C   UNL A   1     -24.817  -2.500  28.267  0.00  0.00    -0.004 A 
ATOM     10  C   UNL A   1     -24.488  -1.299  28.920  0.00  0.00    -0.021 A 
ATOM     11  C   UNL A   1     -23.780  -0.335  28.210  0.00  0.00    +0.055 C 
ATOM     12  O   UNL A   1     -23.554   2.315  30.602  0.00  0.00    -0.291 OA
ATOM     13  C   UNL A   1     -24.900   0.451  32.255  0.00  0.00    +0.013 C 
ENDROOT
BRANCH   1  14
ATOM     14  C   UNL A   1     -23.525   2.493  27.078  0.00  0.00    +0.118 C 
ATOM     15  N   UNL A   1     -23.974   3.770  27.287  0.00  0.00    -0.233 NA
ATOM     16  C   UNL A   1     -24.856   4.260  26.850  0.00  0.00    +0.081 C 
ATOM     17  C   UNL A   1     -25.697   3.921  26.414  0.00  0.00    +0.019 C 
ATOM     18  C   UNL A   1     -25.507   2.471  25.899  0.00  0.00    +0.025 A 
ATOM     19  C   UNL A   1     -23.438   2.101  25.662  0.00  0.00    +0.052 C 
ATOM     20  C   UNL A   1     -26.843   1.921  25.267  0.00  0.00    +0.140 A 
ATOM     21  C   UNL A   1     -24.516   1.744  25.510  0.00  0.00    -0.018 A 
ATOM     22  F   UNL A   1     -27.790   2.565  25.452  0.00  0.00    -0.204 F 
ATOM     23  C   UNL A   1     -26.854   0.561  24.845  0.00  0.00    +0.030 A 
ATOM     24  C   UNL A   1     -25.750  -0.164  24.635  0.00  0.00    +0.002 A 
ATOM     25  C   UNL A   1     -24.594   0.391  24.882  0.00  0.00    -0.004 A 
ENDBRANCH   1  14
TORSDOF 1
ENDMDL
ENDMDL
