MODEL 4013
MODEL 1
REMARK VINA RESULT:    -6.776      0.000      0.000
REMARK INTER + INTRA:          -8.141
REMARK INTER:                  -7.568
REMARK INTRA:                  -0.572
REMARK UNBOUND:                -0.572
REMARK  Name = No_4013-gen_results/8p0m/2024-11-27-11-27-31/
REMARK  2 active torsions:
REMARK  status: ('A' for Active; 'I' for Inactive)
REMARK    1  A    between atoms: C_3  and  C_8
REMARK    2  A    between atoms: C_8  and  C_10
REMARK                            x       y       z     vdW  Elec       q    Type
REMARK                         _______ _______ _______ _____ _____    ______ ____
ROOT
ATOM      1  C   UNL A   1     -23.840  -1.282  29.863  0.00  0.00    +0.111 C 
ATOM      2 CL   UNL A   1     -23.773  -1.443  31.326  0.00  0.00    -0.110 Cl
ENDROOT
BRANCH   1   5
ATOM      3  N   UNL A   1     -21.416   0.590  28.002  0.00  0.00    -0.205 NA
ATOM      4  C   UNL A   1     -21.892  -0.030  28.724  0.00  0.00    +0.242 C 
ATOM      5  C   UNL A   1     -23.283  -0.172  28.846  0.00  0.00    +0.097 C 
ATOM      6  O   UNL A   1     -21.208  -1.085  29.186  0.00  0.00    -0.273 OA
ATOM      7  C   UNL A   1     -24.044   0.805  28.700  0.00  0.00    +0.013 C 
ATOM      8  C   UNL A   1     -22.177   1.763  27.436  0.00  0.00    +0.115 C 
ATOM      9  C   UNL A   1     -23.575   1.849  27.782  0.00  0.00    +0.024 C 
ENDBRANCH   1   5
BRANCH   1  10
ATOM     10  C   UNL A   1     -24.410  -2.437  29.037  0.00  0.00    -0.007 A 
ATOM     11  C   UNL A   1     -23.858  -3.366  28.534  0.00  0.00    -0.003 A 
ATOM     12  C   UNL A   1     -24.216  -4.796  28.688  0.00  0.00    -0.000 A 
ATOM     13  C   UNL A   1     -25.486  -5.024  29.257  0.00  0.00    -0.000 A 
ATOM     14  C   UNL A   1     -26.247  -3.881  29.701  0.00  0.00    -0.000 A 
ATOM     15  C   UNL A   1     -25.585  -2.918  29.985  0.00  0.00    -0.003 A 
ENDBRANCH   1  10
TORSDOF 2
ENDMDL
ENDMDL
