MODEL 4014
MODEL 1
REMARK VINA RESULT:    -6.317      0.000      0.000
REMARK INTER + INTRA:          -7.240
REMARK INTER:                  -7.055
REMARK INTRA:                  -0.185
REMARK UNBOUND:                -0.185
REMARK  Name = No_4014-gen_results/8p0m/2024-11-27-11-27-31/
REMARK  2 active torsions:
REMARK  status: ('A' for Active; 'I' for Inactive)
REMARK    1  A    between atoms: C_4  and  C_14
REMARK    2  A    between atoms: C_5  and  C_6
REMARK                            x       y       z     vdW  Elec       q    Type
REMARK                         _______ _______ _______ _____ _____    ______ ____
ROOT
ATOM      1  C   UNL A   1     -26.317  -4.444  29.688  0.00  0.00    -0.000 A 
ATOM      2  C   UNL A   1     -25.964  -3.296  29.832  0.00  0.00    -0.000 A 
ATOM      3  C   UNL A   1     -25.001  -2.673  29.216  0.00  0.00    -0.003 A 
ATOM      4  C   UNL A   1     -24.600  -1.258  29.417  0.00  0.00    -0.003 A 
ATOM      5  C   UNL A   1     -25.379  -0.506  30.342  0.00  0.00    +0.054 A 
ATOM      6  C   UNL A   1     -26.896  -2.316  30.558  0.00  0.00    +0.000 A 
ATOM      7  C   UNL A   1     -26.572  -0.996  30.858  0.00  0.00    +0.004 A 
ATOM      8  C   UNL A   1     -25.285  -5.269  29.158  0.00  0.00    -0.000 A 
ATOM      9  C   UNL A   1     -24.174  -4.789  28.603  0.00  0.00    -0.000 A 
ATOM     10  C   UNL A   1     -23.955  -3.445  28.604  0.00  0.00    -0.000 A 
ENDROOT
BRANCH   5  11
ATOM     11  C   UNL A   1     -25.078   0.865  30.536  0.00  0.00    +0.284 C 
ATOM     12  N   UNL A   1     -24.291   1.227  31.574  0.00  0.00    -0.084 NA
ATOM     13  O   UNL A   1     -25.633   1.876  29.910  0.00  0.00    -0.267 OA
ENDBRANCH   5  11
BRANCH   4  14
ATOM     14  C   UNL A   1     -23.423  -0.605  28.810  0.00  0.00    +0.102 C 
ATOM     15 CL   UNL A   1     -22.181  -0.476  29.291  0.00  0.00    -0.110 Cl
ATOM     16  C   UNL A   1     -23.844   0.084  27.542  0.00  0.00    +0.022 C 
ENDBRANCH   4  14
TORSDOF 2
ENDMDL
ENDMDL
