MODEL 4016
MODEL 1
REMARK VINA RESULT:    -7.097      0.000      0.000
REMARK INTER + INTRA:          -9.213
REMARK INTER:                  -8.341
REMARK INTRA:                  -0.872
REMARK UNBOUND:                -0.872
REMARK  Name = No_4016-gen_results/8p0m/2024-11-27-11-27-31/
REMARK  3 active torsions:
REMARK  status: ('A' for Active; 'I' for Inactive)
REMARK    1  A    between atoms: C_3  and  C_7
REMARK    2  A    between atoms: C_7  and  C_8
REMARK    3  A    between atoms: C_8  and  C_10
REMARK                            x       y       z     vdW  Elec       q    Type
REMARK                         _______ _______ _______ _____ _____    ______ ____
ROOT
ATOM      1  C   UNL A   1     -24.217  -0.335  29.641  0.00  0.00    +0.026 C 
ATOM      2  C   UNL A   1     -24.179  -0.310  31.069  0.00  0.00    +0.005 C 
ENDROOT
BRANCH   1   5
ATOM      3  C   UNL A   1     -23.386   1.312  28.044  0.00  0.00    -0.004 A 
ATOM      4  C   UNL A   1     -22.589   1.769  27.529  0.00  0.00    -0.000 A 
ATOM      5  C   UNL A   1     -23.092   0.193  28.854  0.00  0.00    -0.022 A 
ATOM      6  C   UNL A   1     -21.810  -0.308  28.971  0.00  0.00    -0.004 A 
ATOM      7  C   UNL A   1     -20.821   0.358  28.265  0.00  0.00    -0.000 A 
ATOM      8  C   UNL A   1     -21.150   1.468  27.516  0.00  0.00    -0.000 A 
ENDBRANCH   1   5
BRANCH   1   9
ATOM      9  C   UNL A   1     -25.225  -1.145  29.054  0.00  0.00    +0.026 C 
ATOM     10  C   UNL A   1     -26.197  -0.506  28.233  0.00  0.00    +0.005 C 
BRANCH   9  11
ATOM     11  C   UNL A   1     -25.157  -2.494  29.161  0.00  0.00    -0.022 A 
ATOM     12  C   UNL A   1     -24.091  -3.151  28.561  0.00  0.00    -0.004 A 
ATOM     13  C   UNL A   1     -24.026  -4.545  28.630  0.00  0.00    -0.000 A 
ATOM     14  C   UNL A   1     -25.063  -5.276  29.180  0.00  0.00    -0.000 A 
ATOM     15  C   UNL A   1     -26.172  -4.628  29.685  0.00  0.00    -0.000 A 
ATOM     16  C   UNL A   1     -26.255  -3.289  29.679  0.00  0.00    -0.004 A 
ENDBRANCH   9  11
ENDBRANCH   1   9
TORSDOF 3
ENDMDL
ENDMDL
