MODEL 4017
MODEL 1
REMARK VINA RESULT:    -7.687      0.000      0.000
REMARK INTER + INTRA:         -12.009
REMARK INTER:                 -10.383
REMARK INTRA:                  -1.625
REMARK UNBOUND:                -1.625
REMARK  Name = No_4017-gen_results/8p0m/2024-11-27-11-27-31/
REMARK  6 active torsions:
REMARK  status: ('A' for Active; 'I' for Inactive)
REMARK    1  A    between atoms: C_1  and  C_8
REMARK    2  A    between atoms: C_3  and  C_19
REMARK    3  A    between atoms: C_5  and  C_10
REMARK    4  A    between atoms: C_8  and  C_9
REMARK    5  A    between atoms: C_15  and  C_22
REMARK    6  A    between atoms: N_24  and  C_26
REMARK                            x       y       z     vdW  Elec       q    Type
REMARK                         _______ _______ _______ _____ _____    ______ ____
ROOT
ATOM      1  C   UNL A   1     -26.325   0.541  26.675  0.00  0.00    -0.021 A 
ATOM      2  C   UNL A   1     -24.975   0.656  26.577  0.00  0.00    +0.000 A 
ATOM      3  C   UNL A   1     -24.208   1.351  27.545  0.00  0.00    +0.053 A 
ATOM      4  C   UNL A   1     -24.862   1.923  28.617  0.00  0.00    +0.000 A 
ATOM      5  C   UNL A   1     -26.229   1.851  28.779  0.00  0.00    -0.024 A 
ATOM      6  C   UNL A   1     -26.997   1.195  27.782  0.00  0.00    -0.012 A 
ATOM      7  C   UNL A   1     -26.910   2.395  29.946  0.00  0.00    +0.045 C 
ATOM      8  C   UNL A   1     -28.188   3.083  29.637  0.00  0.00    +0.094 C 
ATOM      9  N   UNL A   1     -28.884   2.564  28.609  0.00  0.00    -0.213 NA
ATOM     10  C   UNL A   1     -28.231   1.882  27.486  0.00  0.00    +0.114 C 
ENDROOT
BRANCH   3  11
ATOM     11  C   UNL A   1     -22.767   1.384  27.448  0.00  0.00    +0.253 C 
ATOM     12  O   UNL A   1     -22.156   1.974  26.732  0.00  0.00    -0.270 OA
ATOM     13  N   UNL A   1     -22.101   0.401  28.253  0.00  0.00    -0.253 N 
ATOM     14  C   UNL A   1     -20.692   0.267  28.226  0.00  0.00    +0.120 C 
BRANCH  13  15
ATOM     15  C   UNL A   1     -22.792  -0.496  29.204  0.00  0.00    +0.054 A 
ATOM     16  C   UNL A   1     -23.419  -1.469  28.965  0.00  0.00    +0.015 A 
ATOM     17  C   UNL A   1     -24.188  -2.167  29.949  0.00  0.00    +0.001 A 
ATOM     18  C   UNL A   1     -24.217  -1.648  31.246  0.00  0.00    +0.000 A 
ATOM     19  C   UNL A   1     -22.913   0.062  30.565  0.00  0.00    +0.015 A 
ATOM     20  C   UNL A   1     -23.563  -0.590  31.559  0.00  0.00    +0.001 A 
ENDBRANCH  13  15
ENDBRANCH   3  11
BRANCH   1  21
ATOM     21  C   UNL A   1     -27.139  -0.038  25.681  0.00  0.00    +0.051 C 
BRANCH  21  22
ATOM     22  C   UNL A   1     -27.087   0.616  24.339  0.00  0.00    -0.029 C 
ATOM     23  C   UNL A   1     -28.147   1.074  23.981  0.00  0.00    -0.038 C 
ATOM     24  C   UNL A   1     -29.255   0.329  23.615  0.00  0.00    +0.122 C 
ATOM     25  C   UNL A   1     -30.503   0.847  23.107  0.00  0.00    +0.024 C 
ATOM     26  C   UNL A   1     -30.645   2.247  22.962  0.00  0.00    +0.096 C 
ATOM     27  C   UNL A   1     -29.546   3.070  23.323  0.00  0.00    +0.013 C 
ATOM     28  C   UNL A   1     -28.400   2.485  23.765  0.00  0.00    +0.022 C 
BRANCH  26  29
ATOM     29  C   UNL A   1     -31.886   2.840  22.484  0.00  0.00    +0.398 C 
ATOM     30  F   UNL A   1     -32.851   2.311  22.613  0.00  0.00    -0.170 F 
ATOM     31  F   UNL A   1     -31.763   3.067  21.048  0.00  0.00    -0.170 F 
ATOM     32  F   UNL A   1     -31.989   4.126  22.968  0.00  0.00    -0.170 F 
ENDBRANCH  26  29
BRANCH  24  33
ATOM     33  C   UNL A   1     -29.240  -1.119  23.888  0.00  0.00    +0.368 C 
ATOM     34  O   UNL A   1     -28.705  -1.895  23.210  0.00  0.00    -0.245 OA
ATOM     35  O   UNL A   1     -30.140  -1.453  24.867  0.00  0.00    -0.245 OA
ENDBRANCH  24  33
ENDBRANCH  21  22
ENDBRANCH   1  21
TORSDOF 6
ENDMDL
ENDMDL
