MODEL 4018
MODEL 1
REMARK VINA RESULT:    -5.146      0.000      0.000
REMARK INTER + INTRA:          -5.496
REMARK INTER:                  -5.447
REMARK INTRA:                  -0.049
REMARK UNBOUND:                -0.049
REMARK  Name = No_4018-gen_results/8p0m/2024-11-27-11-27-31/
REMARK  1 active torsions:
REMARK  status: ('A' for Active; 'I' for Inactive)
REMARK    1  A    between atoms: C_5  and  C_7
REMARK                            x       y       z     vdW  Elec       q    Type
REMARK                         _______ _______ _______ _____ _____    ______ ____
ROOT
ATOM      1  C   UNL A   1     -29.823  -9.906  31.602  0.00  0.00    +0.011 A 
ATOM      2  C   UNL A   1     -29.890 -10.408  30.505  0.00  0.00    +0.058 A 
ATOM      3  C   UNL A   1     -29.091 -11.445  30.053  0.00  0.00    +0.011 A 
ATOM      4  C   UNL A   1     -28.138 -11.976  30.970  0.00  0.00    +0.005 A 
ATOM      5  C   UNL A   1     -28.193 -11.495  32.229  0.00  0.00    +0.057 A 
ATOM      6  C   UNL A   1     -29.067 -10.550  32.583  0.00  0.00    +0.005 A 
ATOM      7 CL   UNL A   1     -30.973  -9.712  29.208  0.00  0.00    -0.082 Cl
ENDROOT
BRANCH   5   8
ATOM      8  C   UNL A   1     -27.230 -12.097  33.171  0.00  0.00    +0.284 C 
ATOM      9  N   UNL A   1     -27.506 -12.310  34.368  0.00  0.00    -0.084 NA
ATOM     10  O   UNL A   1     -26.433 -12.953  32.617  0.00  0.00    -0.267 OA
ENDBRANCH   5   8
TORSDOF 1
ENDMDL
ENDMDL
