MODEL 401
MODEL 1
REMARK VINA RESULT:    -5.989      0.000      0.000
REMARK INTER + INTRA:          -6.438
REMARK INTER:                  -6.339
REMARK INTRA:                  -0.099
REMARK UNBOUND:                -0.099
REMARK  Name = No_401-gen_results/8p0m/2024-11-27-11-27-31/
REMARK  1 active torsions:
REMARK  status: ('A' for Active; 'I' for Inactive)
REMARK    1  A    between atoms: C_10  and  C_11
REMARK                            x       y       z     vdW  Elec       q    Type
REMARK                         _______ _______ _______ _____ _____    ______ ____
ROOT
ATOM      1  C   UNL A   1     -26.098  -4.684  29.664  0.00  0.00    +0.000 A 
ATOM      2  C   UNL A   1     -25.343  -5.172  29.113  0.00  0.00    +0.000 A 
ATOM      3  C   UNL A   1     -25.840  -3.260  29.877  0.00  0.00    +0.000 A 
ATOM      4  C   UNL A   1     -26.799  -2.341  30.529  0.00  0.00    +0.000 A 
ATOM      5  C   UNL A   1     -24.085  -4.762  28.504  0.00  0.00    +0.000 A 
ATOM      6  C   UNL A   1     -23.800  -3.426  28.695  0.00  0.00    +0.000 A 
ATOM      7  C   UNL A   1     -24.685  -2.640  29.333  0.00  0.00    +0.006 A 
ATOM      8  C   UNL A   1     -26.279  -1.090  30.913  0.00  0.00    +0.000 A 
ATOM      9  C   UNL A   1     -25.172  -0.516  30.344  0.00  0.00    +0.007 A 
ATOM     10  C   UNL A   1     -24.283  -1.325  29.666  0.00  0.00    +0.080 A 
ENDROOT
BRANCH  10  11
ATOM     11  C   UNL A   1     -23.045  -0.663  29.166  0.00  0.00    +0.388 C 
ATOM     12  O   UNL A   1     -22.077  -0.624  29.896  0.00  0.00    -0.241 OA
ATOM     13  O   UNL A   1     -23.052  -0.040  28.072  0.00  0.00    -0.241 OA
ENDBRANCH  10  11
TORSDOF 1
ENDMDL
ENDMDL
