REMARK  Name = No_402-gen_results/8p0m/2024-11-27-11-27-31/
REMARK  2 active torsions:
REMARK  status: ('A' for Active; 'I' for Inactive)
REMARK    1  A    between atoms: C_3  and  C_7
REMARK    2  A    between atoms: C_7  and  C_9
REMARK                            x       y       z     vdW  Elec       q    Type
REMARK                         _______ _______ _______ _____ _____    ______ ____
ROOT
ATOM      1  C   UNL A   1     -26.411   0.307  27.219  0.00  0.00    +0.125 C 
ATOM      2 CL   UNL A   1     -27.150   0.435  25.967  0.00  0.00    -0.105 Cl
ENDROOT
BRANCH   1   5
ATOM      3  C   UNL A   1     -28.016  -0.814  28.878  0.00  0.00    -0.002 A 
ATOM      4  C   UNL A   1     -28.469  -0.785  29.829  0.00  0.00    -0.000 A 
ATOM      5  C   UNL A   1     -27.136   0.236  28.535  0.00  0.00    +0.007 A 
ATOM      6  C   UNL A   1     -26.875   1.282  29.398  0.00  0.00    +0.055 A 
ATOM      7  C   UNL A   1     -27.507   1.238  30.630  0.00  0.00    +0.011 A 
ATOM      8  C   UNL A   1     -28.327   0.164  30.924  0.00  0.00    +0.001 A 
ATOM      9 CL   UNL A   1     -25.866   2.601  29.112  0.00  0.00    -0.083 Cl
ENDBRANCH   1   5
BRANCH   1  10
ATOM     10  C   UNL A   1     -24.957   0.145  27.256  0.00  0.00    -0.003 A 
ATOM     11  C   UNL A   1     -24.311  -0.509  28.264  0.00  0.00    -0.002 A 
ATOM     12  C   UNL A   1     -22.946  -0.159  28.598  0.00  0.00    +0.011 A 
ATOM     13  C   UNL A   1     -22.337   0.866  27.837  0.00  0.00    +0.058 A 
ATOM     14  C   UNL A   1     -23.088   1.629  26.915  0.00  0.00    +0.011 A 
ATOM     15  C   UNL A   1     -24.394   1.375  26.733  0.00  0.00    -0.002 A 
ATOM     16 CL   UNL A   1     -20.722   1.275  28.159  0.00  0.00    -0.082 Cl
ENDBRANCH   1  10
TORSDOF 2
