REMARK  Name = No_4020-gen_results/8p0m/2024-11-27-11-27-31/
REMARK  7 active torsions:
REMARK  status: ('A' for Active; 'I' for Inactive)
REMARK    1  A    between atoms: C_3  and  C_9
REMARK    2  A    between atoms: C_10  and  C_15
REMARK    3  A    between atoms: C_15  and  O_17
REMARK    4  A    between atoms: O_17  and  C_18
REMARK    5  A    between atoms: C_22  and  O_25
REMARK    6  A    between atoms: O_25  and  C_26
REMARK    7  A    between atoms: C_26  and  C_27
REMARK                            x       y       z     vdW  Elec       q    Type
REMARK                         _______ _______ _______ _____ _____    ______ ____
ROOT
ATOM      1  C   UNL A   1     -24.474   1.779  30.526  0.00  0.00    +0.343 C 
ATOM      2  O   UNL A   1     -24.670   2.551  31.390  0.00  0.00    -0.245 OA
ENDROOT
BRANCH   1   4
ATOM      3  C   UNL A   1     -25.859   2.081  28.419  0.00  0.00    +0.008 A 
ATOM      4  C   UNL A   1     -24.659   2.058  29.095  0.00  0.00    +0.076 A 
ATOM      5  C   UNL A   1     -23.411   2.203  28.288  0.00  0.00    +0.006 A 
ATOM      6  C   UNL A   1     -23.519   2.544  26.937  0.00  0.00    +0.000 A 
ATOM      7  C   UNL A   1     -24.810   2.588  26.351  0.00  0.00    +0.000 A 
ATOM      8  C   UNL A   1     -25.940   2.328  27.028  0.00  0.00    +0.000 A 
BRANCH   3  11
ATOM      9  C   UNL A   1     -28.016  -0.814  28.878  0.00  0.00    +0.030 A 
ATOM     10  C   UNL A   1     -27.064  -0.119  28.608  0.00  0.00    +0.140 A 
ATOM     11  C   UNL A   1     -26.929   1.171  29.008  0.00  0.00    +0.029 A 
ATOM     12  C   UNL A   1     -27.956   1.741  29.784  0.00  0.00    +0.014 A 
ATOM     13  C   UNL A   1     -28.772  -0.454  29.870  0.00  0.00    +0.014 A 
ATOM     14  C   UNL A   1     -28.864   0.873  30.292  0.00  0.00    +0.058 A 
ATOM     15  F   UNL A   1     -26.084  -0.521  27.721  0.00  0.00    -0.204 F 
ATOM     16 CL   UNL A   1     -30.032   1.381  31.430  0.00  0.00    -0.082 Cl
ENDBRANCH   3  11
ENDBRANCH   1   4
BRANCH   1  17
ATOM     17  O   UNL A   1     -24.090   0.508  30.794  0.00  0.00    -0.418 OA
BRANCH  17  18
ATOM     18  C   UNL A   1     -24.808  -0.386  31.289  0.00  0.00    +0.323 C 
ATOM     19  C   UNL A   1     -24.077  -1.205  32.201  0.00  0.00    +0.219 C 
ATOM     20  O   UNL A   1     -24.411  -1.091  33.361  0.00  0.00    -0.341 OA
ATOM     21  C   UNL A   1     -25.164   0.005  33.763  0.00  0.00    +0.216 C 
ATOM     22  C   UNL A   1     -26.273   0.011  32.815  0.00  0.00    +0.291 C 
ATOM     23 CL   UNL A   1     -27.647   0.861  33.460  0.00  0.00    -0.053 Cl
ATOM     24  O   UNL A   1     -26.256  -0.365  31.580  0.00  0.00    -0.283 OA
BRANCH  22  25
ATOM     25  O   UNL A   1     -27.019  -0.972  33.233  0.00  0.00    -0.316 OA
BRANCH  25  26
ATOM     26  C   UNL A   1     -28.115  -1.579  33.256  0.00  0.00    +0.172 C 
BRANCH  26  27
ATOM     27  C   UNL A   1     -28.577  -2.312  32.206  0.00  0.00    +0.007 A 
ATOM     28  C   UNL A   1     -29.374  -3.392  32.685  0.00  0.00    -0.002 A 
ATOM     29  C   UNL A   1     -29.763  -4.368  31.713  0.00  0.00    -0.000 A 
ATOM     30  C   UNL A   1     -29.333  -4.187  30.404  0.00  0.00    -0.000 A 
ATOM     31  C   UNL A   1     -28.147  -3.539  30.176  0.00  0.00    -0.000 A 
ATOM     32  C   UNL A   1     -27.807  -2.507  31.123  0.00  0.00    -0.002 A 
ENDBRANCH  26  27
ENDBRANCH  25  26
ENDBRANCH  22  25
ENDBRANCH  17  18
ENDBRANCH   1  17
TORSDOF 7
