MODEL 4020
MODEL 1
REMARK VINA RESULT:    -7.311      0.000      0.000
REMARK INTER + INTRA:         -12.245
REMARK INTER:                 -10.303
REMARK INTRA:                  -1.942
REMARK UNBOUND:                -1.942
REMARK  Name = No_4020-gen_results/8p0m/2024-11-27-11-27-31/
REMARK  7 active torsions:
REMARK  status: ('A' for Active; 'I' for Inactive)
REMARK    1  A    between atoms: C_3  and  C_9
REMARK    2  A    between atoms: C_10  and  C_15
REMARK    3  A    between atoms: C_15  and  O_17
REMARK    4  A    between atoms: O_17  and  C_18
REMARK    5  A    between atoms: C_22  and  O_25
REMARK    6  A    between atoms: O_25  and  C_26
REMARK    7  A    between atoms: C_26  and  C_27
REMARK                            x       y       z     vdW  Elec       q    Type
REMARK                         _______ _______ _______ _____ _____    ______ ____
ROOT
ATOM      1  C   UNL A   1     -23.153  -1.081  28.902  0.00  0.00    +0.343 C 
ATOM      2  O   UNL A   1     -22.136  -1.006  29.486  0.00  0.00    -0.245 OA
ENDROOT
BRANCH   1   4
ATOM      3  C   UNL A   1     -25.424  -1.799  29.783  0.00  0.00    +0.008 A 
ATOM      4  C   UNL A   1     -24.211  -2.061  29.185  0.00  0.00    +0.076 A 
ATOM      5  C   UNL A   1     -23.874  -3.489  28.909  0.00  0.00    +0.006 A 
ATOM      6  C   UNL A   1     -24.863  -4.461  29.086  0.00  0.00    +0.000 A 
ATOM      7  C   UNL A   1     -26.097  -4.072  29.666  0.00  0.00    +0.000 A 
ATOM      8  C   UNL A   1     -26.373  -2.815  30.047  0.00  0.00    +0.000 A 
BRANCH   3  11
ATOM      9  C   UNL A   1     -24.894   0.122  32.828  0.00  0.00    +0.030 A 
ATOM     10  C   UNL A   1     -24.763  -0.690  31.942  0.00  0.00    +0.140 A 
ATOM     11  C   UNL A   1     -25.407  -0.622  30.749  0.00  0.00    +0.029 A 
ATOM     12  C   UNL A   1     -26.282   0.457  30.523  0.00  0.00    +0.014 A 
ATOM     13  C   UNL A   1     -25.382   1.285  32.522  0.00  0.00    +0.014 A 
ATOM     14  C   UNL A   1     -26.202   1.479  31.410  0.00  0.00    +0.058 A 
ATOM     15  F   UNL A   1     -24.062  -1.868  32.117  0.00  0.00    -0.204 F 
ATOM     16 CL   UNL A   1     -27.034   2.947  31.144  0.00  0.00    -0.082 Cl
ENDBRANCH   3  11
ENDBRANCH   1   4
BRANCH   1  17
ATOM     17  O   UNL A   1     -23.422  -0.268  27.853  0.00  0.00    -0.418 OA
BRANCH  17  18
ATOM     18  C   UNL A   1     -23.488   0.978  27.889  0.00  0.00    +0.323 C 
ATOM     19  C   UNL A   1     -22.296   1.584  27.387  0.00  0.00    +0.219 C 
ATOM     20  O   UNL A   1     -22.435   2.178  26.339  0.00  0.00    -0.341 OA
ATOM     21  C   UNL A   1     -23.557   1.949  25.553  0.00  0.00    +0.216 C 
ATOM     22  C   UNL A   1     -24.660   2.122  26.493  0.00  0.00    +0.291 C 
ATOM     23 CL   UNL A   1     -26.139   2.507  25.662  0.00  0.00    -0.053 Cl
ATOM     24  O   UNL A   1     -24.669   1.855  27.756  0.00  0.00    -0.283 OA
BRANCH  22  25
ATOM     25  O   UNL A   1     -24.717   3.416  26.640  0.00  0.00    -0.316 OA
BRANCH  25  26
ATOM     26  C   UNL A   1     -25.377   4.477  26.729  0.00  0.00    +0.172 C 
BRANCH  26  27
ATOM     27  C   UNL A   1     -24.892   5.601  27.325  0.00  0.00    +0.007 A 
ATOM     28  C   UNL A   1     -25.598   5.848  28.538  0.00  0.00    -0.002 A 
ATOM     29  C   UNL A   1     -25.340   7.104  29.174  0.00  0.00    -0.000 A 
ATOM     30  C   UNL A   1     -24.440   7.968  28.562  0.00  0.00    -0.000 A 
ATOM     31  C   UNL A   1     -24.310   7.937  27.198  0.00  0.00    -0.000 A 
ATOM     32  C   UNL A   1     -24.499   6.648  26.581  0.00  0.00    -0.002 A 
ENDBRANCH  26  27
ENDBRANCH  25  26
ENDBRANCH  22  25
ENDBRANCH  17  18
ENDBRANCH   1  17
TORSDOF 7
ENDMDL
ENDMDL
