MODEL 4023
MODEL 1
REMARK VINA RESULT:    -6.905      0.000      0.000
REMARK INTER + INTRA:          -8.551
REMARK INTER:                  -8.116
REMARK INTRA:                  -0.435
REMARK UNBOUND:                -0.435
REMARK  Name = No_4023-gen_results/8p0m/2024-11-27-11-27-31/
REMARK  3 active torsions:
REMARK  status: ('A' for Active; 'I' for Inactive)
REMARK    1  A    between atoms: C_2  and  O_8
REMARK    2  A    between atoms: O_8  and  C_9
REMARK    3  A    between atoms: C_13  and  C_15
REMARK                            x       y       z     vdW  Elec       q    Type
REMARK                         _______ _______ _______ _____ _____    ______ ____
ROOT
ATOM      1  C   UNL A   1     -24.517  -2.404  29.549  0.00  0.00    +0.145 A 
ATOM      2  C   UNL A   1     -23.709  -3.123  28.952  0.00  0.00    +0.037 A 
ATOM      3  C   UNL A   1     -24.063  -4.493  28.599  0.00  0.00    +0.003 A 
ATOM      4  C   UNL A   1     -25.333  -4.967  29.019  0.00  0.00    +0.000 A 
ATOM      5  C   UNL A   1     -26.157  -4.104  29.688  0.00  0.00    +0.003 A 
ATOM      6  C   UNL A   1     -25.827  -2.838  29.952  0.00  0.00    +0.037 A 
ENDROOT
BRANCH   5   7
ATOM      7  C   UNL A   1     -27.506  -4.596  30.117  0.00  0.00    -0.004 C 
ATOM      8  C   UNL A   1     -28.321  -4.103  30.774  0.00  0.00    -0.026 C 
ATOM      9  C   UNL A   1     -29.577  -4.692  31.141  0.00  0.00    +0.031 C 
ENDBRANCH   5   7
BRANCH   1  10
ATOM     10  O   UNL A   1     -24.156  -1.145  29.793  0.00  0.00    -0.454 OA
BRANCH  10  12
ATOM     11  C   UNL A   1     -22.893   0.316  28.834  0.00  0.00    +0.038 A 
ATOM     12  C   UNL A   1     -23.770  -0.247  28.674  0.00  0.00    +0.145 A 
ATOM     13  C   UNL A   1     -22.494   1.232  27.699  0.00  0.00    +0.015 A 
ATOM     14  C   UNL A   1     -23.361   1.386  26.597  0.00  0.00    +0.058 A 
ATOM     15  C   UNL A   1     -24.848  -0.251  27.660  0.00  0.00    +0.038 A 
ATOM     16  C   UNL A   1     -24.519   0.586  26.602  0.00  0.00    +0.015 A 
ATOM     17 CL   UNL A   1     -22.973   2.347  25.316  0.00  0.00    -0.082 Cl
ENDBRANCH  10  12
ENDBRANCH   1  10
TORSDOF 3
ENDMDL
ENDMDL
