MODEL 4024
MODEL 1
REMARK VINA RESULT:    -6.936      0.000      0.000
REMARK INTER + INTRA:          -9.442
REMARK INTER:                  -8.557
REMARK INTRA:                  -0.885
REMARK UNBOUND:                -0.885
REMARK  Name = No_4024-gen_results/8p0m/2024-11-27-11-27-31/
REMARK  4 active torsions:
REMARK  status: ('A' for Active; 'I' for Inactive)
REMARK    1  A    between atoms: C_2  and  C_7
REMARK    2  A    between atoms: C_4  and  C_10
REMARK    3  A    between atoms: C_11  and  C_21
REMARK    4  A    between atoms: C_15  and  N_16
REMARK                            x       y       z     vdW  Elec       q    Type
REMARK                         _______ _______ _______ _____ _____    ______ ____
ROOT
ATOM      1  C   UNL A   1     -23.949   0.412  27.935  0.00  0.00    +0.022 A 
ATOM      2  C   UNL A   1     -22.956   1.376  27.509  0.00  0.00    +0.081 A 
ATOM      3  C   UNL A   1     -21.576   1.114  27.767  0.00  0.00    +0.007 A 
ATOM      4  C   UNL A   1     -21.279   0.092  28.699  0.00  0.00    +0.002 A 
ATOM      5  C   UNL A   1     -22.273  -0.861  28.964  0.00  0.00    +0.018 A 
ATOM      6  C   UNL A   1     -23.581  -0.733  28.613  0.00  0.00    +0.064 A 
ENDROOT
BRANCH   1  10
ATOM      7  C   UNL A   1     -26.185  -0.350  24.898  0.00  0.00    +0.007 A 
ATOM      8  C   UNL A   1     -27.070   0.084  25.271  0.00  0.00    +0.080 A 
ATOM      9  C   UNL A   1     -24.991  -0.246  25.752  0.00  0.00    +0.000 A 
ATOM     10  C   UNL A   1     -25.086   0.290  27.069  0.00  0.00    +0.002 A 
ATOM     11  C   UNL A   1     -27.444   0.638  26.601  0.00  0.00    +0.007 A 
ATOM     12  C   UNL A   1     -26.360   0.758  27.418  0.00  0.00    +0.000 A 
BRANCH   8  13
ATOM     13  C   UNL A   1     -28.391  -0.024  24.384  0.00  0.00    +0.388 C 
ATOM     14  O   UNL A   1     -29.365  -0.712  24.831  0.00  0.00    -0.241 OA
ATOM     15  O   UNL A   1     -28.407   0.671  23.337  0.00  0.00    -0.241 OA
ENDBRANCH   8  13
ENDBRANCH   1  10
BRANCH   6  16
ATOM     16  N   UNL A   1     -24.472  -1.641  28.961  0.00  0.00    -0.304 N 
ATOM     17  C   UNL A   1     -24.611  -2.895  28.443  0.00  0.00    +0.080 A 
ATOM     18  C   UNL A   1     -25.500  -3.684  29.283  0.00  0.00    +0.021 A 
ATOM     19  C   UNL A   1     -26.060  -2.618  30.191  0.00  0.00    +0.021 A 
ATOM     20  C   UNL A   1     -25.474  -1.435  29.929  0.00  0.00    +0.080 A 
ENDBRANCH   6  16
BRANCH   2  21
ATOM     21  C   UNL A   1     -23.296   2.596  26.667  0.00  0.00    +0.388 C 
ATOM     22  O   UNL A   1     -22.964   2.699  25.465  0.00  0.00    -0.241 OA
ATOM     23  O   UNL A   1     -23.899   3.605  27.340  0.00  0.00    -0.241 OA
ENDBRANCH   2  21
TORSDOF 4
ENDMDL
ENDMDL
