MODEL 4025
MODEL 1
REMARK VINA RESULT:    -6.540      0.000      0.000
REMARK INTER + INTRA:         -10.198
REMARK INTER:                  -9.216
REMARK INTRA:                  -0.982
REMARK UNBOUND:                -0.982
REMARK  Name = No_4025-gen_results/8p0m/2024-11-27-11-27-31/
REMARK  7 active torsions:
REMARK  status: ('A' for Active; 'I' for Inactive)
REMARK    1  A    between atoms: C_6  and  O_7
REMARK    2  A    between atoms: O_7  and  C_16
REMARK    3  A    between atoms: C_16  and  C_17
REMARK    4  A    between atoms: C_16  and  O_21
REMARK    5  A    between atoms: C_17  and  C_18
REMARK    6  A    between atoms: O_21  and  C_22
REMARK    7  A    between atoms: C_22  and  C_23
REMARK                            x       y       z     vdW  Elec       q    Type
REMARK                         _______ _______ _______ _____ _____    ______ ____
ROOT
ATOM      1  C   UNL A   1      -9.115   0.792  37.529  0.00  0.00    +0.033 A 
ATOM      2  C   UNL A   1      -8.974   0.361  38.650  0.00  0.00    -0.019 A 
ATOM      3  C   UNL A   1      -9.802  -0.642  39.143  0.00  0.00    -0.008 A 
ATOM      4  C   UNL A   1     -10.883  -1.166  38.349  0.00  0.00    -0.019 A 
ATOM      5  C   UNL A   1     -10.989  -0.595  37.075  0.00  0.00    +0.033 A 
ATOM      6  C   UNL A   1     -10.191   0.363  36.662  0.00  0.00    +0.141 A 
ATOM      7  C   UNL A   1      -9.719  -1.267  40.514  0.00  0.00    -0.005 A 
ATOM      8  C   UNL A   1      -8.623  -1.142  41.241  0.00  0.00    -0.000 A 
ATOM      9  C   UNL A   1      -8.523  -1.805  42.519  0.00  0.00    -0.000 A 
ATOM     10  C   UNL A   1      -9.522  -2.685  42.971  0.00  0.00    -0.000 A 
ATOM     11  C   UNL A   1     -10.723  -2.183  40.959  0.00  0.00    -0.022 A 
ATOM     12  C   UNL A   1     -11.896  -2.389  40.209  0.00  0.00    +0.031 C 
ATOM     13  C   UNL A   1     -10.570  -2.865  42.302  0.00  0.00    -0.004 A 
ATOM     14  C   UNL A   1     -11.939  -1.990  38.839  0.00  0.00    +0.031 C 
ATOM     15  C   UNL A   1      -7.854   0.836  39.568  0.00  0.00    +0.031 C 
ENDROOT
BRANCH   6  16
ATOM     16  O   UNL A   1     -10.386   0.891  35.423  0.00  0.00    -0.451 OA
BRANCH  16  17
ATOM     17  C   UNL A   1     -11.515   1.547  35.105  0.00  0.00    +0.322 C 
BRANCH  17  18
ATOM     18  C   UNL A   1     -11.650   1.661  33.758  0.00  0.00    +0.254 C 
ATOM     19  O   UNL A   1     -10.412   1.101  33.067  0.00  0.00    -0.213 OA
BRANCH  18  20
ATOM     20  C   UNL A   1     -12.741   1.230  33.116  0.00  0.00    +0.221 C 
ATOM     21  O   UNL A   1     -13.673   2.077  32.825  0.00  0.00    -0.217 OA
ENDBRANCH  18  20
ENDBRANCH  17  18
BRANCH  17  22
ATOM     22  O   UNL A   1     -11.493   2.816  35.806  0.00  0.00    -0.306 OA
BRANCH  22  23
ATOM     23  C   UNL A   1     -12.700   3.494  36.115  0.00  0.00    +0.259 C 
BRANCH  23  24
ATOM     24  C   UNL A   1     -13.577   2.682  36.741  0.00  0.00    +0.395 C 
ATOM     25  O   UNL A   1     -14.644   2.701  36.386  0.00  0.00    -0.243 OA
ATOM     26  O   UNL A   1     -13.237   2.264  37.910  0.00  0.00    -0.243 OA
ENDBRANCH  23  24
ENDBRANCH  22  23
ENDBRANCH  17  22
ENDBRANCH  16  17
ENDBRANCH   6  16
TORSDOF 7
ENDMDL
ENDMDL
