REMARK  Name = outputs/IAG933/test6/raw/output_4025_IAG933_linker_design_.xyz
REMARK  13 active torsions:
REMARK  status: ('A' for Active; 'I' for Inactive)
REMARK    1  A    between atoms: C_1  and  C_2
REMARK    2  A    between atoms: C_1  and  C_8
REMARK    3  A    between atoms: C_9  and  O_29
REMARK    4  A    between atoms: C_13  and  C_41
REMARK    5  A    between atoms: C_14  and  C_15
REMARK    6  A    between atoms: C_21  and  O_22
REMARK    7  A    between atoms: O_22  and  C_23
REMARK    8  A    between atoms: C_23  and  C_24
REMARK    9  A    between atoms: O_29  and  C_33
REMARK   10  A    between atoms: O_30  and  C_40
REMARK   11  A    between atoms: O_30  and  C_45
REMARK   12  A    between atoms: C_31  and  C_33
REMARK   13  A    between atoms: C_33  and  C_40
REMARK                            x       y       z     vdW  Elec       q    Type
REMARK                         _______ _______ _______ _____ _____    ______ ____
ROOT
ATOM      1  O   UNL A   1     -23.920   1.653  30.271  0.00  0.00    -0.473 OA
ENDROOT
BRANCH   1   8
ATOM      2  C   UNL A   1     -21.980   1.816  26.100  0.00  0.00    -0.022 C 
ATOM      3  C   UNL A   1     -21.404   1.574  27.342  0.00  0.00    +0.055 C 
ATOM      4  C   UNL A   1     -24.068   1.501  28.032  0.00  0.00    +0.033 C 
ATOM      5  C   UNL A   1     -24.356   1.607  26.814  0.00  0.00    -0.012 C 
ATOM      6  C   UNL A   1     -21.931   1.366  28.610  0.00  0.00    +0.015 C 
ATOM      7  C   UNL A   1     -23.363   1.773  25.810  0.00  0.00    -0.008 C 
ATOM      8  C   UNL A   1     -23.298   1.546  29.024  0.00  0.00    +0.135 C 
BRANCH   5   9
ATOM      9  C   UNL A   1     -25.688   1.614  26.461  0.00  0.00    +0.092 C 
ATOM     10  C   UNL A   1     -26.250   2.920  26.395  0.00  0.00    +0.059 C 
ATOM     11  C   UNL A   1     -27.438   3.091  25.645  0.00  0.00    +0.102 C 
ATOM     12  N   UNL A   1     -28.075   2.089  25.003  0.00  0.00    -0.212 NA
ATOM     13  C   UNL A   1     -27.543   0.849  25.079  0.00  0.00    +0.234 C 
ATOM     14  C   UNL A   1     -26.354   0.576  25.777  0.00  0.00    +0.244 C 
ATOM     15  F   UNL A   1     -25.860  -0.681  25.795  0.00  0.00    -0.227 F 
BRANCH  10  16
ATOM     16  C   UNL A   1     -25.642   4.093  27.123  0.00  0.00    +0.263 C 
ATOM     17  N   UNL A   1     -25.614   5.252  26.449  0.00  0.00    -0.200 NA
ATOM     18  C   UNL A   1     -25.026   6.479  26.963  0.00  0.00    +0.139 C 
ATOM     19  O   UNL A   1     -25.143   3.966  28.243  0.00  0.00    -0.269 OA
ENDBRANCH  10  16
BRANCH  13  20
ATOM     20  O   UNL A   1     -28.193  -0.208  24.477  0.00  0.00    -0.459 OA
BRANCH  20  21
ATOM     21  C   UNL A   1     -29.460   0.005  23.866  0.00  0.00    +0.242 C 
BRANCH  21  22
ATOM     22  C   UNL A   1     -30.065  -1.377  23.573  0.00  0.00    +0.229 C 
ATOM     23  O   UNL A   1     -30.729  -1.878  24.721  0.00  0.00    -0.216 OA
ENDBRANCH  21  22
ENDBRANCH  20  21
ENDBRANCH  13  20
ENDBRANCH   5   9
ENDBRANCH   1   8
BRANCH   1  24
ATOM     24  C   UNL A   1     -23.900   2.869  31.134  0.00  0.00    +0.239 C 
BRANCH  24  25
ATOM     25  C   UNL A   1     -25.284   3.370  31.736  0.00  0.00    +0.183 C 
BRANCH  25  27
ATOM     26  F   UNL A   1     -27.297   5.874  35.487  0.00  0.00    -0.204 F 
ATOM     27  C   UNL A   1     -25.228   4.690  32.725  0.00  0.00    +0.038 C 
ATOM     28  C   UNL A   1     -24.003   5.480  33.043  0.00  0.00    +0.139 C 
ATOM     29  F   UNL A   1     -22.899   5.261  32.253  0.00  0.00    -0.204 F 
ATOM     30  C   UNL A   1     -26.285   5.817  34.622  0.00  0.00    +0.140 C 
ATOM     31  C   UNL A   1     -23.969   6.329  34.151  0.00  0.00    +0.032 C 
ATOM     32  C   UNL A   1     -26.383   5.043  33.451  0.00  0.00    +0.030 C 
ATOM     33  C   UNL A   1     -25.108   6.471  34.968  0.00  0.00    +0.032 C 
ENDBRANCH  25  27
BRANCH  25  34
ATOM     34  O   UNL A   1     -25.912   1.993  31.657  0.00  0.00    -0.349 OA
BRANCH  34  36
ATOM     35  C   UNL A   1     -25.387  -0.679  31.571  0.00  0.00    +0.104 C 
ATOM     36  C   UNL A   1     -25.189   0.773  32.028  0.00  0.00    +0.133 C 
ATOM     37  C   UNL A   1     -25.336   0.684  33.544  0.00  0.00    +0.050 C 
ATOM     38  C   UNL A   1     -24.829  -0.715  33.905  0.00  0.00    +0.091 C 
ATOM     39  N   UNL A   1     -24.758  -1.481  32.646  0.00  0.00    -0.217 NA
BRANCH  35  40
ATOM     40  C   UNL A   1     -24.855  -1.012  30.143  0.00  0.00    +0.046 C 
BRANCH  40  41
ATOM     41  C   UNL A   1     -24.973  -2.505  29.788  0.00  0.00    -0.021 C 
ATOM     42  C   UNL A   1     -23.906  -3.173  29.146  0.00  0.00    -0.004 C 
ATOM     43  C   UNL A   1     -23.989  -4.549  28.853  0.00  0.00    -0.000 C 
ATOM     44  C   UNL A   1     -25.137  -5.280  29.205  0.00  0.00    -0.000 C 
ATOM     45  C   UNL A   1     -26.232  -4.611  29.784  0.00  0.00    -0.000 C 
ATOM     46  C   UNL A   1     -26.155  -3.232  30.065  0.00  0.00    -0.004 C 
ENDBRANCH  40  41
ENDBRANCH  35  40
ENDBRANCH  34  36
ENDBRANCH  25  34
ENDBRANCH  24  25
ENDBRANCH   1  24
TORSDOF 13
