REMARK  Name = No_4026-gen_results/8p0m/2024-11-27-11-27-31/
REMARK  3 active torsions:
REMARK  status: ('A' for Active; 'I' for Inactive)
REMARK    1  A    between atoms: C_4  and  C_6
REMARK    2  A    between atoms: C_6  and  C_8
REMARK    3  A    between atoms: C_13  and  C_16
REMARK                            x       y       z     vdW  Elec       q    Type
REMARK                         _______ _______ _______ _____ _____    ______ ____
ROOT
ATOM      1  C   UNL A   1     -23.634  -0.892  29.046  0.00  0.00    -0.018 A 
ATOM      2  C   UNL A   1     -22.174  -0.786  29.151  0.00  0.00    -0.004 A 
ATOM      3  C   UNL A   1     -21.609   0.408  28.950  0.00  0.00    -0.005 A 
ATOM      4  C   UNL A   1     -22.081   1.378  28.001  0.00  0.00    -0.022 A 
ATOM      5  C   UNL A   1     -21.507   2.523  27.706  0.00  0.00    +0.031 C 
ATOM      6  C   UNL A   1     -23.481   1.179  27.603  0.00  0.00    -0.004 A 
ATOM      7  C   UNL A   1     -24.182   0.619  28.675  0.00  0.00    -0.004 A 
ENDROOT
BRANCH   6   8
ATOM      8  C   UNL A   1     -24.053   1.581  26.464  0.00  0.00    -0.000 C 
ATOM      9  C   UNL A   1     -25.209   1.281  26.043  0.00  0.00    -0.000 C 
ENDBRANCH   6   8
BRANCH   1  10
ATOM     10  C   UNL A   1     -24.401  -1.097  30.096  0.00  0.00    +0.053 C 
BRANCH  10  14
ATOM     11  C   UNL A   1     -28.016  -0.814  28.878  0.00  0.00    +0.029 A 
ATOM     12  C   UNL A   1     -28.469  -0.785  29.829  0.00  0.00    +0.140 A 
ATOM     13  C   UNL A   1     -26.546  -0.876  28.850  0.00  0.00    -0.002 A 
ATOM     14  C   UNL A   1     -25.804  -1.032  30.057  0.00  0.00    -0.018 A 
ATOM     15  C   UNL A   1     -27.944  -0.987  31.207  0.00  0.00    +0.029 A 
ATOM     16  C   UNL A   1     -26.561  -1.075  31.227  0.00  0.00    -0.002 A 
ATOM     17  F   UNL A   1     -29.925  -0.712  29.883  0.00  0.00    -0.204 F 
ENDBRANCH  10  14
ENDBRANCH   1  10
TORSDOF 3
