MODEL 4026
MODEL 1
REMARK VINA RESULT:    -7.214      0.000      0.000
REMARK INTER + INTRA:          -9.201
REMARK INTER:                  -8.479
REMARK INTRA:                  -0.722
REMARK UNBOUND:                -0.722
REMARK  Name = No_4026-gen_results/8p0m/2024-11-27-11-27-31/
REMARK  3 active torsions:
REMARK  status: ('A' for Active; 'I' for Inactive)
REMARK    1  A    between atoms: C_4  and  C_6
REMARK    2  A    between atoms: C_6  and  C_8
REMARK    3  A    between atoms: C_13  and  C_16
REMARK                            x       y       z     vdW  Elec       q    Type
REMARK                         _______ _______ _______ _____ _____    ______ ____
ROOT
ATOM      1  C   UNL A   1     -23.107  -0.125  28.069  0.00  0.00    -0.018 A 
ATOM      2  C   UNL A   1     -22.190   1.019  27.998  0.00  0.00    -0.004 A 
ATOM      3  C   UNL A   1     -22.625   2.145  27.425  0.00  0.00    -0.005 A 
ATOM      4  C   UNL A   1     -23.517   2.189  26.299  0.00  0.00    -0.022 A 
ATOM      5  C   UNL A   1     -23.898   3.265  25.648  0.00  0.00    +0.031 C 
ATOM      6  C   UNL A   1     -24.287   0.952  26.109  0.00  0.00    -0.004 A 
ATOM      7  C   UNL A   1     -24.512   0.363  27.357  0.00  0.00    -0.004 A 
ENDROOT
BRANCH   6   8
ATOM      8  C   UNL A   1     -24.817   0.508  24.966  0.00  0.00    -0.000 C 
ATOM      9  C   UNL A   1     -25.723  -0.367  24.834  0.00  0.00    -0.000 C 
ENDBRANCH   6   8
BRANCH   1  10
ATOM     10  C   UNL A   1     -23.628  -0.538  29.206  0.00  0.00    +0.053 C 
BRANCH  10  14
ATOM     11  C   UNL A   1     -26.418  -3.024  30.022  0.00  0.00    +0.029 A 
ATOM     12  C   UNL A   1     -25.899  -3.896  29.737  0.00  0.00    +0.140 A 
ATOM     13  C   UNL A   1     -25.680  -1.755  29.920  0.00  0.00    -0.002 A 
ATOM     14  C   UNL A   1     -24.382  -1.716  29.331  0.00  0.00    -0.018 A 
ATOM     15  C   UNL A   1     -24.596  -4.121  29.053  0.00  0.00    +0.029 A 
ATOM     16  C   UNL A   1     -23.874  -2.946  28.914  0.00  0.00    -0.002 A 
ATOM     17  F   UNL A   1     -26.606  -5.168  29.839  0.00  0.00    -0.204 F 
ENDBRANCH  10  14
ENDBRANCH   1  10
TORSDOF 3
ENDMDL
ENDMDL
