MODEL 4027
MODEL 1
REMARK VINA RESULT:    -7.039      0.000      0.000
REMARK INTER + INTRA:          -8.161
REMARK INTER:                  -8.685
REMARK INTRA:                   0.524
REMARK UNBOUND:                 0.524
REMARK  Name = No_4027-gen_results/8p0m/2024-11-27-11-27-31/
REMARK  4 active torsions:
REMARK  status: ('A' for Active; 'I' for Inactive)
REMARK    1  A    between atoms: C_4  and  C_8
REMARK    2  A    between atoms: C_8  and  O_10
REMARK    3  A    between atoms: C_12  and  C_16
REMARK    4  A    between atoms: C_12  and  C_20
REMARK                            x       y       z     vdW  Elec       q    Type
REMARK                         _______ _______ _______ _____ _____    ______ ____
ROOT
ATOM      1  N   UNL A   1     -20.759   0.772  28.191  0.00  0.00    -0.172 NA
ATOM      2  C   UNL A   1     -21.346  -0.103  28.502  0.00  0.00    +0.300 C 
ATOM      3  C   UNL A   1     -21.442   1.792  27.482  0.00  0.00    +0.105 C 
ATOM      4  C   UNL A   1     -22.852   1.630  27.350  0.00  0.00    +0.131 C 
ATOM      5  N   UNL A   1     -22.672  -0.474  28.503  0.00  0.00    -0.233 NA
ATOM      6  C   UNL A   1     -23.473   0.468  27.824  0.00  0.00    +0.073 C 
ATOM      7  F   UNL A   1     -20.577  -1.039  29.233  0.00  0.00    -0.199 F 
ATOM      8  C   UNL A   1     -23.268  -1.668  29.053  0.00  0.00    +0.084 C 
ATOM      9  C   UNL A   1     -24.612  -1.732  29.064  0.00  0.00    +0.109 C 
ATOM     10  C   UNL A   1     -25.318  -1.194  28.112  0.00  0.00    +0.011 C 
ATOM     11  C   UNL A   1     -24.950   0.260  27.748  0.00  0.00    +0.017 C 
ENDROOT
BRANCH   9  12
ATOM     12  C   UNL A   1     -25.045  -1.022  30.410  0.00  0.00    +0.067 C 
ATOM     13  C   UNL A   1     -26.239  -1.321  30.920  0.00  0.00    +0.008 C 
ATOM     14  C   UNL A   1     -26.571  -0.547  32.120  0.00  0.00    +0.001 C 
ATOM     15  C   UNL A   1     -25.606  -0.436  32.947  0.00  0.00    +0.008 C 
ATOM     16  C   UNL A   1     -24.096  -1.116  31.576  0.00  0.00    +0.151 C 
ATOM     17  C   UNL A   1     -24.379  -0.051  32.525  0.00  0.00    +0.065 C 
ATOM     18  O   UNL A   1     -22.977  -1.701  31.442  0.00  0.00    -0.296 OA
ENDBRANCH   9  12
BRANCH   9  19
ATOM     19  C   UNL A   1     -25.028  -3.288  29.166  0.00  0.00    +0.399 C 
ATOM     20  F   UNL A   1     -26.150  -3.365  29.234  0.00  0.00    -0.170 F 
ATOM     21  F   UNL A   1     -24.609  -3.897  28.011  0.00  0.00    -0.170 F 
ATOM     22  F   UNL A   1     -24.303  -3.853  30.157  0.00  0.00    -0.170 F 
ENDBRANCH   9  19
BRANCH   4  23
ATOM     23  C   UNL A   1     -23.629   2.633  26.573  0.00  0.00    +0.319 C 
ATOM     24  O   UNL A   1     -23.608   2.724  25.409  0.00  0.00    -0.250 OA
BRANCH  23  25
ATOM     25  O   UNL A   1     -24.201   3.615  27.325  0.00  0.00    -0.444 OA
ATOM     26  C   UNL A   1     -25.553   3.882  26.676  0.00  0.00    +0.256 C 
ENDBRANCH  23  25
ENDBRANCH   4  23
TORSDOF 4
ENDMDL
ENDMDL
