MODEL 4028
MODEL 1
REMARK VINA RESULT:    -8.236      0.000      0.000
REMARK INTER + INTRA:         -11.612
REMARK INTER:                 -10.162
REMARK INTRA:                  -1.450
REMARK UNBOUND:                -1.450
REMARK  Name = No_4028-gen_results/8p0m/2024-11-27-11-27-31/
REMARK  4 active torsions:
REMARK  status: ('A' for Active; 'I' for Inactive)
REMARK    1  A    between atoms: C_3  and  C_7
REMARK    2  A    between atoms: C_4  and  O_31
REMARK    3  A    between atoms: C_9  and  C_10
REMARK    4  A    between atoms: C_14  and  C_23
REMARK                            x       y       z     vdW  Elec       q    Type
REMARK                         _______ _______ _______ _____ _____    ______ ____
ROOT
ATOM      1  C   UNL A   1     -24.912  -0.292  29.595  0.00  0.00    +0.003 A 
ATOM      2  C   UNL A   1     -24.886   0.282  28.355  0.00  0.00    +0.001 A 
ATOM      3  C   UNL A   1     -24.507   0.371  30.730  0.00  0.00    +0.000 A 
ATOM      4  C   UNL A   1     -23.530   1.335  30.377  0.00  0.00    +0.000 A 
ATOM      5  C   UNL A   1     -25.753  -0.130  27.295  0.00  0.00    +0.009 A 
ATOM      6  C   UNL A   1     -25.483   0.087  25.984  0.00  0.00    +0.062 A 
ATOM      7  C   UNL A   1     -24.333   0.837  25.639  0.00  0.00    +0.146 A 
ATOM      8  C   UNL A   1     -23.399   1.195  26.660  0.00  0.00    +0.030 A 
ATOM      9  C   UNL A   1     -23.605   0.790  27.929  0.00  0.00    +0.002 A 
ATOM     10  C   UNL A   1     -22.950   1.469  29.068  0.00  0.00    +0.000 A 
ATOM     11 BR   UNL A   1     -26.619  -0.513  24.649  0.00  0.00    -0.047 Br
ATOM     12  F   UNL A   1     -23.994   1.074  24.374  0.00  0.00    -0.204 F 
ENDROOT
BRANCH   1  15
ATOM     13  C   UNL A   1     -24.662  -2.803  29.147  0.00  0.00    +0.015 A 
ATOM     14  C   UNL A   1     -25.094  -3.762  29.215  0.00  0.00    +0.059 A 
ATOM     15  C   UNL A   1     -25.423  -1.704  29.603  0.00  0.00    +0.036 A 
ATOM     16  C   UNL A   1     -26.697  -1.859  30.113  0.00  0.00    +0.149 A 
ATOM     17  C   UNL A   1     -26.413  -4.198  29.714  0.00  0.00    +0.026 A 
ATOM     18  C   UNL A   1     -27.175  -3.175  30.160  0.00  0.00    +0.092 A 
ATOM     19 CL   UNL A   1     -24.221  -5.282  28.642  0.00  0.00    -0.082 Cl
ATOM     20 CL   UNL A   1     -28.796  -3.454  30.728  0.00  0.00    -0.079 Cl
BRANCH  16  21
ATOM     21  O   UNL A   1     -27.495  -0.894  30.571  0.00  0.00    -0.471 OA
ATOM     22  C   UNL A   1     -28.374  -0.359  29.806  0.00  0.00    +0.253 C 
ENDBRANCH  16  21
ENDBRANCH   1  15
BRANCH   3  23
ATOM     23  C   UNL A   1     -24.452  -0.215  31.951  0.00  0.00    -0.000 A 
ATOM     24  C   UNL A   1     -23.345  -1.044  32.207  0.00  0.00    -0.000 A 
ATOM     25  C   UNL A   1     -23.207  -1.613  33.491  0.00  0.00    -0.000 A 
ATOM     26  C   UNL A   1     -24.118  -1.302  34.475  0.00  0.00    +0.004 A 
ATOM     27  C   UNL A   1     -25.164  -0.448  34.253  0.00  0.00    +0.071 A 
ATOM     28  C   UNL A   1     -25.364   0.082  33.030  0.00  0.00    +0.004 A 
BRANCH  27  29
ATOM     29  C   UNL A   1     -26.123  -0.221  35.407  0.00  0.00    +0.419 C 
ATOM     30  F   UNL A   1     -27.134  -1.017  35.324  0.00  0.00    -0.166 F 
ATOM     31  F   UNL A   1     -26.539   1.021  35.494  0.00  0.00    -0.166 F 
ATOM     32  F   UNL A   1     -25.505  -0.549  36.589  0.00  0.00    -0.166 F 
ENDBRANCH  27  29
ENDBRANCH   3  23
TORSDOF 4
ENDMDL
ENDMDL
