MODEL 4029
MODEL 1
REMARK VINA RESULT:    -4.250      0.000      0.000
REMARK INTER + INTRA:          -4.250
REMARK INTER:                  -4.250
REMARK INTRA:                   0.000
REMARK UNBOUND:                 0.000
REMARK  Name = No_4029-gen_results/8p0m/2024-11-27-11-27-31/
REMARK  0 active torsions:
REMARK  status: ('A' for Active; 'I' for Inactive)
REMARK                            x       y       z     vdW  Elec       q    Type
REMARK                         _______ _______ _______ _____ _____    ______ ____
ROOT
ATOM      1  C   UNL A   1     -24.951  -5.333  28.932  0.00  0.00    +0.000 A 
ATOM      2  C   UNL A   1     -24.140  -4.691  28.730  0.00  0.00    +0.000 A 
ATOM      3  C   UNL A   1     -26.107  -4.738  29.621  0.00  0.00    +0.000 A 
ATOM      4  C   UNL A   1     -26.163  -3.334  29.863  0.00  0.00    +0.000 A 
ATOM      5  C   UNL A   1     -23.970  -3.215  28.823  0.00  0.00    +0.000 A 
ATOM      6  C   UNL A   1     -25.019  -2.628  29.466  0.00  0.00    +0.000 A 
ENDROOT
TORSDOF 0
ENDMDL
ENDMDL
