MODEL 402
MODEL 1
REMARK VINA RESULT:    -6.941      0.000      0.000
REMARK INTER + INTRA:          -8.512
REMARK INTER:                  -7.753
REMARK INTRA:                  -0.760
REMARK UNBOUND:                -0.760
REMARK  Name = No_402-gen_results/8p0m/2024-11-27-11-27-31/
REMARK  2 active torsions:
REMARK  status: ('A' for Active; 'I' for Inactive)
REMARK    1  A    between atoms: C_3  and  C_7
REMARK    2  A    between atoms: C_7  and  C_9
REMARK                            x       y       z     vdW  Elec       q    Type
REMARK                         _______ _______ _______ _____ _____    ______ ____
ROOT
ATOM      1  C   UNL A   1     -23.721  -0.943  29.951  0.00  0.00    +0.125 C 
ATOM      2 CL   UNL A   1     -23.073  -0.703  31.237  0.00  0.00    -0.105 Cl
ENDROOT
BRANCH   1   5
ATOM      3  C   UNL A   1     -23.745  -3.279  28.888  0.00  0.00    -0.002 A 
ATOM      4  C   UNL A   1     -24.271  -4.180  28.743  0.00  0.00    -0.000 A 
ATOM      5  C   UNL A   1     -24.368  -2.268  29.653  0.00  0.00    +0.007 A 
ATOM      6  C   UNL A   1     -25.630  -2.431  30.190  0.00  0.00    +0.055 A 
ATOM      7  C   UNL A   1     -26.247  -3.649  29.956  0.00  0.00    +0.011 A 
ATOM      8  C   UNL A   1     -25.571  -4.615  29.233  0.00  0.00    +0.001 A 
ATOM      9 CL   UNL A   1     -26.494  -1.308  31.102  0.00  0.00    -0.083 Cl
ENDBRANCH   1   5
BRANCH   1  10
ATOM     10  C   UNL A   1     -23.862   0.104  28.938  0.00  0.00    -0.003 A 
ATOM     11  C   UNL A   1     -24.643  -0.041  27.829  0.00  0.00    -0.002 A 
ATOM     12  C   UNL A   1     -24.321   0.682  26.616  0.00  0.00    +0.011 A 
ATOM     13  C   UNL A   1     -23.186   1.527  26.649  0.00  0.00    +0.058 A 
ATOM     14  C   UNL A   1     -22.312   1.524  27.759  0.00  0.00    +0.011 A 
ATOM     15  C   UNL A   1     -22.560   0.730  28.813  0.00  0.00    -0.002 A 
ATOM     16 CL   UNL A   1     -22.800   2.433  25.267  0.00  0.00    -0.082 Cl
ENDBRANCH   1  10
TORSDOF 2
ENDMDL
ENDMDL
