REMARK  Name = No_4030-gen_results/8p0m/2024-11-27-11-27-31/
REMARK  1 active torsions:
REMARK  status: ('A' for Active; 'I' for Inactive)
REMARK    1  A    between atoms: C_1  and  C_7
REMARK                            x       y       z     vdW  Elec       q    Type
REMARK                         _______ _______ _______ _____ _____    ______ ____
ROOT
ATOM      1  C   UNL A   1     -28.016  -0.814  28.878  0.00  0.00    +0.042 A 
ATOM      2  C   UNL A   1     -27.064  -0.119  28.608  0.00  0.00    +0.003 A 
ATOM      3  C   UNL A   1     -27.001   0.691  27.491  0.00  0.00    +0.000 A 
ATOM      4  C   UNL A   1     -28.142   0.828  26.799  0.00  0.00    +0.000 A 
ATOM      5  C   UNL A   1     -29.290  -0.487  28.366  0.00  0.00    +0.003 A 
ATOM      6  C   UNL A   1     -29.285   0.261  27.262  0.00  0.00    +0.000 A 
ENDROOT
BRANCH   1   7
ATOM      7  C   UNL A   1     -27.939  -1.686  30.140  0.00  0.00    +0.234 C 
ATOM      8  O   UNL A   1     -28.676  -1.917  30.876  0.00  0.00    -0.283 OA
ENDBRANCH   1   7
TORSDOF 1
