MODEL 4031
MODEL 1
REMARK VINA RESULT:    -7.422      0.000      0.000
REMARK INTER + INTRA:          -4.460
REMARK INTER:                  -8.290
REMARK INTRA:                   3.830
REMARK UNBOUND:                 3.830
REMARK  Name = No_4031-gen_results/8p0m/2024-11-27-11-27-31/
REMARK  2 active torsions:
REMARK  status: ('A' for Active; 'I' for Inactive)
REMARK    1  A    between atoms: C_16  and  C_18
REMARK    2  A    between atoms: C_18  and  C_20
REMARK                            x       y       z     vdW  Elec       q    Type
REMARK                         _______ _______ _______ _____ _____    ______ ____
ROOT
ATOM      1  C   UNL A   1     -23.377  -1.573  30.704  0.00  0.00    +0.115 C 
ATOM      2  C   UNL A   1     -24.440  -1.253  31.185  0.00  0.00    -0.006 A 
ATOM      3  C   UNL A   1     -24.567  -0.621  32.406  0.00  0.00    -0.003 A 
ATOM      4  C   UNL A   1     -25.819  -0.287  33.059  0.00  0.00    -0.000 A 
ATOM      5  C   UNL A   1     -27.032  -0.612  32.412  0.00  0.00    -0.000 A 
ATOM      6  C   UNL A   1     -26.913  -1.285  31.143  0.00  0.00    -0.002 A 
ATOM      7  C   UNL A   1     -25.714  -1.625  30.560  0.00  0.00    +0.006 A 
ATOM      8  N   UNL A   1     -22.469  -0.569  30.519  0.00  0.00    -0.208 NA
ATOM      9  C   UNL A   1     -22.338   0.085  29.411  0.00  0.00    +0.115 C 
ATOM     10  C   UNL A   1     -23.063   0.167  28.565  0.00  0.00    -0.006 A 
ATOM     11  C   UNL A   1     -23.300   0.713  27.563  0.00  0.00    -0.003 A 
ATOM     12  C   UNL A   1     -24.365   0.618  26.512  0.00  0.00    -0.000 A 
ATOM     13  C   UNL A   1     -25.364  -0.363  26.793  0.00  0.00    -0.000 A 
ATOM     14  C   UNL A   1     -25.221  -1.101  27.896  0.00  0.00    -0.002 A 
ATOM     15  C   UNL A   1     -24.248  -0.946  28.742  0.00  0.00    +0.006 A 
ATOM     16  C   UNL A   1     -25.040  -1.141  29.984  0.00  0.00    +0.163 C 
ATOM     17  O   UNL A   1     -25.769   0.171  30.125  0.00  0.00    -0.217 OA
ENDROOT
BRANCH  16  18
ATOM     18  C   UNL A   1     -24.885  -2.498  29.448  0.00  0.00    +0.036 C 
ATOM     19  C   UNL A   1     -23.904  -3.199  28.859  0.00  0.00    +0.003 C 
BRANCH  18  20
ATOM     20  C   UNL A   1     -25.769  -3.290  29.731  0.00  0.00    +0.003 C 
ATOM     21  C   UNL A   1     -25.831  -4.690  29.469  0.00  0.00    +0.000 C 
ENDBRANCH  18  20
ENDBRANCH  16  18
TORSDOF 2
ENDMDL
ENDMDL
