REMARK  Name = outputs/IAG933/test6/raw/output_4031_IAG933_linker_design_.xyz
REMARK  16 active torsions:
REMARK  status: ('A' for Active; 'I' for Inactive)
REMARK    1  A    between atoms: C_1  and  C_2
REMARK    2  A    between atoms: C_1  and  C_8
REMARK    3  A    between atoms: C_1  and  C_36
REMARK    4  A    between atoms: C_14  and  C_15
REMARK    5  A    between atoms: C_15  and  O_18
REMARK    6  A    between atoms: O_18  and  C_33
REMARK    7  A    between atoms: C_21  and  O_22
REMARK    8  A    between atoms: O_22  and  C_23
REMARK    9  A    between atoms: C_23  and  C_24
REMARK   10  A    between atoms: C_28  and  C_38
REMARK   11  A    between atoms: N_29  and  C_41
REMARK   12  A    between atoms: C_30  and  N_34
REMARK   13  A    between atoms: C_30  and  C_37
REMARK   14  A    between atoms: C_33  and  C_41
REMARK   15  A    between atoms: N_34  and  C_36
REMARK   16  A    between atoms: N_34  and  C_41
REMARK                            x       y       z     vdW  Elec       q    Type
REMARK                         _______ _______ _______ _____ _____    ______ ____
ROOT
ATOM      1  C   UNL A   1     -24.669   1.907  29.127  0.00  0.00    +0.201 C 
ENDROOT
BRANCH   1   2
ATOM      2  N   UNL A   1     -23.601   1.510  28.786  0.00  0.00    -0.180 NA
ATOM      3  O   UNL A   1     -22.447  -0.328  29.880  0.00  0.00    -0.265 OA
ATOM      4  C   UNL A   1     -22.577   0.513  28.772  0.00  0.00    +0.301 C 
BRANCH   4   5
ATOM      5  C   UNL A   1     -21.291   0.849  28.120  0.00  0.00    +0.228 C 
ATOM      6  C   UNL A   1     -20.223  -0.105  28.337  0.00  0.00    +0.082 C 
ATOM      7  O   UNL A   1     -21.117   1.834  27.334  0.00  0.00    -0.286 OA
ENDBRANCH   4   5
ENDBRANCH   1   2
BRANCH   1   8
ATOM      8  C   UNL A   1     -25.140   2.967  29.024  0.00  0.00    +0.245 C 
BRANCH   8   9
ATOM      9  O   UNL A   1     -25.143   3.966  28.243  0.00  0.00    -0.457 OA
BRANCH   9  10
ATOM     10  C   UNL A   1     -25.642   4.093  27.123  0.00  0.00    +0.222 C 
ATOM     11  N   UNL A   1     -25.614   5.252  26.449  0.00  0.00    -0.236 NA
ATOM     12  C   UNL A   1     -25.026   6.479  26.963  0.00  0.00    +0.155 C 
BRANCH  10  14
ATOM     13  C   UNL A   1     -25.688   1.614  26.461  0.00  0.00    +0.041 C 
ATOM     14  C   UNL A   1     -26.250   2.920  26.395  0.00  0.00    +0.074 C 
ATOM     15  C   UNL A   1     -27.438   3.091  25.645  0.00  0.00    +0.107 C 
ATOM     16  N   UNL A   1     -28.075   2.089  25.003  0.00  0.00    -0.208 NA
ATOM     17  C   UNL A   1     -27.543   0.849  25.079  0.00  0.00    +0.253 C 
ATOM     18  C   UNL A   1     -26.354   0.576  25.777  0.00  0.00    +0.193 C 
ATOM     19  F   UNL A   1     -25.860  -0.681  25.795  0.00  0.00    -0.199 F 
BRANCH  17  20
ATOM     20  O   UNL A   1     -28.193  -0.208  24.477  0.00  0.00    -0.456 OA
BRANCH  20  21
ATOM     21  C   UNL A   1     -29.460   0.005  23.866  0.00  0.00    +0.243 C 
BRANCH  21  22
ATOM     22  C   UNL A   1     -30.065  -1.377  23.573  0.00  0.00    +0.229 C 
ATOM     23  O   UNL A   1     -30.729  -1.878  24.721  0.00  0.00    -0.216 OA
ENDBRANCH  21  22
ENDBRANCH  20  21
ENDBRANCH  17  20
ENDBRANCH  10  14
ENDBRANCH   9  10
ENDBRANCH   8   9
ENDBRANCH   1   8
BRANCH   1  24
ATOM     24  N   UNL A   1     -25.809   1.188  29.306  0.00  0.00    -0.226 NA
BRANCH  24  26
ATOM     25  O   UNL A   1     -26.783  -0.780  28.619  0.00  0.00    -0.204 OA
ATOM     26  C   UNL A   1     -25.659  -0.197  29.034  0.00  0.00    +0.219 C 
BRANCH  26  27
ATOM     27  C   UNL A   1     -24.855  -1.012  30.143  0.00  0.00    +0.085 C 
BRANCH  27  28
ATOM     28  C   UNL A   1     -24.973  -2.505  29.788  0.00  0.00    -0.017 C 
ATOM     29  C   UNL A   1     -23.906  -3.173  29.146  0.00  0.00    -0.004 C 
ATOM     30  C   UNL A   1     -23.989  -4.549  28.853  0.00  0.00    -0.000 C 
ATOM     31  C   UNL A   1     -25.137  -5.280  29.205  0.00  0.00    -0.000 C 
ATOM     32  C   UNL A   1     -26.232  -4.611  29.784  0.00  0.00    -0.000 C 
ATOM     33  C   UNL A   1     -26.155  -3.232  30.065  0.00  0.00    -0.004 C 
ENDBRANCH  27  28
BRANCH  27  34
ATOM     34  C   UNL A   1     -25.387  -0.679  31.571  0.00  0.00    +0.081 C 
ATOM     35  C   UNL A   1     -25.189   0.773  32.028  0.00  0.00    +0.019 C 
ATOM     36  C   UNL A   1     -25.336   0.684  33.544  0.00  0.00    +0.020 C 
ATOM     37  C   UNL A   1     -24.829  -0.715  33.905  0.00  0.00    +0.089 C 
ATOM     38  N   UNL A   1     -24.758  -1.481  32.646  0.00  0.00    -0.219 NA
ENDBRANCH  27  34
ENDBRANCH  26  27
ENDBRANCH  24  26
BRANCH  24  39
ATOM     39  C   UNL A   1     -27.315   1.636  29.766  0.00  0.00    +0.112 C 
BRANCH  39  41
ATOM     40  O   UNL A   1     -26.892   4.178  29.973  0.00  0.00    -0.219 OA
ATOM     41  C   UNL A   1     -27.871   3.125  29.801  0.00  0.00    +0.200 C 
ENDBRANCH  39  41
ENDBRANCH  24  39
ENDBRANCH   1  24
TORSDOF 16
