REMARK  Name = No_4032-gen_results/8p0m/2024-11-27-11-27-31/
REMARK  3 active torsions:
REMARK  status: ('A' for Active; 'I' for Inactive)
REMARK    1  A    between atoms: C_2  and  C_4
REMARK    2  A    between atoms: C_4  and  C_5
REMARK    3  A    between atoms: C_5  and  C_6
REMARK                            x       y       z     vdW  Elec       q    Type
REMARK                         _______ _______ _______ _____ _____    ______ ____
ROOT
ATOM      1  C   UNL A   1     -24.380   1.085  27.219  0.00  0.00    -0.022 A 
ATOM      2  C   UNL A   1     -23.937   2.221  26.426  0.00  0.00    -0.004 A 
ATOM      3  C   UNL A   1     -22.605   2.575  26.403  0.00  0.00    -0.000 A 
ATOM      4  C   UNL A   1     -21.745   1.892  27.247  0.00  0.00    -0.000 A 
ATOM      5  C   UNL A   1     -22.169   0.913  28.145  0.00  0.00    -0.000 A 
ATOM      6  C   UNL A   1     -23.431   0.550  28.128  0.00  0.00    -0.004 A 
ENDROOT
BRANCH   1   7
ATOM      7  C   UNL A   1     -25.731   0.717  27.309  0.00  0.00    +0.032 C 
BRANCH   7   8
ATOM      8  C   UNL A   1     -26.081  -0.392  28.077  0.00  0.00    +0.077 C 
BRANCH   8  10
ATOM      9  F   UNL A   1     -28.073  -1.254  28.532  0.00  0.00    -0.198 F 
ATOM     10  C   UNL A   1     -27.359  -0.379  28.722  0.00  0.00    +0.319 C 
ATOM     11  F   UNL A   1     -27.758   0.497  29.401  0.00  0.00    -0.198 F 
ENDBRANCH   8  10
ENDBRANCH   7   8
ENDBRANCH   1   7
TORSDOF 3
