MODEL 4032
MODEL 1
REMARK VINA RESULT:    -5.558      0.000      0.000
REMARK INTER + INTRA:          -6.727
REMARK INTER:                  -6.533
REMARK INTRA:                  -0.194
REMARK UNBOUND:                -0.194
REMARK  Name = No_4032-gen_results/8p0m/2024-11-27-11-27-31/
REMARK  3 active torsions:
REMARK  status: ('A' for Active; 'I' for Inactive)
REMARK    1  A    between atoms: C_2  and  C_4
REMARK    2  A    between atoms: C_4  and  C_5
REMARK    3  A    between atoms: C_5  and  C_6
REMARK                            x       y       z     vdW  Elec       q    Type
REMARK                         _______ _______ _______ _____ _____    ______ ____
ROOT
ATOM      1  C   UNL A   1     -23.704  -1.714  28.856  0.00  0.00    -0.022 A 
ATOM      2  C   UNL A   1     -24.611  -0.859  28.106  0.00  0.00    -0.004 A 
ATOM      3  C   UNL A   1     -24.169   0.343  27.595  0.00  0.00    -0.000 A 
ATOM      4  C   UNL A   1     -22.887   0.749  27.927  0.00  0.00    -0.000 A 
ATOM      5  C   UNL A   1     -22.054   0.032  28.785  0.00  0.00    -0.000 A 
ATOM      6  C   UNL A   1     -22.464  -1.134  29.230  0.00  0.00    -0.004 A 
ENDROOT
BRANCH   1   7
ATOM      7  C   UNL A   1     -24.122  -2.922  29.433  0.00  0.00    +0.032 C 
BRANCH   7   8
ATOM      8  C   UNL A   1     -24.170  -4.069  28.642  0.00  0.00    +0.077 C 
BRANCH   8  10
ATOM      9  F   UNL A   1     -24.846  -6.181  28.612  0.00  0.00    -0.198 F 
ATOM     10  C   UNL A   1     -24.998  -5.150  29.086  0.00  0.00    +0.319 C 
ATOM     11  F   UNL A   1     -25.868  -5.048  29.874  0.00  0.00    -0.198 F 
ENDBRANCH   8  10
ENDBRANCH   7   8
ENDBRANCH   1   7
TORSDOF 3
ENDMDL
ENDMDL
