MODEL 4033
MODEL 1
REMARK VINA RESULT:    -4.673      0.000      0.000
REMARK INTER + INTRA:          -5.117
REMARK INTER:                  -4.946
REMARK INTRA:                  -0.171
REMARK UNBOUND:                -0.171
REMARK  Name = No_4033-gen_results/8p0m/2024-11-27-11-27-31/
REMARK  1 active torsions:
REMARK  status: ('A' for Active; 'I' for Inactive)
REMARK    1  A    between atoms: C_3  and  C_8
REMARK                            x       y       z     vdW  Elec       q    Type
REMARK                         _______ _______ _______ _____ _____    ______ ____
ROOT
ATOM      1  C   UNL A   1     -24.492  -0.597  27.941  0.00  0.00    +0.042 A 
ATOM      2  C   UNL A   1     -25.159  -1.575  28.189  0.00  0.00    +0.003 A 
ATOM      3  C   UNL A   1     -24.944  -2.395  29.297  0.00  0.00    -0.000 A 
ATOM      4  C   UNL A   1     -23.829  -2.110  30.179  0.00  0.00    +0.003 A 
ATOM      5  C   UNL A   1     -23.090  -0.960  29.822  0.00  0.00    +0.042 A 
ATOM      6  C   UNL A   1     -23.365  -0.253  28.754  0.00  0.00    +0.196 A 
ATOM      7  O   UNL A   1     -22.549   0.808  28.478  0.00  0.00    -0.287 OA
ENDROOT
BRANCH   3   8
ATOM      8  C   UNL A   1     -25.726  -3.618  29.669  0.00  0.00    -0.005 C 
ATOM      9  C   UNL A   1     -25.340  -4.815  29.250  0.00  0.00    -0.026 C 
ATOM     10  C   UNL A   1     -24.216  -5.136  28.545  0.00  0.00    +0.031 C 
ENDBRANCH   3   8
TORSDOF 1
ENDMDL
ENDMDL
