REMARK  Name = No_4035-gen_results/8p0m/2024-11-27-11-27-31/
REMARK  2 active torsions:
REMARK  status: ('A' for Active; 'I' for Inactive)
REMARK    1  A    between atoms: C_1  and  C_2
REMARK    2  A    between atoms: C_5  and  C_10
REMARK                            x       y       z     vdW  Elec       q    Type
REMARK                         _______ _______ _______ _____ _____    ______ ____
ROOT
ATOM      1  C   UNL A   1     -28.016  -0.814  28.878  0.00  0.00    +0.080 C 
ATOM      2  N   UNL A   1     -29.178  -0.305  28.964  0.00  0.00    -0.272 NA
ATOM      3  C   UNL A   1     -30.177  -0.907  29.737  0.00  0.00    +0.058 C 
ATOM      4  C   UNL A   1     -31.518  -0.659  29.489  0.00  0.00    +0.016 C 
ATOM      5  C   UNL A   1     -29.843  -1.847  30.805  0.00  0.00    +0.016 C 
ATOM      6  C   UNL A   1     -28.540  -2.021  31.213  0.00  0.00    +0.003 C 
ATOM      7  C   UNL A   1     -27.576  -1.747  30.020  0.00  0.00    +0.021 C 
ATOM      8  C   UNL A   1     -29.635   0.568  27.963  0.00  0.00    +0.072 C 
ATOM      9  C   UNL A   1     -30.959   0.792  27.735  0.00  0.00    +0.017 C 
ATOM     10  C   UNL A   1     -31.871   0.293  28.588  0.00  0.00    +0.003 C 
ENDROOT
BRANCH   1  11
ATOM     11  C   UNL A   1     -27.064  -0.119  28.608  0.00  0.00    -0.008 A 
ATOM     12  C   UNL A   1     -26.929   1.171  29.008  0.00  0.00    -0.003 A 
ATOM     13  C   UNL A   1     -25.770   2.034  28.688  0.00  0.00    +0.006 A 
ATOM     14  C   UNL A   1     -24.714   1.443  27.919  0.00  0.00    +0.080 A 
ATOM     15  C   UNL A   1     -24.859   0.078  27.584  0.00  0.00    +0.006 A 
ATOM     16  C   UNL A   1     -25.965  -0.661  27.916  0.00  0.00    -0.003 A 
BRANCH  14  17
ATOM     17  C   UNL A   1     -23.516   2.162  27.579  0.00  0.00    +0.388 C 
ATOM     18  O   UNL A   1     -23.341   2.965  27.004  0.00  0.00    -0.241 OA
ATOM     19  O   UNL A   1     -22.360   1.476  28.119  0.00  0.00    -0.241 OA
ENDBRANCH  14  17
ENDBRANCH   1  11
TORSDOF 2
