MODEL 4036
MODEL 1
REMARK VINA RESULT:    -4.475      0.000      0.000
REMARK INTER + INTRA:          -4.475
REMARK INTER:                  -4.475
REMARK INTRA:                   0.000
REMARK UNBOUND:                 0.000
REMARK  Name = No_4036-gen_results/8p0m/2024-11-27-11-27-31/
REMARK  0 active torsions:
REMARK  status: ('A' for Active; 'I' for Inactive)
REMARK                            x       y       z     vdW  Elec       q    Type
REMARK                         _______ _______ _______ _____ _____    ______ ____
ROOT
ATOM      1  C   UNL A   1     -24.883  -2.622  29.233  0.00  0.00    +0.007 A 
ATOM      2  C   UNL A   1     -24.077  -3.180  28.848  0.00  0.00    +0.001 A 
ATOM      3  C   UNL A   1     -25.996  -3.378  29.734  0.00  0.00    +0.035 A 
ATOM      4  C   UNL A   1     -26.105  -4.701  29.583  0.00  0.00    +0.007 A 
ATOM      5  C   UNL A   1     -23.986  -4.607  28.571  0.00  0.00    +0.000 A 
ATOM      6  C   UNL A   1     -25.017  -5.318  29.008  0.00  0.00    +0.001 A 
ATOM      7 BR   UNL A   1     -27.243  -2.241  30.575  0.00  0.00    -0.049 Br
ENDROOT
TORSDOF 0
ENDMDL
ENDMDL
