REMARK  Name = No_4036-gen_results/8p0m/2024-11-27-11-27-31/
REMARK  0 active torsions:
REMARK  status: ('A' for Active; 'I' for Inactive)
REMARK                            x       y       z     vdW  Elec       q    Type
REMARK                         _______ _______ _______ _____ _____    ______ ____
ROOT
ATOM      1  C   UNL A   1     -28.016  -0.814  28.878  0.00  0.00    +0.007 A 
ATOM      2  C   UNL A   1     -28.469  -0.785  29.829  0.00  0.00    +0.001 A 
ATOM      3  C   UNL A   1     -28.196   0.348  28.055  0.00  0.00    +0.035 A 
ATOM      4  C   UNL A   1     -29.019   1.350  28.378  0.00  0.00    +0.007 A 
ATOM      5  C   UNL A   1     -29.411   0.180  30.378  0.00  0.00    +0.000 A 
ATOM      6  C   UNL A   1     -29.606   1.250  29.619  0.00  0.00    +0.001 A 
ATOM      7 BR   UNL A   1     -27.151   0.218  26.491  0.00  0.00    -0.049 Br
ENDROOT
TORSDOF 0
