MODEL 4038
MODEL 1
REMARK VINA RESULT:    -7.124      0.000      0.000
REMARK INTER + INTRA:          -8.510
REMARK INTER:                  -7.957
REMARK INTRA:                  -0.553
REMARK UNBOUND:                -0.553
REMARK  Name = No_4038-gen_results/8p0m/2024-11-27-11-27-31/
REMARK  2 active torsions:
REMARK  status: ('A' for Active; 'I' for Inactive)
REMARK    1  A    between atoms: C_4  and  C_11
REMARK    2  A    between atoms: C_7  and  C_17
REMARK                            x       y       z     vdW  Elec       q    Type
REMARK                         _______ _______ _______ _____ _____    ______ ____
ROOT
ATOM      1  C   UNL A   1     -27.772  -1.365  30.327  0.00  0.00    +0.005 A 
ATOM      2  C   UNL A   1     -26.662  -1.346  29.849  0.00  0.00    +0.000 A 
ATOM      3  C   UNL A   1     -25.932  -2.495  29.546  0.00  0.00    +0.000 A 
ATOM      4  C   UNL A   1     -24.573  -2.564  28.974  0.00  0.00    +0.000 A 
ATOM      5  C   UNL A   1     -23.832  -3.770  28.711  0.00  0.00    +0.000 A 
ATOM      6  C   UNL A   1     -24.571  -4.951  28.838  0.00  0.00    +0.000 A 
ATOM      7  C   UNL A   1     -28.314  -2.699  30.759  0.00  0.00    +0.055 A 
ATOM      8  C   UNL A   1     -27.706  -3.886  30.422  0.00  0.00    +0.005 A 
ATOM      9  C   UNL A   1     -26.454  -3.856  29.833  0.00  0.00    +0.000 A 
ATOM     10  C   UNL A   1     -25.798  -5.029  29.462  0.00  0.00    +0.000 A 
ENDROOT
BRANCH   4  11
ATOM     11  C   UNL A   1     -23.830  -1.302  28.655  0.00  0.00    +0.000 A 
ATOM     12  C   UNL A   1     -22.723  -1.089  29.270  0.00  0.00    +0.000 A 
ATOM     13  C   UNL A   1     -22.005   0.132  29.080  0.00  0.00    +0.000 A 
ATOM     14  C   UNL A   1     -22.526   1.039  28.129  0.00  0.00    +0.000 A 
ATOM     15  C   UNL A   1     -24.281  -0.297  27.800  0.00  0.00    +0.000 A 
ATOM     16  C   UNL A   1     -23.632   0.769  27.484  0.00  0.00    +0.000 A 
ENDBRANCH   4  11
BRANCH   7  17
ATOM     17  C   UNL A   1     -29.679  -2.698  31.412  0.00  0.00    +0.265 C 
ATOM     18  O   UNL A   1     -30.530  -1.976  31.052  0.00  0.00    -0.268 OA
ATOM     19  N   UNL A   1     -29.946  -3.609  32.334  0.00  0.00    -0.200 NA
ATOM     20  C   UNL A   1     -31.240  -3.679  32.979  0.00  0.00    +0.139 C 
ENDBRANCH   7  17
TORSDOF 2
ENDMDL
ENDMDL
