REMARK  Name = outputs/IAG933/test6/raw/output_4038_IAG933_linker_design_.xyz
REMARK  16 active torsions:
REMARK  status: ('A' for Active; 'I' for Inactive)
REMARK    1  A    between atoms: C_1  and  C_2
REMARK    2  A    between atoms: C_1  and  C_8
REMARK    3  A    between atoms: C_1  and  N_47
REMARK    4  A    between atoms: C_13  and  C_29
REMARK    5  A    between atoms: C_14  and  C_15
REMARK    6  A    between atoms: C_21  and  O_22
REMARK    7  A    between atoms: O_22  and  C_23
REMARK    8  A    between atoms: C_23  and  C_24
REMARK    9  A    between atoms: C_29  and  N_37
REMARK   10  A    between atoms: C_31  and  N_37
REMARK   11  A    between atoms: C_31  and  C_46
REMARK   12  A    between atoms: N_33  and  CA_38
REMARK   13  A    between atoms: N_33  and  C_43
REMARK   14  A    between atoms: C_36  and  N_47
REMARK   15  A    between atoms: CA_38  and  C_40
REMARK   16  A    between atoms: C_46  and  N_47
REMARK                            x       y       z     vdW  Elec       q    Type
REMARK                         _______ _______ _______ _____ _____    ______ ____
ROOT
ATOM      1  N   UNL A   1     -25.163   0.148  29.285  0.00  0.00    -0.303 N 
ENDROOT
BRANCH   1   4
ATOM      2  C   UNL A   1     -26.710   1.882  29.698  0.00  0.00    -0.005 C 
ATOM      3  C   UNL A   1     -27.531  -0.213  28.594  0.00  0.00    +0.014 C 
ATOM      4  C   UNL A   1     -26.467   0.577  29.140  0.00  0.00    +0.044 C 
ATOM      5  C   UNL A   1     -29.414   1.494  28.334  0.00  0.00    +0.012 C 
ATOM      6  C   UNL A   1     -27.831   2.758  29.759  0.00  0.00    +0.070 C 
ATOM      7  C   UNK     1     -28.849   2.723  28.733  0.00  0.00    +0.048 C 
ATOM      8  C   UNL A   1     -28.838   0.183  28.360  0.00  0.00    +0.002 C 
BRANCH   7   9
ATOM      9  N   UNL A   1     -29.203   3.881  28.184  0.00  0.00    -0.232 NA
BRANCH   9  10
ATOM     10  CA  UNL A   1     -30.448   4.529  28.527  0.00  0.00    +0.195 C 
ATOM     11  CB  UNL A   1     -31.440   3.444  28.648  0.00  0.00    +0.035 C 
BRANCH  10  13
ATOM     12  O   UNL A   1     -30.034   4.795  30.802  0.00  0.00    -0.244 OA
ATOM     13  C   UNL A   1     -30.120   5.357  29.686  0.00  0.00    +0.384 C 
ATOM     14  OXT UNL A   1     -29.848   6.540  29.492  0.00  0.00    -0.244 OA
ENDBRANCH  10  13
ENDBRANCH   9  10
ENDBRANCH   7   9
ENDBRANCH   1   4
BRANCH   1  15
ATOM     15  C   UNL A   1     -24.855  -1.012  30.143  0.00  0.00    +0.111 C 
BRANCH  15  16
ATOM     16  C   UNL A   1     -24.973  -2.505  29.788  0.00  0.00    -0.003 C 
ATOM     17  C   UNL A   1     -23.906  -3.173  29.146  0.00  0.00    -0.003 C 
ATOM     18  C   UNL A   1     -23.989  -4.549  28.853  0.00  0.00    -0.000 C 
ATOM     19  C   UNL A   1     -25.137  -5.280  29.205  0.00  0.00    -0.000 C 
ATOM     20  C   UNL A   1     -26.232  -4.611  29.784  0.00  0.00    -0.000 C 
ATOM     21  C   UNL A   1     -26.155  -3.232  30.065  0.00  0.00    -0.003 C 
ENDBRANCH  15  16
BRANCH  15  22
ATOM     22  C   UNL A   1     -25.387  -0.679  31.571  0.00  0.00    +0.095 C 
ATOM     23  C   UNL A   1     -25.189   0.773  32.028  0.00  0.00    +0.021 C 
ATOM     24  C   UNL A   1     -25.336   0.684  33.544  0.00  0.00    +0.020 C 
ATOM     25  C   UNL A   1     -24.829  -0.715  33.905  0.00  0.00    +0.089 C 
ATOM     26  N   UNL A   1     -24.758  -1.481  32.646  0.00  0.00    -0.217 NA
ENDBRANCH  15  22
ENDBRANCH   1  15
BRANCH   1  27
ATOM     27  C   UNL A   1     -23.847   0.798  29.141  0.00  0.00    +0.107 C 
BRANCH  27  29
ATOM     28  C   UNL A   1     -21.224   1.335  28.067  0.00  0.00    +0.019 C 
ATOM     29  C   UNL A   1     -22.709   0.856  28.040  0.00  0.00    +0.077 C 
BRANCH  29  31
ATOM     30  C   UNL A   1     -22.367   1.932  25.839  0.00  0.00    +0.090 C 
ATOM     31  N   UNL A   1     -23.246   1.807  27.026  0.00  0.00    -0.271 NA
BRANCH  31  32
ATOM     32  C   UNL A   1     -24.294   1.330  26.452  0.00  0.00    +0.080 C 
BRANCH  32  33
ATOM     33  C   UNL A   1     -25.688   1.614  26.461  0.00  0.00    +0.086 C 
ATOM     34  C   UNL A   1     -26.250   2.920  26.395  0.00  0.00    +0.056 C 
ATOM     35  C   UNL A   1     -27.438   3.091  25.645  0.00  0.00    +0.102 C 
ATOM     36  N   UNL A   1     -28.075   2.089  25.003  0.00  0.00    -0.212 NA
ATOM     37  C   UNL A   1     -27.543   0.849  25.079  0.00  0.00    +0.234 C 
ATOM     38  C   UNL A   1     -26.354   0.576  25.777  0.00  0.00    +0.241 C 
ATOM     39  F   UNL A   1     -25.860  -0.681  25.795  0.00  0.00    -0.227 F 
BRANCH  34  40
ATOM     40  C   UNL A   1     -25.642   4.093  27.123  0.00  0.00    +0.263 C 
ATOM     41  N   UNL A   1     -25.614   5.252  26.449  0.00  0.00    -0.200 NA
ATOM     42  C   UNL A   1     -25.026   6.479  26.963  0.00  0.00    +0.139 C 
ATOM     43  O   UNL A   1     -25.143   3.966  28.243  0.00  0.00    -0.269 OA
ENDBRANCH  34  40
BRANCH  37  44
ATOM     44  O   UNL A   1     -28.193  -0.208  24.477  0.00  0.00    -0.459 OA
BRANCH  44  45
ATOM     45  C   UNL A   1     -29.460   0.005  23.866  0.00  0.00    +0.242 C 
BRANCH  45  46
ATOM     46  C   UNL A   1     -30.065  -1.377  23.573  0.00  0.00    +0.229 C 
ATOM     47  O   UNL A   1     -30.729  -1.878  24.721  0.00  0.00    -0.216 OA
ENDBRANCH  45  46
ENDBRANCH  44  45
ENDBRANCH  37  44
ENDBRANCH  32  33
ENDBRANCH  31  32
ENDBRANCH  29  31
ENDBRANCH  27  29
ENDBRANCH   1  27
TORSDOF 16
