MODEL 4040
MODEL 1
REMARK VINA RESULT:    -4.263      0.000      0.000
REMARK INTER + INTRA:          -4.263
REMARK INTER:                  -4.263
REMARK INTRA:                   0.000
REMARK UNBOUND:                 0.000
REMARK  Name = No_4040-gen_results/8p0m/2024-11-27-11-27-31/
REMARK  0 active torsions:
REMARK  status: ('A' for Active; 'I' for Inactive)
REMARK                            x       y       z     vdW  Elec       q    Type
REMARK                         _______ _______ _______ _____ _____    ______ ____
ROOT
ATOM      1  C   UNL A   1     -24.944  -5.365  28.920  0.00  0.00    +0.000 A 
ATOM      2  C   UNL A   1     -24.006  -4.664  28.619  0.00  0.00    +0.000 A 
ATOM      3  C   UNL A   1     -24.019  -3.287  28.714  0.00  0.00    +0.000 A 
ATOM      4  C   UNL A   1     -25.189  -2.665  29.234  0.00  0.00    +0.000 A 
ATOM      5  C   UNL A   1     -26.141  -3.498  29.715  0.00  0.00    +0.000 A 
ATOM      6  C   UNL A   1     -26.026  -4.808  29.618  0.00  0.00    +0.000 A 
ENDROOT
TORSDOF 0
ENDMDL
ENDMDL
