REMARK  Name = outputs/IAG933/test6/raw/output_4041_IAG933_linker_design_.xyz
REMARK  12 active torsions:
REMARK  status: ('A' for Active; 'I' for Inactive)
REMARK    1  A    between atoms: C_1  and  C_2
REMARK    2  A    between atoms: C_1  and  C_8
REMARK    3  A    between atoms: C_1  and  C_28
REMARK    4  A    between atoms: C_13  and  C_37
REMARK    5  A    between atoms: C_14  and  C_15
REMARK    6  A    between atoms: C_21  and  O_22
REMARK    7  A    between atoms: O_22  and  C_23
REMARK    8  A    between atoms: C_23  and  C_24
REMARK    9  A    between atoms: C_28  and  N_39
REMARK   10  A    between atoms: C_28  and  N_43
REMARK   11  A    between atoms: N_34  and  C_37
REMARK   12  A    between atoms: C_37  and  N_39
REMARK                            x       y       z     vdW  Elec       q    Type
REMARK                         _______ _______ _______ _____ _____    ______ ____
ROOT
ATOM      1  C   UNL A   1     -25.954  -0.339  29.242  0.00  0.00    +0.176 C 
ENDROOT
BRANCH   1   8
ATOM      2  C   UNL A   1     -28.787   3.264  30.168  0.00  0.00    -0.009 C 
ATOM      3  C   UNL A   1     -30.233   2.861  30.520  0.00  0.00    -0.027 C 
ATOM      4  C   UNL A   1     -28.514  -0.111  28.991  0.00  0.00    +0.325 C 
ATOM      5  C   UNL A   1     -30.184   1.341  27.083  0.00  0.00    +0.022 C 
ATOM      6  C   UNL A   1     -27.888   2.328  29.366  0.00  0.00    +0.121 C 
ATOM      7  O   UNL A   1     -29.296  -0.952  28.579  0.00  0.00    -0.251 OA
ATOM      8  N   UNL A   1     -27.251  -0.577  29.278  0.00  0.00    -0.172 NA
ATOM      9  N   UNL A   1     -28.826   1.187  29.039  0.00  0.00    -0.260 N 
ATOM     10  C   UNL A   1     -30.312   1.423  28.601  0.00  0.00    +0.082 C 
ATOM     11  C   UNL A   1     -30.704   1.524  30.046  0.00  0.00    +0.046 C 
ENDBRANCH   1   8
BRANCH   1  12
ATOM     12  C   UNL A   1     -24.855  -1.012  30.143  0.00  0.00    +0.075 C 
BRANCH  12  13
ATOM     13  C   UNL A   1     -24.973  -2.505  29.788  0.00  0.00    -0.018 C 
ATOM     14  C   UNL A   1     -23.906  -3.173  29.146  0.00  0.00    -0.004 C 
ATOM     15  C   UNL A   1     -23.989  -4.549  28.853  0.00  0.00    -0.000 C 
ATOM     16  C   UNL A   1     -25.137  -5.280  29.205  0.00  0.00    -0.000 C 
ATOM     17  C   UNL A   1     -26.232  -4.611  29.784  0.00  0.00    -0.000 C 
ATOM     18  C   UNL A   1     -26.155  -3.232  30.065  0.00  0.00    -0.004 C 
ENDBRANCH  12  13
BRANCH  12  19
ATOM     19  C   UNL A   1     -25.387  -0.679  31.571  0.00  0.00    +0.080 C 
ATOM     20  C   UNL A   1     -25.189   0.773  32.028  0.00  0.00    +0.019 C 
ATOM     21  C   UNL A   1     -25.336   0.684  33.544  0.00  0.00    +0.020 C 
ATOM     22  C   UNL A   1     -24.829  -0.715  33.905  0.00  0.00    +0.089 C 
ATOM     23  N   UNL A   1     -24.758  -1.481  32.646  0.00  0.00    -0.219 NA
ENDBRANCH  12  19
ENDBRANCH   1  12
BRANCH   1  24
ATOM     24  N   UNL A   1     -25.346   0.205  28.190  0.00  0.00    -0.183 NA
BRANCH  24  25
ATOM     25  C   UNL A   1     -24.882   1.185  27.593  0.00  0.00    +0.145 C 
BRANCH  25  26
ATOM     26  C   UNL A   1     -25.688   1.614  26.461  0.00  0.00    +0.102 C 
ATOM     27  C   UNL A   1     -26.250   2.920  26.395  0.00  0.00    +0.058 C 
ATOM     28  C   UNL A   1     -27.438   3.091  25.645  0.00  0.00    +0.102 C 
ATOM     29  N   UNL A   1     -28.075   2.089  25.003  0.00  0.00    -0.212 NA
ATOM     30  C   UNL A   1     -27.543   0.849  25.079  0.00  0.00    +0.234 C 
ATOM     31  C   UNL A   1     -26.354   0.576  25.777  0.00  0.00    +0.243 C 
ATOM     32  F   UNL A   1     -25.860  -0.681  25.795  0.00  0.00    -0.227 F 
BRANCH  27  33
ATOM     33  C   UNL A   1     -25.642   4.093  27.123  0.00  0.00    +0.263 C 
ATOM     34  N   UNL A   1     -25.614   5.252  26.449  0.00  0.00    -0.200 NA
ATOM     35  C   UNL A   1     -25.026   6.479  26.963  0.00  0.00    +0.139 C 
ATOM     36  O   UNL A   1     -25.143   3.966  28.243  0.00  0.00    -0.269 OA
ENDBRANCH  27  33
BRANCH  30  37
ATOM     37  O   UNL A   1     -28.193  -0.208  24.477  0.00  0.00    -0.459 OA
BRANCH  37  38
ATOM     38  C   UNL A   1     -29.460   0.005  23.866  0.00  0.00    +0.242 C 
BRANCH  38  39
ATOM     39  C   UNL A   1     -30.065  -1.377  23.573  0.00  0.00    +0.229 C 
ATOM     40  O   UNL A   1     -30.729  -1.878  24.721  0.00  0.00    -0.216 OA
ENDBRANCH  38  39
ENDBRANCH  37  38
ENDBRANCH  30  37
ENDBRANCH  25  26
BRANCH  25  43
ATOM     41  C   UNL A   1     -22.769   1.093  28.489  0.00  0.00    +0.245 C 
ATOM     42  C   UNL A   1     -21.378   1.436  27.744  0.00  0.00    +0.194 C 
ATOM     43  N   UNL A   1     -23.631   1.485  27.507  0.00  0.00    -0.207 NA
ATOM     44  O   UNL A   1     -21.704   1.906  26.391  0.00  0.00    -0.333 OA
ATOM     45  O   UNL A   1     -22.769  -0.212  28.776  0.00  0.00    -0.202 OA
ATOM     46  C   UNL A   1     -23.122   2.087  26.191  0.00  0.00    +0.223 C 
ENDBRANCH  25  43
ENDBRANCH  24  25
ENDBRANCH   1  24
TORSDOF 12
