REMARK  Name = outputs/IAG933/test6/raw/output_4042_IAG933_linker_design_.xyz
REMARK  16 active torsions:
REMARK  status: ('A' for Active; 'I' for Inactive)
REMARK    1  A    between atoms: C_1  and  C_2
REMARK    2  A    between atoms: C_1  and  C_8
REMARK    3  A    between atoms: C_1  and  C_44
REMARK    4  A    between atoms: C_13  and  C_37
REMARK    5  A    between atoms: C_14  and  C_15
REMARK    6  A    between atoms: C_21  and  O_22
REMARK    7  A    between atoms: O_22  and  C_23
REMARK    8  A    between atoms: C_23  and  C_24
REMARK    9  A    between atoms: C_30  and  O_33
REMARK   10  A    between atoms: C_30  and  C_34
REMARK   11  A    between atoms: C_32  and  C_34
REMARK   12  A    between atoms: C_32  and  C_42
REMARK   13  A    between atoms: C_34  and  C_38
REMARK   14  A    between atoms: O_40  and  C_42
REMARK   15  A    between atoms: O_40  and  C_44
REMARK   16  A    between atoms: C_41  and  C_44
REMARK                            x       y       z     vdW  Elec       q    Type
REMARK                         _______ _______ _______ _____ _____    ______ ____
ROOT
ATOM      1  C   UNL A   1     -21.915   1.798  26.971  0.00  0.00    +0.002 C 
ATOM      2  C   UNL A   1     -23.201   1.864  26.356  0.00  0.00    -0.000 C 
ATOM      3  C   UNL A   1     -22.899   0.553  28.850  0.00  0.00    +0.138 C 
ATOM      4  C   UNL A   1     -24.377   1.372  27.052  0.00  0.00    +0.003 C 
ATOM      5  F   UNL A   1     -22.559  -0.272  29.855  0.00  0.00    -0.204 F 
ATOM      6  C   UNL A   1     -24.250   0.647  28.299  0.00  0.00    +0.033 C 
ATOM      7  C   UNL A   1     -21.767   1.128  28.226  0.00  0.00    +0.029 C 
ENDROOT
BRANCH   4   8
ATOM      8  C   UNL A   1     -25.688   1.614  26.461  0.00  0.00    +0.038 C 
ATOM      9  C   UNL A   1     -26.250   2.920  26.395  0.00  0.00    +0.076 C 
ATOM     10  C   UNL A   1     -27.438   3.091  25.645  0.00  0.00    +0.107 C 
ATOM     11  N   UNL A   1     -28.075   2.089  25.003  0.00  0.00    -0.208 NA
ATOM     12  C   UNL A   1     -27.543   0.849  25.079  0.00  0.00    +0.253 C 
ATOM     13  C   UNL A   1     -26.354   0.576  25.777  0.00  0.00    +0.193 C 
ATOM     14  F   UNL A   1     -25.860  -0.681  25.795  0.00  0.00    -0.199 F 
BRANCH   9  15
ATOM     15  C   UNL A   1     -25.642   4.093  27.123  0.00  0.00    +0.266 C 
ATOM     16  N   UNL A   1     -25.614   5.252  26.449  0.00  0.00    -0.200 NA
ATOM     17  C   UNL A   1     -25.026   6.479  26.963  0.00  0.00    +0.139 C 
ATOM     18  O   UNL A   1     -25.143   3.966  28.243  0.00  0.00    -0.268 OA
ENDBRANCH   9  15
BRANCH  12  19
ATOM     19  O   UNL A   1     -28.193  -0.208  24.477  0.00  0.00    -0.456 OA
BRANCH  19  20
ATOM     20  C   UNL A   1     -29.460   0.005  23.866  0.00  0.00    +0.243 C 
BRANCH  20  21
ATOM     21  C   UNL A   1     -30.065  -1.377  23.573  0.00  0.00    +0.229 C 
ATOM     22  O   UNL A   1     -30.729  -1.878  24.721  0.00  0.00    -0.216 OA
ENDBRANCH  20  21
ENDBRANCH  19  20
ENDBRANCH  12  19
ENDBRANCH   4   8
BRANCH   6  23
ATOM     23  C   UNL A   1     -25.375  -0.089  29.041  0.00  0.00    +0.145 C 
BRANCH  23  24
ATOM     24  C   UNL A   1     -24.855  -1.012  30.143  0.00  0.00    +0.070 C 
BRANCH  24  25
ATOM     25  C   UNL A   1     -24.973  -2.505  29.788  0.00  0.00    -0.018 C 
ATOM     26  C   UNL A   1     -23.906  -3.173  29.146  0.00  0.00    -0.004 C 
ATOM     27  C   UNL A   1     -23.989  -4.549  28.853  0.00  0.00    -0.000 C 
ATOM     28  C   UNL A   1     -25.137  -5.280  29.205  0.00  0.00    -0.000 C 
ATOM     29  C   UNL A   1     -26.232  -4.611  29.784  0.00  0.00    -0.000 C 
ATOM     30  C   UNL A   1     -26.155  -3.232  30.065  0.00  0.00    -0.004 C 
ENDBRANCH  24  25
BRANCH  24  31
ATOM     31  C   UNL A   1     -25.387  -0.679  31.571  0.00  0.00    +0.080 C 
ATOM     32  C   UNL A   1     -25.189   0.773  32.028  0.00  0.00    +0.019 C 
ATOM     33  C   UNL A   1     -25.336   0.684  33.544  0.00  0.00    +0.020 C 
ATOM     34  C   UNL A   1     -24.829  -0.715  33.905  0.00  0.00    +0.089 C 
ATOM     35  N   UNL A   1     -24.758  -1.481  32.646  0.00  0.00    -0.219 NA
ENDBRANCH  24  31
ENDBRANCH  23  24
BRANCH  23  36
ATOM     36  O   UNL A   1     -26.644  -0.194  28.484  0.00  0.00    -0.351 OA
BRANCH  36  37
ATOM     37  C   UNL A   1     -27.851   0.429  28.974  0.00  0.00    +0.143 C 
BRANCH  37  38
ATOM     38  C   UNL A   1     -28.783  -0.567  29.671  0.00  0.00    +0.037 C 
BRANCH  38  39
ATOM     39  C   UNL A   1     -30.331  -0.386  29.508  0.00  0.00    +0.065 C 
BRANCH  39  41
ATOM     40  O   UNL A   1     -29.988  -0.382  27.121  0.00  0.00    -0.220 OA
ATOM     41  C   UNL A   1     -30.826   0.109  28.138  0.00  0.00    +0.185 C 
ENDBRANCH  39  41
BRANCH  39  42
ATOM     42  C   UNL A   1     -30.875  -1.844  29.690  0.00  0.00    +0.145 C 
BRANCH  42  44
ATOM     43  C   UNL A   1     -29.522  -3.564  30.725  0.00  0.00    +0.174 C 
ATOM     44  O   UNL A   1     -30.116  -2.330  30.766  0.00  0.00    -0.351 OA
ENDBRANCH  42  44
ENDBRANCH  39  42
ENDBRANCH  38  39
ENDBRANCH  37  38
ENDBRANCH  36  37
ENDBRANCH  23  36
ENDBRANCH   6  23
TORSDOF 16
