REMARK  Name = No_4043-gen_results/8p0m/2024-11-27-11-27-31/
REMARK  5 active torsions:
REMARK  status: ('A' for Active; 'I' for Inactive)
REMARK    1  A    between atoms: C_3  and  C_8
REMARK    2  A    between atoms: C_6  and  O_7
REMARK    3  A    between atoms: O_7  and  C_14
REMARK    4  A    between atoms: C_10  and  O_22
REMARK    5  A    between atoms: C_14  and  C_15
REMARK                            x       y       z     vdW  Elec       q    Type
REMARK                         _______ _______ _______ _____ _____    ______ ____
ROOT
ATOM      1  C   UNL A   1     -28.016  -0.814  28.878  0.00  0.00    +0.049 A 
ATOM      2  C   UNL A   1     -27.064  -0.119  28.608  0.00  0.00    +0.061 A 
ATOM      3  C   UNL A   1     -25.792  -0.430  29.076  0.00  0.00    +0.011 A 
ATOM      4  C   UNL A   1     -25.576  -1.565  29.936  0.00  0.00    +0.004 A 
ATOM      5  C   UNL A   1     -26.735  -2.300  30.217  0.00  0.00    +0.038 A 
ATOM      6  C   UNL A   1     -27.918  -1.954  29.763  0.00  0.00    +0.150 A 
ATOM      7 CL   UNL A   1     -27.203   1.285  27.554  0.00  0.00    -0.082 Cl
ENDROOT
BRANCH   3   8
ATOM      8  C   UNL A   1     -24.529   0.349  28.800  0.00  0.00    +0.004 A 
ATOM      9  C   UNL A   1     -24.481   1.211  27.800  0.00  0.00    +0.037 A 
ATOM     10  C   UNL A   1     -23.248   1.897  27.495  0.00  0.00    +0.139 A 
ATOM     11  C   UNL A   1     -22.050   1.589  28.164  0.00  0.00    +0.037 A 
ATOM     12  C   UNL A   1     -23.307   0.015  29.462  0.00  0.00    +0.000 A 
ATOM     13  C   UNL A   1     -22.085   0.690  29.137  0.00  0.00    +0.003 A 
BRANCH  10  14
ATOM     14  O   UNL A   1     -23.292   2.817  26.475  0.00  0.00    -0.471 OA
ATOM     15  C   UNL A   1     -24.600   3.113  25.980  0.00  0.00    +0.253 C 
ENDBRANCH  10  14
ENDBRANCH   3   8
BRANCH   6  16
ATOM     16  O   UNL A   1     -29.000  -2.701  30.115  0.00  0.00    -0.421 OA
BRANCH  16  17
ATOM     17  C   UNL A   1     -30.127  -2.132  30.581  0.00  0.00    +0.346 C 
ATOM     18  O   UNL A   1     -30.674  -1.179  30.116  0.00  0.00    -0.244 OA
BRANCH  17  19
ATOM     19  C   UNL A   1     -30.578  -2.838  31.684  0.00  0.00    +0.078 A 
ATOM     20  C   UNL A   1     -29.787  -3.677  32.363  0.00  0.00    +0.007 A 
ATOM     21  C   UNL A   1     -31.983  -2.697  32.078  0.00  0.00    +0.036 A 
ATOM     22  C   UNL A   1     -30.268  -4.451  33.560  0.00  0.00    +0.003 A 
ATOM     23  C   UNL A   1     -32.409  -3.421  33.247  0.00  0.00    +0.140 A 
ATOM     24  C   UNL A   1     -31.562  -4.294  33.937  0.00  0.00    +0.030 A 
ATOM     25  F   UNL A   1     -33.662  -3.275  33.638  0.00  0.00    -0.204 F 
ENDBRANCH  17  19
ENDBRANCH  16  17
ENDBRANCH   6  16
TORSDOF 5
