MODEL 4044
MODEL 1
REMARK VINA RESULT:    -4.872      0.000      0.000
REMARK INTER + INTRA:          -5.650
REMARK INTER:                  -5.441
REMARK INTRA:                  -0.208
REMARK UNBOUND:                -0.208
REMARK  Name = No_4044-gen_results/8p0m/2024-11-27-11-27-31/
REMARK  2 active torsions:
REMARK  status: ('A' for Active; 'I' for Inactive)
REMARK    1  A    between atoms: C_2  and  C_7
REMARK    2  A    between atoms: C_7  and  C_8
REMARK                            x       y       z     vdW  Elec       q    Type
REMARK                         _______ _______ _______ _____ _____    ______ ____
ROOT
ATOM      1  C   UNL A   1     -23.867  -3.538  28.573  0.00  0.00    -0.004 A 
ATOM      2  C   UNL A   1     -24.622  -2.693  28.996  0.00  0.00    -0.018 A 
ATOM      3  C   UNL A   1     -25.821  -3.043  29.607  0.00  0.00    -0.004 A 
ATOM      4  C   UNL A   1     -26.224  -4.421  29.714  0.00  0.00    -0.000 A 
ATOM      5  C   UNL A   1     -25.303  -5.331  29.177  0.00  0.00    -0.000 A 
ATOM      6  C   UNL A   1     -24.190  -4.948  28.595  0.00  0.00    -0.000 A 
ENDROOT
BRANCH   2   7
ATOM      7  C   UNL A   1     -24.382  -1.225  28.946  0.00  0.00    +0.052 C 
BRANCH   7   8
ATOM      8  C   UNL A   1     -23.209  -0.706  28.855  0.00  0.00    -0.021 C 
ATOM      9  C   UNL A   1     -22.491  -0.369  30.091  0.00  0.00    -0.005 C 
ENDBRANCH   7   8
ENDBRANCH   2   7
TORSDOF 2
ENDMDL
ENDMDL
