MODEL 4045
MODEL 1
REMARK VINA RESULT:    -9.144      0.000      0.000
REMARK INTER + INTRA:         -12.737
REMARK INTER:                 -11.283
REMARK INTRA:                  -1.454
REMARK UNBOUND:                -1.454
REMARK  Name = No_4045-gen_results/8p0m/2024-11-27-11-27-31/
REMARK  4 active torsions:
REMARK  status: ('A' for Active; 'I' for Inactive)
REMARK    1  A    between atoms: C_6  and  O_15
REMARK    2  A    between atoms: O_15  and  C_16
REMARK    3  A    between atoms: C_18  and  C_32
REMARK    4  A    between atoms: C_22  and  C_23
REMARK                            x       y       z     vdW  Elec       q    Type
REMARK                         _______ _______ _______ _____ _____    ______ ____
ROOT
ATOM      1  C   UNL A   1     -11.870   1.827  36.539  0.00  0.00    +0.189 C 
ATOM      2  C   UNL A   1     -12.209   2.250  35.238  0.00  0.00    -0.000 C 
ATOM      3  C   UNL A   1     -11.879   1.520  34.186  0.00  0.00    -0.005 C 
ATOM      4  C   UNL A   1     -13.681   2.648  35.129  0.00  0.00    +0.051 C 
ATOM      5  C   UNL A   1     -14.191   3.405  36.138  0.00  0.00    -0.022 A 
ATOM      6  C   UNL A   1     -15.488   3.622  36.255  0.00  0.00    -0.004 A 
ATOM      7  C   UNL A   1     -16.101   4.267  37.427  0.00  0.00    -0.000 A 
ATOM      8  C   UNL A   1     -15.137   5.064  38.098  0.00  0.00    -0.000 A 
ATOM      9  C   UNL A   1     -13.776   4.862  38.031  0.00  0.00    -0.004 A 
ATOM     10  C   UNL A   1     -13.268   4.020  37.033  0.00  0.00    -0.022 A 
ATOM     11  C   UNL A   1     -12.260   2.626  37.654  0.00  0.00    +0.074 C 
ENDROOT
BRANCH   7  12
ATOM     12  C   UNL A   1     -17.461   4.515  37.576  0.00  0.00    -0.000 A 
ATOM     13  C   UNL A   1     -18.270   5.044  37.202  0.00  0.00    -0.000 A 
ATOM     14  C   UNL A   1     -19.654   5.245  37.627  0.00  0.00    -0.000 A 
ATOM     15  C   UNL A   1     -19.985   4.569  38.806  0.00  0.00    +0.000 A 
ATOM     16  C   UNL A   1     -19.028   3.858  39.448  0.00  0.00    -0.000 A 
ATOM     17  C   UNL A   1     -17.720   3.771  39.013  0.00  0.00    -0.000 A 
ENDBRANCH   7  12
BRANCH   3  18
ATOM     18  C   UNL A   1     -10.470   1.320  33.960  0.00  0.00    -0.005 C 
ATOM     19  C   UNL A   1      -9.686   2.547  33.964  0.00  0.00    -0.026 C 
ATOM     20  C   UNL A   1      -8.309   2.280  34.179  0.00  0.00    +0.031 C 
ENDBRANCH   3  18
BRANCH   1  21
ATOM     21  O   UNL A   1     -11.081   0.735  36.478  0.00  0.00    -0.475 OA
BRANCH  21  27
ATOM     22  C   UNL A   1      -9.341   0.446  38.136  0.00  0.00    +0.037 A 
ATOM     23  C   UNL A   1      -8.961  -0.004  39.192  0.00  0.00    +0.003 A 
ATOM     24  C   UNL A   1      -9.677  -0.946  39.931  0.00  0.00    +0.000 A 
ATOM     25  C   UNL A   1     -10.976  -1.379  39.454  0.00  0.00    +0.003 A 
ATOM     26  C   UNL A   1     -11.758  -2.294  40.112  0.00  0.00    +0.000 A 
ATOM     27  C   UNL A   1     -10.680   0.159  37.620  0.00  0.00    +0.139 A 
ATOM     28  C   UNL A   1     -11.476  -0.782  38.273  0.00  0.00    +0.037 A 
ATOM     29  C   UNL A   1     -11.357  -2.584  41.544  0.00  0.00    +0.000 A 
ATOM     30  C   UNL A   1     -10.022  -2.690  41.866  0.00  0.00    +0.000 A 
ATOM     31  C   UNL A   1      -9.205  -1.574  41.219  0.00  0.00    +0.000 A 
ATOM     32  C   UNL A   1      -7.893  -1.372  41.769  0.00  0.00    +0.000 A 
ATOM     33  C   UNL A   1      -7.149  -2.356  42.296  0.00  0.00    +0.000 A 
ATOM     34  C   UNL A   1      -7.780  -3.611  42.555  0.00  0.00    +0.000 A 
ATOM     35  C   UNL A   1      -9.325  -3.570  42.736  0.00  0.00    +0.000 A 
ENDBRANCH  21  27
ENDBRANCH   1  21
TORSDOF 4
ENDMDL
ENDMDL
