REMARK  Name = No_4045-gen_results/8p0m/2024-11-27-11-27-31/
REMARK  4 active torsions:
REMARK  status: ('A' for Active; 'I' for Inactive)
REMARK    1  A    between atoms: C_6  and  O_15
REMARK    2  A    between atoms: O_15  and  C_16
REMARK    3  A    between atoms: C_18  and  C_32
REMARK    4  A    between atoms: C_22  and  C_23
REMARK                            x       y       z     vdW  Elec       q    Type
REMARK                         _______ _______ _______ _____ _____    ______ ____
ROOT
ATOM      1  C   UNL A   1     -30.096  -1.962  30.587  0.00  0.00    +0.189 C 
ATOM      2  C   UNL A   1     -30.689  -2.668  31.654  0.00  0.00    -0.000 C 
ATOM      3  C   UNL A   1     -30.093  -3.729  32.172  0.00  0.00    -0.005 C 
ATOM      4  C   UNL A   1     -31.127  -1.738  32.785  0.00  0.00    +0.051 C 
ATOM      5  C   UNL A   1     -31.758  -0.586  32.427  0.00  0.00    -0.022 A 
ATOM      6  C   UNL A   1     -31.984   0.380  33.297  0.00  0.00    -0.004 A 
ATOM      7  C   UNL A   1     -32.485   1.711  32.920  0.00  0.00    -0.000 A 
ATOM      8  C   UNL A   1     -33.171   1.635  31.679  0.00  0.00    -0.000 A 
ATOM      9  C   UNL A   1     -32.952   0.663  30.727  0.00  0.00    -0.004 A 
ATOM     10  C   UNL A   1     -32.235  -0.485  31.088  0.00  0.00    -0.022 A 
ATOM     11  C   UNL A   1     -30.753  -0.809  30.066  0.00  0.00    +0.074 C 
ENDROOT
BRANCH   7  12
ATOM     12  C   UNL A   1     -32.739   2.747  33.813  0.00  0.00    -0.000 A 
ATOM     13  C   UNL A   1     -32.771   3.777  33.926  0.00  0.00    -0.000 A 
ATOM     14  C   UNL A   1     -32.957   4.683  35.058  0.00  0.00    -0.000 A 
ATOM     15  C   UNL A   1     -33.144   4.027  36.279  0.00  0.00    +0.000 A 
ATOM     16  C   UNL A   1     -33.091   2.675  36.315  0.00  0.00    -0.000 A 
ATOM     17  C   UNL A   1     -32.845   1.890  35.205  0.00  0.00    -0.000 A 
ENDBRANCH   7  12
BRANCH   3  18
ATOM     18  C   UNL A   1     -29.896  -4.849  31.288  0.00  0.00    -0.005 C 
ATOM     19  C   UNL A   1     -29.386  -6.045  31.945  0.00  0.00    -0.026 C 
ATOM     20  C   UNL A   1     -29.622  -7.205  31.162  0.00  0.00    +0.031 C 
ENDBRANCH   3  18
BRANCH   1  21
ATOM     21  O   UNL A   1     -29.005  -2.622  30.147  0.00  0.00    -0.475 OA
BRANCH  21  27
ATOM     22  C   UNL A   1     -28.016  -0.814  28.878  0.00  0.00    +0.037 A 
ATOM     23  C   UNL A   1     -27.064  -0.119  28.608  0.00  0.00    +0.003 A 
ATOM     24  C   UNL A   1     -25.765  -0.390  29.036  0.00  0.00    +0.000 A 
ATOM     25  C   UNL A   1     -25.530  -1.530  29.901  0.00  0.00    +0.003 A 
ATOM     26  C   UNL A   1     -24.291  -1.875  30.380  0.00  0.00    +0.000 A 
ATOM     27  C   UNL A   1     -27.908  -1.922  29.828  0.00  0.00    +0.139 A 
ATOM     28  C   UNL A   1     -26.651  -2.290  30.307  0.00  0.00    +0.037 A 
ATOM     29  C   UNL A   1     -23.220  -0.811  30.243  0.00  0.00    +0.000 A 
ATOM     30  C   UNL A   1     -23.159  -0.055  29.094  0.00  0.00    +0.000 A 
ATOM     31  C   UNL A   1     -24.546   0.420  28.667  0.00  0.00    +0.000 A 
ATOM     32  C   UNL A   1     -24.564   1.496  27.715  0.00  0.00    +0.000 A 
ATOM     33  C   UNL A   1     -23.616   1.680  26.785  0.00  0.00    +0.000 A 
ATOM     34  C   UNL A   1     -22.406   0.930  26.900  0.00  0.00    +0.000 A 
ATOM     35  C   UNL A   1     -22.060   0.414  28.326  0.00  0.00    +0.000 A 
ENDBRANCH  21  27
ENDBRANCH   1  21
TORSDOF 4
