MODEL 4046
MODEL 1
REMARK VINA RESULT:    -9.044      0.000      0.000
REMARK INTER + INTRA:         -11.560
REMARK INTER:                 -10.630
REMARK INTRA:                  -0.931
REMARK UNBOUND:                -0.931
REMARK  Name = No_4046-gen_results/8p0m/2024-11-27-11-27-31/
REMARK  3 active torsions:
REMARK  status: ('A' for Active; 'I' for Inactive)
REMARK    1  A    between atoms: C_2  and  C_7
REMARK    2  A    between atoms: C_7  and  C_8
REMARK    3  A    between atoms: C_7  and  C_14
REMARK                            x       y       z     vdW  Elec       q    Type
REMARK                         _______ _______ _______ _____ _____    ______ ____
ROOT
ATOM      1  C   UNL A   1     -24.702  -1.468  29.842  0.00  0.00    +0.063 C 
ENDROOT
BRANCH   1   2
ATOM      2  C   UNL A   1     -24.591  -0.237  29.008  0.00  0.00    +0.088 C 
ATOM      3  N   UNL A   1     -25.536   0.361  28.470  0.00  0.00    -0.268 NA
ATOM      4  C   UNL A   1     -23.317   0.100  28.550  0.00  0.00    -0.011 A 
ATOM      5  C   UNL A   1     -22.139  -0.391  28.991  0.00  0.00    -0.003 A 
ATOM      6  C   UNL A   1     -20.918   0.031  28.608  0.00  0.00    -0.000 A 
ATOM      7  C   UNL A   1     -23.198   1.226  27.737  0.00  0.00    -0.024 A 
ATOM      8  C   UNL A   1     -20.906   1.111  27.758  0.00  0.00    -0.000 A 
ATOM      9  C   UNL A   1     -22.028   1.715  27.272  0.00  0.00    -0.004 A 
ATOM     10  C   UNL A   1     -26.867  -0.200  28.560  0.00  0.00    +0.090 C 
ATOM     11  C   UNL A   1     -25.557   1.586  27.858  0.00  0.00    +0.077 C 
ATOM     12  C   UNL A   1     -24.387   1.953  27.410  0.00  0.00    +0.043 C 
ENDBRANCH   1   2
BRANCH   1  14
ATOM     13  C   UNL A   1     -25.733  -0.665  31.853  0.00  0.00    -0.004 A 
ATOM     14  C   UNL A   1     -24.780  -1.158  31.295  0.00  0.00    -0.017 A 
ATOM     15  C   UNL A   1     -23.635  -1.507  32.003  0.00  0.00    -0.004 A 
ATOM     16  C   UNL A   1     -23.530  -1.250  33.416  0.00  0.00    -0.000 A 
ATOM     17  C   UNL A   1     -24.668  -0.656  33.976  0.00  0.00    -0.000 A 
ATOM     18  C   UNL A   1     -25.720  -0.330  33.260  0.00  0.00    -0.000 A 
ENDBRANCH   1  14
BRANCH   1  19
ATOM     19  C   UNL A   1     -24.844  -2.531  29.258  0.00  0.00    -0.017 A 
ATOM     20  C   UNL A   1     -26.097  -3.341  29.587  0.00  0.00    -0.004 A 
ATOM     21  C   UNL A   1     -26.151  -4.563  29.769  0.00  0.00    -0.000 A 
ATOM     22  C   UNL A   1     -25.139  -5.360  29.020  0.00  0.00    -0.000 A 
ATOM     23  C   UNL A   1     -24.038  -4.707  28.531  0.00  0.00    -0.000 A 
ATOM     24  C   UNL A   1     -23.832  -3.341  28.739  0.00  0.00    -0.004 A 
ENDBRANCH   1  19
TORSDOF 3
ENDMDL
ENDMDL
