MODEL 4047
MODEL 1
REMARK VINA RESULT:    -4.240      0.000      0.000
REMARK INTER + INTRA:          -4.240
REMARK INTER:                  -4.240
REMARK INTRA:                   0.000
REMARK UNBOUND:                 0.000
REMARK  Name = No_4047-gen_results/8p0m/2024-11-27-11-27-31/
REMARK  0 active torsions:
REMARK  status: ('A' for Active; 'I' for Inactive)
REMARK                            x       y       z     vdW  Elec       q    Type
REMARK                         _______ _______ _______ _____ _____    ______ ____
ROOT
ATOM      1  C   UNL A   1     -24.935  -5.320  28.919  0.00  0.00    +0.000 A 
ATOM      2  C   UNL A   1     -24.128  -4.666  28.739  0.00  0.00    +0.000 A 
ATOM      3  C   UNL A   1     -26.106  -4.748  29.601  0.00  0.00    +0.000 A 
ATOM      4  C   UNL A   1     -26.179  -3.349  29.867  0.00  0.00    +0.000 A 
ATOM      5  C   UNL A   1     -23.974  -3.191  28.860  0.00  0.00    +0.000 A 
ATOM      6  C   UNL A   1     -25.037  -2.625  29.499  0.00  0.00    +0.000 A 
ENDROOT
TORSDOF 0
ENDMDL
ENDMDL
