MODEL 4048
MODEL 1
REMARK VINA RESULT:    -9.314      0.000      0.000
REMARK INTER + INTRA:         -12.938
REMARK INTER:                 -12.036
REMARK INTRA:                  -0.901
REMARK UNBOUND:                -0.901
REMARK  Name = No_4048-gen_results/8p0m/2024-11-27-11-27-31/
REMARK  5 active torsions:
REMARK  status: ('A' for Active; 'I' for Inactive)
REMARK    1  A    between atoms: C_7  and  C_9
REMARK    2  A    between atoms: C_12  and  O_15
REMARK    3  A    between atoms: O_15  and  C_16
REMARK    4  A    between atoms: C_18  and  C_23
REMARK    5  A    between atoms: C_23  and  C_24
REMARK                            x       y       z     vdW  Elec       q    Type
REMARK                         _______ _______ _______ _____ _____    ______ ____
ROOT
ATOM      1  O   UNL A   1     -24.158   1.197  26.217  0.00  0.00    -0.454 OA
ENDROOT
BRANCH   1   2
ATOM      2  C   UNL A   1     -23.728   0.844  27.095  0.00  0.00    +0.145 A 
ATOM      3  C   UNL A   1     -24.337   0.052  27.888  0.00  0.00    +0.036 A 
ATOM      4  C   UNL A   1     -23.735  -0.554  29.104  0.00  0.00    +0.013 A 
ATOM      5  C   UNL A   1     -22.396  -0.183  29.325  0.00  0.00    +0.137 A 
ATOM      6  C   UNL A   1     -21.733   0.649  28.510  0.00  0.00    +0.033 A 
ATOM      7  C   UNL A   1     -22.325   1.223  27.391  0.00  0.00    +0.040 A 
ATOM      8  F   UNL A   1     -21.791  -0.640  30.423  0.00  0.00    -0.204 F 
BRANCH   4   9
ATOM      9  C   UNL A   1     -24.500  -1.396  29.963  0.00  0.00    +0.055 C 
BRANCH   9  10
ATOM     10  C   UNL A   1     -24.784  -2.598  29.622  0.00  0.00    -0.018 A 
ATOM     11  C   UNL A   1     -23.835  -3.429  28.887  0.00  0.00    -0.004 A 
ATOM     12  C   UNL A   1     -24.107  -4.744  28.592  0.00  0.00    -0.000 A 
ATOM     13  C   UNL A   1     -25.361  -5.253  29.000  0.00  0.00    -0.000 A 
ATOM     14  C   UNL A   1     -26.302  -4.524  29.683  0.00  0.00    -0.000 A 
ATOM     15  C   UNL A   1     -26.000  -3.296  30.009  0.00  0.00    -0.004 A 
ENDBRANCH   9  10
ENDBRANCH   4   9
ENDBRANCH   1   2
BRANCH   1  19
ATOM     16  C   UNL A   1     -27.931   0.724  24.586  0.00  0.00    +0.001 A 
ATOM     17  C   UNL A   1     -27.085   0.080  24.216  0.00  0.00    +0.003 A 
ATOM     18  C   UNL A   1     -25.697   0.073  24.792  0.00  0.00    +0.037 A 
ATOM     19  C   UNL A   1     -25.411   1.114  25.667  0.00  0.00    +0.145 A 
ATOM     20  C   UNL A   1     -26.412   1.996  26.040  0.00  0.00    +0.037 A 
ATOM     21  C   UNL A   1     -27.682   1.858  25.501  0.00  0.00    +0.003 A 
BRANCH  16  28
ATOM     22 CL   UNL A   1     -29.227  -1.833  23.653  0.00  0.00    -0.082 Cl
ATOM     23  C   UNL A   1     -29.925  -0.572  23.687  0.00  0.00    +0.058 A 
ATOM     24  C   UNL A   1     -31.167  -0.423  23.088  0.00  0.00    +0.012 A 
ATOM     25  C   UNL A   1     -31.781   0.828  22.853  0.00  0.00    +0.008 A 
ATOM     26  C   UNL A   1     -31.171   1.997  23.253  0.00  0.00    +0.035 A 
ATOM     27  C   UNL A   1     -29.926   1.892  23.820  0.00  0.00    +0.007 A 
ATOM     28  C   UNL A   1     -29.324   0.710  23.970  0.00  0.00    +0.011 A 
ATOM     29 BR   UNL A   1     -32.079   3.601  22.967  0.00  0.00    -0.049 Br
ENDBRANCH  16  28
ENDBRANCH   1  19
TORSDOF 5
ENDMDL
ENDMDL
