MODEL 4049
MODEL 1
REMARK VINA RESULT:    -4.748      0.000      0.000
REMARK INTER + INTRA:          -5.509
REMARK INTER:                  -5.303
REMARK INTRA:                  -0.206
REMARK UNBOUND:                -0.206
REMARK  Name = No_4049-gen_results/8p0m/2024-11-27-11-27-31/
REMARK  2 active torsions:
REMARK  status: ('A' for Active; 'I' for Inactive)
REMARK    1  A    between atoms: C_1  and  C_2
REMARK    2  A    between atoms: C_1  and  C_8
REMARK                            x       y       z     vdW  Elec       q    Type
REMARK                         _______ _______ _______ _____ _____    ______ ____
ROOT
ATOM      1  C   UNL A   1     -24.581  -2.436  29.152  0.00  0.00    -0.022 A 
ATOM      2  C   UNL A   1     -23.854  -3.505  28.656  0.00  0.00    -0.004 A 
ATOM      3  C   UNL A   1     -24.254  -4.891  28.674  0.00  0.00    -0.000 A 
ATOM      4  C   UNL A   1     -25.500  -5.228  29.253  0.00  0.00    -0.000 A 
ATOM      5  C   UNL A   1     -26.291  -4.135  29.747  0.00  0.00    -0.000 A 
ATOM      6  C   UNL A   1     -25.905  -2.825  29.697  0.00  0.00    -0.004 A 
ENDROOT
BRANCH   1   7
ATOM      7  C   UNL A   1     -24.257  -1.274  29.065  0.00  0.00    +0.026 C 
BRANCH   7   8
ATOM      8  C   UNL A   1     -22.820  -1.027  29.339  0.00  0.00    +0.005 C 
ATOM      9  C   UNL A   1     -22.199  -0.129  28.861  0.00  0.00    +0.000 C 
ENDBRANCH   7   8
ENDBRANCH   1   7
TORSDOF 2
ENDMDL
ENDMDL
