MODEL 404
MODEL 1
REMARK VINA RESULT:    -8.245      0.000      0.000
REMARK INTER + INTRA:         -13.330
REMARK INTER:                 -12.102
REMARK INTRA:                  -1.229
REMARK UNBOUND:                -1.229
REMARK  Name = No_404-gen_results/8p0m/2024-11-27-11-27-31/
REMARK  8 active torsions:
REMARK  status: ('A' for Active; 'I' for Inactive)
REMARK    1  A    between atoms: C_2  and  O_14
REMARK    2  A    between atoms: C_9  and  C_11
REMARK    3  A    between atoms: C_11  and  O_13
REMARK    4  A    between atoms: O_13  and  C_22
REMARK    5  A    between atoms: O_14  and  C_15
REMARK    6  A    between atoms: C_15  and  C_16
REMARK    7  A    between atoms: C_16  and  C_19
REMARK    8  A    between atoms: C_22  and  C_23
REMARK                            x       y       z     vdW  Elec       q    Type
REMARK                         _______ _______ _______ _____ _____    ______ ____
ROOT
ATOM      1  C   UNL A   1     -28.071   1.183  23.795  0.00  0.00    +0.037 A 
ATOM      2  C   UNL A   1     -28.609   2.087  23.858  0.00  0.00    +0.139 A 
ATOM      3  C   UNL A   1     -27.079   1.017  24.857  0.00  0.00    +0.003 A 
ATOM      4  C   UNL A   1     -27.009   1.737  25.761  0.00  0.00    +0.000 A 
ATOM      5  C   UNL A   1     -28.689   3.149  24.843  0.00  0.00    +0.037 A 
ATOM      6  C   UNL A   1     -27.745   2.921  25.882  0.00  0.00    +0.003 A 
ATOM      7  C   UNL A   1     -26.263  -0.289  24.825  0.00  0.00    +0.000 A 
ATOM      8  C   UNL A   1     -25.040  -0.181  25.419  0.00  0.00    +0.006 A 
ATOM      9  C   UNL A   1     -24.897   0.685  26.587  0.00  0.00    +0.076 A 
ATOM     10  C   UNL A   1     -25.800   1.799  26.663  0.00  0.00    +0.006 A 
ENDROOT
BRANCH   9  11
ATOM     11  C   UNL A   1     -23.721   0.560  27.442  0.00  0.00    +0.342 C 
ATOM     12  O   UNL A   1     -23.070   1.591  27.847  0.00  0.00    -0.245 OA
BRANCH  11  13
ATOM     13  O   UNL A   1     -23.535  -0.529  28.094  0.00  0.00    -0.440 OA
BRANCH  13  14
ATOM     14  C   UNL A   1     -24.359  -0.994  29.098  0.00  0.00    +0.235 C 
BRANCH  14  15
ATOM     15  C   UNL A   1     -24.742  -2.399  29.109  0.00  0.00    +0.021 A 
ATOM     16  C   UNL A   1     -23.833  -3.250  28.644  0.00  0.00    -0.001 A 
ATOM     17  C   UNL A   1     -24.167  -4.670  28.718  0.00  0.00    -0.000 A 
ATOM     18  C   UNL A   1     -25.383  -5.072  29.255  0.00  0.00    -0.000 A 
ATOM     19  C   UNL A   1     -26.278  -4.112  29.678  0.00  0.00    -0.000 A 
ATOM     20  C   UNL A   1     -26.006  -2.742  29.587  0.00  0.00    -0.001 A 
ATOM     21  C   UNL A   1     -27.644  -4.514  30.193  0.00  0.00    -0.000 A 
ATOM     22  C   UNL A   1     -28.312  -3.737  30.872  0.00  0.00    -0.000 A 
ATOM     23  C   UNL A   1     -28.022  -2.300  30.789  0.00  0.00    -0.000 A 
ATOM     24  C   UNL A   1     -26.879  -1.870  30.215  0.00  0.00    -0.000 A 
ENDBRANCH  14  15
ENDBRANCH  13  14
ENDBRANCH  11  13
ENDBRANCH   9  11
BRANCH   2  25
ATOM     25  O   UNL A   1     -29.779   2.304  22.912  0.00  0.00    -0.472 OA
BRANCH  25  26
ATOM     26  C   UNL A   1     -30.943   1.621  22.919  0.00  0.00    +0.245 C 
BRANCH  26  27
ATOM     27  C   UNL A   1     -32.097   2.350  22.527  0.00  0.00    +0.256 C 
ATOM     28 BR   UNL A   1     -32.265   3.586  23.057  0.00  0.00    -0.048 Br
ATOM     29  N   UNL A   1     -33.135   1.360  22.791  0.00  0.00    -0.107 NA
BRANCH  27  30
ATOM     30  C   UNL A   1     -32.149   2.330  20.938  0.00  0.00    +0.394 C 
ATOM     31  O   UNL A   1     -32.964   1.449  20.456  0.00  0.00    -0.243 OA
ATOM     32  O   UNL A   1     -31.599   3.131  20.240  0.00  0.00    -0.243 OA
ENDBRANCH  27  30
ENDBRANCH  26  27
ENDBRANCH  25  26
ENDBRANCH   2  25
TORSDOF 8
ENDMDL
ENDMDL
