REMARK  Name = outputs/IAG933/test6/raw/output_405_IAG933_linker_design_.xyz
REMARK  14 active torsions:
REMARK  status: ('A' for Active; 'I' for Inactive)
REMARK    1  A    between atoms: C_1  and  C_2
REMARK    2  A    between atoms: C_1  and  C_8
REMARK    3  A    between atoms: C_1  and  C_28
REMARK    4  A    between atoms: C_13  and  C_29
REMARK    5  A    between atoms: C_14  and  C_15
REMARK    6  A    between atoms: C_21  and  O_22
REMARK    7  A    between atoms: O_22  and  C_23
REMARK    8  A    between atoms: C_23  and  C_24
REMARK    9  A    between atoms: C_32  and  O_35
REMARK   10  A    between atoms: C_32  and  C_42
REMARK   11  A    between atoms: S_37  and  N_38
REMARK   12  A    between atoms: S_37  and  C_41
REMARK   13  A    between atoms: N_38  and  C_39
REMARK   14  A    between atoms: C_41  and  C_42
REMARK                            x       y       z     vdW  Elec       q    Type
REMARK                         _______ _______ _______ _____ _____    ______ ____
ROOT
ATOM      1  C   UNL A   1     -24.335   1.570  26.658  0.00  0.00    +0.003 C 
ATOM      2  O   UNL A   1     -21.183   1.853  26.461  0.00  0.00    -0.447 OA
ATOM      3  C   UNL A   1     -22.155   2.078  25.485  0.00  0.00    +0.179 C 
ATOM      4  C   UNL A   1     -22.546   0.901  28.245  0.00  0.00    +0.056 C 
ATOM      5  C   UNL A   1     -23.998   1.190  27.846  0.00  0.00    +0.064 C 
ATOM      6  C   UNL A   1     -21.270   1.151  27.604  0.00  0.00    +0.181 C 
ATOM      7  C   UNL A   1     -23.492   1.919  25.659  0.00  0.00    +0.038 C 
ENDROOT
BRANCH   1   8
ATOM      8  C   UNL A   1     -25.688   1.614  26.461  0.00  0.00    +0.094 C 
ATOM      9  C   UNL A   1     -26.250   2.920  26.395  0.00  0.00    +0.059 C 
ATOM     10  C   UNL A   1     -27.438   3.091  25.645  0.00  0.00    +0.102 C 
ATOM     11  N   UNL A   1     -28.075   2.089  25.003  0.00  0.00    -0.212 NA
ATOM     12  C   UNL A   1     -27.543   0.849  25.079  0.00  0.00    +0.234 C 
ATOM     13  C   UNL A   1     -26.354   0.576  25.777  0.00  0.00    +0.244 C 
ATOM     14  F   UNL A   1     -25.860  -0.681  25.795  0.00  0.00    -0.227 F 
BRANCH   9  15
ATOM     15  C   UNL A   1     -25.642   4.093  27.123  0.00  0.00    +0.263 C 
ATOM     16  N   UNL A   1     -25.614   5.252  26.449  0.00  0.00    -0.200 NA
ATOM     17  C   UNL A   1     -25.026   6.479  26.963  0.00  0.00    +0.139 C 
ATOM     18  O   UNL A   1     -25.143   3.966  28.243  0.00  0.00    -0.269 OA
ENDBRANCH   9  15
BRANCH  12  19
ATOM     19  O   UNL A   1     -28.193  -0.208  24.477  0.00  0.00    -0.459 OA
BRANCH  19  20
ATOM     20  C   UNL A   1     -29.460   0.005  23.866  0.00  0.00    +0.242 C 
BRANCH  20  21
ATOM     21  C   UNL A   1     -30.065  -1.377  23.573  0.00  0.00    +0.229 C 
ATOM     22  O   UNL A   1     -30.729  -1.878  24.721  0.00  0.00    -0.216 OA
ENDBRANCH  20  21
ENDBRANCH  19  20
ENDBRANCH  12  19
ENDBRANCH   1   8
BRANCH   5  25
ATOM     23  C   UNL A   1     -25.479  -0.089  29.183  0.00  0.00    +0.243 C 
ATOM     24  O   UNL A   1     -26.545  -0.199  28.644  0.00  0.00    -0.273 OA
ATOM     25  N   UNL A   1     -24.452   1.207  29.135  0.00  0.00    -0.211 N 
BRANCH  23  26
ATOM     26  C   UNL A   1     -24.855  -1.012  30.143  0.00  0.00    +0.116 C 
BRANCH  26  27
ATOM     27  C   UNL A   1     -24.973  -2.505  29.788  0.00  0.00    -0.013 C 
ATOM     28  C   UNL A   1     -23.906  -3.173  29.146  0.00  0.00    -0.004 C 
ATOM     29  C   UNL A   1     -23.989  -4.549  28.853  0.00  0.00    -0.000 C 
ATOM     30  C   UNL A   1     -25.137  -5.280  29.205  0.00  0.00    -0.000 C 
ATOM     31  C   UNL A   1     -26.232  -4.611  29.784  0.00  0.00    -0.000 C 
ATOM     32  C   UNL A   1     -26.155  -3.232  30.065  0.00  0.00    -0.004 C 
ENDBRANCH  26  27
BRANCH  26  33
ATOM     33  C   UNL A   1     -25.387  -0.679  31.571  0.00  0.00    +0.086 C 
ATOM     34  C   UNL A   1     -25.189   0.773  32.028  0.00  0.00    +0.020 C 
ATOM     35  C   UNL A   1     -25.336   0.684  33.544  0.00  0.00    +0.020 C 
ATOM     36  C   UNL A   1     -24.829  -0.715  33.905  0.00  0.00    +0.089 C 
ATOM     37  N   UNL A   1     -24.758  -1.481  32.646  0.00  0.00    -0.219 NA
ENDBRANCH  26  33
ENDBRANCH  23  26
BRANCH  25  38
ATOM     38  S   UNL A   1     -24.166   2.606  30.235  0.00  0.00    -0.041 S 
BRANCH  38  39
ATOM     39  C   UNL A   1     -24.279   4.108  31.255  0.00  0.00    +0.081 C 
BRANCH  39  40
ATOM     40  C   UNL A   1     -25.700   4.288  31.823  0.00  0.00    +0.045 C 
BRANCH  40  41
ATOM     41  C   UNL A   1     -25.774   5.763  32.329  0.00  0.00    +0.143 C 
BRANCH  41  43
ATOM     42  C   UNL A   1     -24.484   7.519  33.470  0.00  0.00    +0.174 C 
ATOM     43  O   UNL A   1     -24.547   6.120  33.066  0.00  0.00    -0.351 OA
ENDBRANCH  41  43
ENDBRANCH  40  41
ENDBRANCH  39  40
ENDBRANCH  38  39
ENDBRANCH  25  38
ENDBRANCH   5  25
TORSDOF 14
