MODEL 4050
MODEL 1
REMARK VINA RESULT:    -6.966      0.000      0.000
REMARK INTER + INTRA:          -6.966
REMARK INTER:                  -6.966
REMARK INTRA:                   0.000
REMARK UNBOUND:                 0.000
REMARK  Name = No_4050-gen_results/8p0m/2024-11-27-11-27-31/
REMARK  0 active torsions:
REMARK  status: ('A' for Active; 'I' for Inactive)
REMARK                            x       y       z     vdW  Elec       q    Type
REMARK                         _______ _______ _______ _____ _____    ______ ____
ROOT
ATOM      1  C   UNL A   1     -25.511  -2.620  29.549  0.00  0.00    +0.058 A 
ATOM      2  C   UNL A   1     -24.401  -2.897  29.157  0.00  0.00    -0.004 A 
ATOM      3  C   UNL A   1     -24.040  -4.213  28.894  0.00  0.00    -0.003 A 
ATOM      4  C   UNL A   1     -24.963  -5.295  29.124  0.00  0.00    -0.000 A 
ATOM      5  C   UNL A   1     -26.216  -4.888  29.599  0.00  0.00    +0.001 A 
ATOM      6  C   UNL A   1     -26.502  -3.630  29.849  0.00  0.00    +0.015 A 
ATOM      7  C   UNL A   1     -23.315  -1.915  28.892  0.00  0.00    +0.055 C 
ATOM      8  C   UNL A   1     -23.298  -0.893  28.911  0.00  0.00    -0.004 A 
ATOM      9  C   UNL A   1     -24.578  -0.174  29.342  0.00  0.00    +0.058 A 
ATOM     10  C   UNL A   1     -24.757   1.126  28.976  0.00  0.00    +0.015 A 
ATOM     11  C   UNL A   1     -23.611   1.868  28.545  0.00  0.00    +0.001 A 
ATOM     12  C   UNL A   1     -22.383   1.319  28.222  0.00  0.00    -0.000 A 
ATOM     13  C   UNL A   1     -22.252   0.020  28.316  0.00  0.00    -0.003 A 
ATOM     14  N   UNL A   1     -26.021  -1.262  29.829  0.00  0.00    -0.201 N 
ATOM     15  C   UNL A   1     -26.879  -0.601  30.462  0.00  0.00    +0.455 C 
ATOM     16  O   UNL A   1     -26.796  -0.478  31.603  0.00  0.00    -0.222 OA
ATOM     17  O   UNL A   1     -27.735   0.074  29.697  0.00  0.00    -0.222 OA
ENDROOT
TORSDOF 0
ENDMDL
ENDMDL
