REMARK  Name = No_4050-gen_results/8p0m/2024-11-27-11-27-31/
REMARK  0 active torsions:
REMARK  status: ('A' for Active; 'I' for Inactive)
REMARK                            x       y       z     vdW  Elec       q    Type
REMARK                         _______ _______ _______ _____ _____    ______ ____
ROOT
ATOM      1  C   UNL A   1     -28.016  -0.814  28.878  0.00  0.00    +0.058 A 
ATOM      2  C   UNL A   1     -27.064  -0.119  28.608  0.00  0.00    -0.004 A 
ATOM      3  C   UNL A   1     -25.792  -0.430  29.076  0.00  0.00    -0.003 A 
ATOM      4  C   UNL A   1     -25.576  -1.565  29.936  0.00  0.00    -0.000 A 
ATOM      5  C   UNL A   1     -26.735  -2.300  30.217  0.00  0.00    +0.001 A 
ATOM      6  C   UNL A   1     -27.918  -1.954  29.763  0.00  0.00    +0.015 A 
ATOM      7  C   UNL A   1     -27.106   1.102  27.759  0.00  0.00    +0.055 C 
ATOM      8  C   UNL A   1     -27.858   1.531  27.216  0.00  0.00    -0.004 A 
ATOM      9  C   UNL A   1     -29.242   0.882  27.292  0.00  0.00    +0.058 A 
ATOM     10  C   UNL A   1     -30.136   1.122  26.292  0.00  0.00    +0.015 A 
ATOM     11  C   UNL A   1     -29.899   2.240  25.431  0.00  0.00    +0.001 A 
ATOM     12  C   UNL A   1     -28.714   2.951  25.357  0.00  0.00    -0.000 A 
ATOM     13  C   UNL A   1     -27.729   2.576  26.133  0.00  0.00    -0.003 A 
ATOM     14  N   UNL A   1     -29.403  -0.607  28.414  0.00  0.00    -0.201 N 
ATOM     15  C   UNL A   1     -30.610  -0.851  28.654  0.00  0.00    +0.455 C 
ATOM     16  O   UNL A   1     -31.147  -0.335  29.531  0.00  0.00    -0.222 OA
ATOM     17  O   UNL A   1     -31.227  -1.574  27.720  0.00  0.00    -0.222 OA
ENDROOT
TORSDOF 0
