MODEL 4051
MODEL 1
REMARK VINA RESULT:    -4.426      0.000      0.000
REMARK INTER + INTRA:          -4.426
REMARK INTER:                  -4.426
REMARK INTRA:                   0.000
REMARK UNBOUND:                 0.000
REMARK  Name = No_4051-gen_results/8p0m/2024-11-27-11-27-31/
REMARK  0 active torsions:
REMARK  status: ('A' for Active; 'I' for Inactive)
REMARK                            x       y       z     vdW  Elec       q    Type
REMARK                         _______ _______ _______ _____ _____    ______ ____
ROOT
ATOM      1 CL   UNL A   1     -27.299  -2.846  30.538  0.00  0.00    -0.082 Cl
ATOM      2  C   UNL A   1     -26.114  -3.297  29.853  0.00  0.00    +0.058 A 
ATOM      3  C   UNL A   1     -25.164  -2.707  29.504  0.00  0.00    +0.011 A 
ATOM      4  C   UNL A   1     -24.017  -3.227  28.775  0.00  0.00    +0.001 A 
ATOM      5  C   UNL A   1     -23.993  -4.628  28.561  0.00  0.00    +0.000 A 
ATOM      6  C   UNL A   1     -25.054  -5.339  28.984  0.00  0.00    +0.001 A 
ATOM      7  C   UNL A   1     -26.064  -4.769  29.632  0.00  0.00    +0.011 A 
ENDROOT
TORSDOF 0
ENDMDL
ENDMDL
