MODEL 4052
MODEL 1
REMARK VINA RESULT:    -5.471      0.000      0.000
REMARK INTER + INTRA:          -5.832
REMARK INTER:                  -5.791
REMARK INTRA:                  -0.041
REMARK UNBOUND:                -0.041
REMARK  Name = No_4052-gen_results/8p0m/2024-11-27-11-27-31/
REMARK  1 active torsions:
REMARK  status: ('A' for Active; 'I' for Inactive)
REMARK    1  A    between atoms: C_1  and  C_11
REMARK                            x       y       z     vdW  Elec       q    Type
REMARK                         _______ _______ _______ _____ _____    ______ ____
ROOT
ATOM      1  C   UNL A   1     -24.368  -2.741  29.297  0.00  0.00    +0.081 A 
ATOM      2  C   UNL A   1     -23.757  -3.592  28.691  0.00  0.00    +0.007 A 
ATOM      3  C   UNL A   1     -24.186  -4.899  28.569  0.00  0.00    +0.002 A 
ATOM      4  C   UNL A   1     -25.435  -5.249  29.155  0.00  0.00    +0.019 A 
ATOM      5  C   UNL A   1     -26.158  -4.227  29.671  0.00  0.00    +0.082 A 
ATOM      6  C   UNL A   1     -25.684  -2.996  29.709  0.00  0.00    +0.024 A 
ATOM      7  N   UNL A   1     -27.392  -4.574  30.209  0.00  0.00    -0.244 NA
ATOM      8  C   UNL A   1     -28.135  -3.655  30.699  0.00  0.00    +0.099 A 
ATOM      9  C   UNL A   1     -27.794  -2.329  30.564  0.00  0.00    +0.021 A 
ATOM     10  C   UNL A   1     -26.545  -1.981  30.171  0.00  0.00    +0.003 A 
ENDROOT
BRANCH   1  11
ATOM     11  C   UNL A   1     -23.992  -1.287  29.328  0.00  0.00    +0.388 C 
ATOM     12  O   UNL A   1     -23.421  -0.674  30.232  0.00  0.00    -0.241 OA
ATOM     13  O   UNL A   1     -24.151  -0.599  28.149  0.00  0.00    -0.241 OA
ENDBRANCH   1  11
TORSDOF 1
ENDMDL
ENDMDL
