MODEL 4053
MODEL 1
REMARK VINA RESULT:    -6.255      0.000      0.000
REMARK INTER + INTRA:         -12.578
REMARK INTER:                  -9.180
REMARK INTRA:                  -3.398
REMARK UNBOUND:                -3.398
REMARK  Name = No_4053-gen_results/8p0m/2024-11-27-11-27-31/
REMARK  8 active torsions:
REMARK  status: ('A' for Active; 'I' for Inactive)
REMARK    1  A    between atoms: C_3  and  C_17
REMARK    2  A    between atoms: C_5  and  C_11
REMARK    3  A    between atoms: C_8  and  C_14
REMARK    4  A    between atoms: C_10  and  N_20
REMARK    5  A    between atoms: C_17  and  O_19
REMARK    6  A    between atoms: O_19  and  C_23
REMARK    7  A    between atoms: C_23  and  C_24
REMARK    8  A    between atoms: C_24  and  C_25
REMARK                            x       y       z     vdW  Elec       q    Type
REMARK                         _______ _______ _______ _____ _____    ______ ____
ROOT
ATOM      1  C   UNL A   1     -28.807 -16.127   9.974  0.00  0.00    +0.007 A 
ATOM      2  C   UNL A   1     -29.951 -15.743   9.886  0.00  0.00    +0.008 A 
ATOM      3  C   UNL A   1     -30.676 -15.249  10.952  0.00  0.00    +0.076 A 
ATOM      4  C   UNL A   1     -32.070 -14.849  10.915  0.00  0.00    +0.013 A 
ATOM      5  C   UNL A   1     -32.681 -15.032  10.037  0.00  0.00    +0.080 A 
ATOM      6  C   UNL A   1     -32.159 -15.566   8.738  0.00  0.00    +0.008 A 
ATOM      7  C   UNL A   1     -30.799 -15.958   8.716  0.00  0.00    +0.014 A 
ATOM      8  C   UNL A   1     -28.155 -16.468   8.671  0.00  0.00    +0.081 A 
ATOM      9  C   UNL A   1     -28.896 -16.759   7.513  0.00  0.00    +0.021 A 
ATOM     10  C   UNL A   1     -30.249 -16.425   7.502  0.00  0.00    +0.048 A 
ENDROOT
BRANCH   5  11
ATOM     11  C   UNL A   1     -34.197 -14.643   9.884  0.00  0.00    +0.388 C 
ATOM     12  O   UNL A   1     -34.632 -13.660  10.565  0.00  0.00    -0.241 OA
ATOM     13  O   UNL A   1     -35.093 -15.426   9.247  0.00  0.00    -0.241 OA
ENDBRANCH   5  11
BRANCH   8  14
ATOM     14  C   UNL A   1     -26.695 -16.908   8.659  0.00  0.00    +0.388 C 
ATOM     15  O   UNL A   1     -26.178 -17.425   9.624  0.00  0.00    -0.241 OA
ATOM     16  O   UNL A   1     -26.001 -16.620   7.626  0.00  0.00    -0.241 OA
ENDBRANCH   8  14
BRANCH  10  17
ATOM     17  N   UNL A   1     -30.972 -16.628   6.394  0.00  0.00    -0.304 N 
ATOM     18  C   UNL A   1     -31.524 -17.883   6.093  0.00  0.00    +0.112 C 
ATOM     19  C   UNL A   1     -31.066 -15.605   5.441  0.00  0.00    +0.112 C 
ENDBRANCH  10  17
BRANCH   3  20
ATOM     20  C   UNL A   1     -29.922 -15.016  12.257  0.00  0.00    +0.341 C 
ATOM     21  O   UNL A   1     -29.821 -15.773  13.140  0.00  0.00    -0.245 OA
BRANCH  20  22
ATOM     22  O   UNL A   1     -29.258 -13.863  12.333  0.00  0.00    -0.445 OA
BRANCH  22  23
ATOM     23  C   UNL A   1     -29.915 -12.673  12.197  0.00  0.00    +0.213 C 
BRANCH  23  24
ATOM     24  C   UNL A   1     -29.411 -11.720  11.307  0.00  0.00    +0.074 C 
BRANCH  24  25
ATOM     25  C   UNL A   1     -29.428 -11.997  10.027  0.00  0.00    -0.018 A 
ATOM     26  C   UNL A   1     -28.697 -12.412   9.246  0.00  0.00    -0.004 A 
ATOM     27  C   UNL A   1     -28.611 -12.792   8.068  0.00  0.00    -0.000 A 
ATOM     28  C   UNL A   1     -29.838 -12.650   7.301  0.00  0.00    -0.000 A 
ATOM     29  C   UNL A   1     -30.926 -12.140   8.020  0.00  0.00    -0.000 A 
ATOM     30  C   UNL A   1     -30.786 -11.868   9.383  0.00  0.00    -0.004 A 
ENDBRANCH  24  25
ENDBRANCH  23  24
ENDBRANCH  22  23
ENDBRANCH  20  22
ENDBRANCH   3  20
TORSDOF 8
ENDMDL
ENDMDL
