REMARK  Name = outputs/IAG933/test6/raw/output_4053_IAG933_linker_design_.xyz
REMARK  8 active torsions:
REMARK  status: ('A' for Active; 'I' for Inactive)
REMARK    1  A    between atoms: C_1  and  C_2
REMARK    2  A    between atoms: C_1  and  C_8
REMARK    3  A    between atoms: C_1  and  O_30
REMARK    4  A    between atoms: C_21  and  O_22
REMARK    5  A    between atoms: O_22  and  C_23
REMARK    6  A    between atoms: C_23  and  C_24
REMARK    7  A    between atoms: O_30  and  C_32
REMARK    8  A    between atoms: C_35  and  C_43
REMARK                            x       y       z     vdW  Elec       q    Type
REMARK                         _______ _______ _______ _____ _____    ______ ____
ROOT
ATOM      1  C   UNL A   1     -25.688   1.614  26.461  0.00  0.00    +0.039 C 
ATOM      2  C   UNL A   1     -26.250   2.920  26.395  0.00  0.00    +0.074 C 
ATOM      3  C   UNL A   1     -25.642   4.093  27.123  0.00  0.00    +0.222 C 
ATOM      4  N   UNL A   1     -25.614   5.252  26.449  0.00  0.00    -0.236 NA
ATOM      5  C   UNL A   1     -25.026   6.479  26.963  0.00  0.00    +0.155 C 
ATOM      6  O   UNL A   1     -25.143   3.966  28.243  0.00  0.00    -0.459 OA
ATOM      7  C   UNL A   1     -27.438   3.091  25.645  0.00  0.00    +0.107 C 
ATOM      8  N   UNL A   1     -28.075   2.089  25.003  0.00  0.00    -0.208 NA
ATOM      9  C   UNL A   1     -27.543   0.849  25.079  0.00  0.00    +0.253 C 
ATOM     10  C   UNL A   1     -26.354   0.576  25.777  0.00  0.00    +0.193 C 
ATOM     11  F   UNL A   1     -25.860  -0.681  25.795  0.00  0.00    -0.199 F 
ATOM     12 CL   UNL A   1     -22.724   2.166  24.863  0.00  0.00    -0.082 Cl
ATOM     13  C   UNL A   1     -24.302   1.494  28.525  0.00  0.00    +0.053 C 
ATOM     14  C   UNL A   1     -23.301   0.616  29.072  0.00  0.00    +0.138 C 
ATOM     15  C   UNL A   1     -24.926   2.782  29.100  0.00  0.00    +0.201 C 
ATOM     16  C   UNL A   1     -21.799   1.354  27.298  0.00  0.00    +0.015 C 
ATOM     17  C   UNL A   1     -22.941   1.618  26.565  0.00  0.00    +0.058 C 
ATOM     18  C   UNL A   1     -22.000   0.804  28.582  0.00  0.00    +0.038 C 
ATOM     19  C   UNL A   1     -24.232   1.558  27.137  0.00  0.00    +0.015 C 
ENDROOT
BRANCH  15  27
ATOM     20  C   UNL A   1     -26.509   3.954  30.353  0.00  0.00    +0.229 C 
ATOM     21  O   UNL A   1     -25.586   4.608  30.928  0.00  0.00    -0.275 OA
ATOM     22  C   UNL A   1     -27.564   2.334  29.152  0.00  0.00    +0.033 C 
ATOM     23  C   UNL A   1     -28.399   3.417  29.429  0.00  0.00    +0.076 C 
ATOM     24  C   UNL A   1     -28.459   5.238  31.290  0.00  0.00    +0.115 C 
ATOM     25  C   UNL A   1     -29.674   3.822  28.762  0.00  0.00    +0.021 C 
ATOM     26  N   UNL A   1     -27.830   4.234  30.364  0.00  0.00    -0.279 N 
ATOM     27  C   UNL A   1     -26.291   2.751  29.596  0.00  0.00    +0.123 C 
ENDBRANCH  15  27
BRANCH   9  28
ATOM     28  O   UNL A   1     -28.193  -0.208  24.477  0.00  0.00    -0.456 OA
BRANCH  28  29
ATOM     29  C   UNL A   1     -29.460   0.005  23.866  0.00  0.00    +0.243 C 
BRANCH  29  30
ATOM     30  C   UNL A   1     -30.065  -1.377  23.573  0.00  0.00    +0.229 C 
ATOM     31  O   UNL A   1     -30.729  -1.878  24.721  0.00  0.00    -0.216 OA
ENDBRANCH  29  30
ENDBRANCH  28  29
ENDBRANCH   9  28
BRANCH  14  32
ATOM     32  O   UNL A   1     -23.499  -0.458  30.036  0.00  0.00    -0.473 OA
BRANCH  32  33
ATOM     33  C   UNL A   1     -24.855  -1.012  30.143  0.00  0.00    +0.204 C 
BRANCH  33  34
ATOM     34  C   UNL A   1     -24.973  -2.505  29.788  0.00  0.00    +0.019 C 
ATOM     35  C   UNL A   1     -23.906  -3.173  29.146  0.00  0.00    -0.001 C 
ATOM     36  C   UNL A   1     -23.989  -4.549  28.853  0.00  0.00    -0.000 C 
ATOM     37  C   UNL A   1     -25.137  -5.280  29.205  0.00  0.00    -0.000 C 
ATOM     38  C   UNL A   1     -26.232  -4.611  29.784  0.00  0.00    -0.000 C 
ATOM     39  C   UNL A   1     -26.155  -3.232  30.065  0.00  0.00    -0.001 C 
ENDBRANCH  33  34
BRANCH  33  40
ATOM     40  C   UNL A   1     -25.387  -0.679  31.571  0.00  0.00    +0.117 C 
ATOM     41  C   UNL A   1     -25.189   0.773  32.028  0.00  0.00    +0.023 C 
ATOM     42  C   UNL A   1     -25.336   0.684  33.544  0.00  0.00    +0.020 C 
ATOM     43  C   UNL A   1     -24.829  -0.715  33.905  0.00  0.00    +0.089 C 
ATOM     44  N   UNL A   1     -24.758  -1.481  32.646  0.00  0.00    -0.215 NA
ENDBRANCH  33  40
ENDBRANCH  32  33
ENDBRANCH  14  32
TORSDOF 8
