REMARK  Name = No_4054-gen_results/8p0m/2024-11-27-11-27-31/
REMARK  5 active torsions:
REMARK  status: ('A' for Active; 'I' for Inactive)
REMARK    1  A    between atoms: C_2  and  C_16
REMARK    2  A    between atoms: C_3  and  C_4
REMARK    3  A    between atoms: C_7  and  C_13
REMARK    4  A    between atoms: C_13  and  O_15
REMARK    5  A    between atoms: O_15  and  C_19
REMARK                            x       y       z     vdW  Elec       q    Type
REMARK                         _______ _______ _______ _____ _____    ______ ____
ROOT
ATOM      1  C   UNL A   1     -28.016  -0.814  28.878  0.00  0.00    +0.007 A 
ATOM      2  C   UNL A   1     -28.469  -0.785  29.829  0.00  0.00    +0.080 A 
ATOM      3  C   UNL A   1     -28.182   0.428  28.113  0.00  0.00    +0.000 A 
ATOM      4  C   UNL A   1     -29.426   0.110  30.418  0.00  0.00    +0.013 A 
ATOM      5  C   UNL A   1     -29.623   1.220  29.735  0.00  0.00    +0.076 A 
ATOM      6  C   UNL A   1     -28.961   1.453  28.551  0.00  0.00    +0.006 A 
ENDROOT
BRANCH   3   7
ATOM      7  C   UNL A   1     -27.450   0.643  26.850  0.00  0.00    +0.000 A 
ATOM      8  C   UNL A   1     -27.860   1.457  25.908  0.00  0.00    +0.000 A 
ATOM      9  C   UNL A   1     -27.173   1.574  24.703  0.00  0.00    +0.000 A 
ATOM     10  C   UNL A   1     -26.089   0.747  24.413  0.00  0.00    +0.000 A 
ATOM     11  C   UNL A   1     -25.636  -0.119  25.397  0.00  0.00    +0.000 A 
ATOM     12  C   UNL A   1     -26.281  -0.206  26.582  0.00  0.00    +0.000 A 
ENDBRANCH   3   7
BRANCH   2  13
ATOM     13  C   UNL A   1     -28.280  -2.168  30.708  0.00  0.00    +0.388 C 
ATOM     14  O   UNL A   1     -27.474  -2.960  30.341  0.00  0.00    -0.241 OA
ATOM     15  O   UNL A   1     -28.971  -2.309  31.788  0.00  0.00    -0.241 OA
ENDBRANCH   2  13
BRANCH   5  16
ATOM     16  C   UNL A   1     -30.546   2.320  30.242  0.00  0.00    +0.346 C 
ATOM     17  O   UNL A   1     -31.153   2.991  29.593  0.00  0.00    -0.244 OA
BRANCH  16  18
ATOM     18  O   UNL A   1     -30.507   2.411  31.599  0.00  0.00    -0.421 OA
BRANCH  18  19
ATOM     19  C   UNL A   1     -31.502   3.006  32.277  0.00  0.00    +0.149 A 
ATOM     20  C   UNL A   1     -31.260   2.910  33.649  0.00  0.00    +0.035 A 
ATOM     21  C   UNL A   1     -30.023   2.800  34.130  0.00  0.00    +0.003 A 
ATOM     22  C   UNL A   1     -29.732   2.514  35.538  0.00  0.00    +0.000 A 
ATOM     23  C   UNL A   1     -30.759   2.427  36.418  0.00  0.00    +0.000 A 
ATOM     24  C   UNL A   1     -32.035   2.579  35.951  0.00  0.00    +0.000 A 
ATOM     25  C   UNL A   1     -32.286   2.765  34.598  0.00  0.00    +0.003 A 
ATOM     26  C   UNL A   1     -33.645   2.881  34.115  0.00  0.00    +0.000 A 
ATOM     27  C   UNL A   1     -33.943   2.477  32.885  0.00  0.00    +0.003 A 
ATOM     28  C   UNL A   1     -32.797   2.145  32.025  0.00  0.00    +0.038 A 
ENDBRANCH  18  19
ENDBRANCH  16  18
ENDBRANCH   5  16
TORSDOF 5
