MODEL 4054
MODEL 1
REMARK VINA RESULT:    -8.678      0.000      0.000
REMARK INTER + INTRA:         -12.447
REMARK INTER:                 -11.214
REMARK INTRA:                  -1.233
REMARK UNBOUND:                -1.233
REMARK  Name = No_4054-gen_results/8p0m/2024-11-27-11-27-31/
REMARK  5 active torsions:
REMARK  status: ('A' for Active; 'I' for Inactive)
REMARK    1  A    between atoms: C_2  and  C_16
REMARK    2  A    between atoms: C_3  and  C_4
REMARK    3  A    between atoms: C_7  and  C_13
REMARK    4  A    between atoms: C_13  and  O_15
REMARK    5  A    between atoms: O_15  and  C_19
REMARK                            x       y       z     vdW  Elec       q    Type
REMARK                         _______ _______ _______ _____ _____    ______ ____
ROOT
ATOM      1  C   UNL A   1     -24.792  -0.545  30.757  0.00  0.00    +0.007 A 
ATOM      2  C   UNL A   1     -24.313   0.389  30.849  0.00  0.00    +0.080 A 
ATOM      3  C   UNL A   1     -24.389  -1.292  29.559  0.00  0.00    +0.000 A 
ATOM      4  C   UNL A   1     -23.557   1.185  29.922  0.00  0.00    +0.013 A 
ATOM      5  C   UNL A   1     -23.210   0.551  28.820  0.00  0.00    +0.076 A 
ATOM      6  C   UNL A   1     -23.580  -0.757  28.606  0.00  0.00    +0.006 A 
ENDROOT
BRANCH   3   7
ATOM      7  C   UNL A   1     -24.801  -2.697  29.369  0.00  0.00    +0.000 A 
ATOM      8  C   UNL A   1     -25.904  -3.199  29.868  0.00  0.00    +0.000 A 
ATOM      9  C   UNL A   1     -26.215  -4.548  29.722  0.00  0.00    +0.000 A 
ATOM     10  C   UNL A   1     -25.311  -5.433  29.136  0.00  0.00    +0.000 A 
ATOM     11  C   UNL A   1     -24.140  -4.922  28.598  0.00  0.00    +0.000 A 
ATOM     12  C   UNL A   1     -23.854  -3.605  28.707  0.00  0.00    +0.000 A 
ENDBRANCH   3   7
BRANCH   2  13
ATOM     13  C   UNL A   1     -24.744   1.237  32.197  0.00  0.00    +0.388 C 
ATOM     14  O   UNL A   1     -24.629   2.419  32.177  0.00  0.00    -0.241 OA
ATOM     15  O   UNL A   1     -25.242   0.591  33.196  0.00  0.00    -0.241 OA
ENDBRANCH   2  13
BRANCH   5  16
ATOM     16  C   UNL A   1     -22.344   1.210  27.755  0.00  0.00    +0.346 C 
ATOM     17  O   UNL A   1     -21.237   1.319  27.813  0.00  0.00    -0.244 OA
BRANCH  16  18
ATOM     18  O   UNL A   1     -23.099   1.691  26.731  0.00  0.00    -0.421 OA
BRANCH  18  19
ATOM     19  C   UNL A   1     -24.328   2.185  26.956  0.00  0.00    +0.149 A 
ATOM     20  C   UNL A   1     -25.258   1.513  26.160  0.00  0.00    +0.035 A 
ATOM     21  C   UNL A   1     -25.046   0.265  25.747  0.00  0.00    +0.003 A 
ATOM     22  C   UNL A   1     -25.901  -0.413  24.768  0.00  0.00    +0.000 A 
ATOM     23  C   UNL A   1     -27.005   0.223  24.306  0.00  0.00    +0.000 A 
ATOM     24  C   UNL A   1     -27.263   1.490  24.750  0.00  0.00    +0.000 A 
ATOM     25  C   UNL A   1     -26.391   2.139  25.614  0.00  0.00    +0.003 A 
ATOM     26  C   UNL A   1     -26.658   3.496  26.040  0.00  0.00    +0.000 A 
ATOM     27  C   UNL A   1     -25.645   4.304  26.337  0.00  0.00    +0.003 A 
ATOM     28  C   UNL A   1     -24.322   3.667  26.422  0.00  0.00    +0.038 A 
ENDBRANCH  18  19
ENDBRANCH  16  18
ENDBRANCH   5  16
TORSDOF 5
ENDMDL
ENDMDL
