MODEL 4055
MODEL 1
REMARK VINA RESULT:    -5.366      0.000      0.000
REMARK INTER + INTRA:          -5.366
REMARK INTER:                  -5.366
REMARK INTRA:                   0.000
REMARK UNBOUND:                 0.000
REMARK  Name = No_4055-gen_results/8p0m/2024-11-27-11-27-31/
REMARK  0 active torsions:
REMARK  status: ('A' for Active; 'I' for Inactive)
REMARK                            x       y       z     vdW  Elec       q    Type
REMARK                         _______ _______ _______ _____ _____    ______ ____
ROOT
ATOM      1  C   UNL A   1     -26.439  -3.425  29.909  0.00  0.00    +0.000 A 
ATOM      2  C   UNL A   1     -25.537  -2.627  29.802  0.00  0.00    +0.000 A 
ATOM      3  C   UNL A   1     -25.640  -1.301  30.175  0.00  0.00    +0.000 A 
ATOM      4  C   UNL A   1     -24.617  -0.289  29.996  0.00  0.00    +0.000 A 
ATOM      5  C   UNL A   1     -23.391  -0.660  29.401  0.00  0.00    +0.000 A 
ATOM      6  C   UNL A   1     -23.275  -2.037  28.994  0.00  0.00    +0.000 A 
ATOM      7  C   UNL A   1     -24.273  -2.971  29.140  0.00  0.00    +0.000 A 
ATOM      8  C   UNL A   1     -26.126  -4.888  29.650  0.00  0.00    +0.000 A 
ATOM      9  C   UNL A   1     -24.972  -5.243  28.933  0.00  0.00    +0.000 A 
ATOM     10  C   UNL A   1     -23.995  -4.305  28.744  0.00  0.00    +0.000 A 
ENDROOT
TORSDOF 0
ENDMDL
ENDMDL
