MODEL 4056
MODEL 1
REMARK VINA RESULT:    -5.955      0.000      0.000
REMARK INTER + INTRA:          -7.156
REMARK INTER:                  -6.999
REMARK INTRA:                  -0.157
REMARK UNBOUND:                -0.157
REMARK  Name = No_4056-gen_results/8p0m/2024-11-27-11-27-31/
REMARK  3 active torsions:
REMARK  status: ('A' for Active; 'I' for Inactive)
REMARK    1  A    between atoms: C_2  and  C_3
REMARK    2  A    between atoms: N_4  and  C_11
REMARK    3  A    between atoms: C_12  and  C_13
REMARK                            x       y       z     vdW  Elec       q    Type
REMARK                         _______ _______ _______ _____ _____    ______ ____
ROOT
ATOM      1  O   UNL A   1     -23.467   1.830  30.430  0.00  0.00    -0.270 OA
ATOM      2  C   UNL A   1     -23.317   0.974  29.672  0.00  0.00    +0.253 C 
ATOM      3  N   UNL A   1     -23.205  -0.444  30.059  0.00  0.00    -0.252 N 
ATOM      4  C   UNL A   1     -23.236  -0.743  31.478  0.00  0.00    +0.120 C 
ENDROOT
BRANCH   2   5
ATOM      5  C   UNL A   1     -23.372   1.198  28.311  0.00  0.00    +0.054 A 
ATOM      6  C   UNL A   1     -22.264   1.623  27.703  0.00  0.00    +0.004 A 
ATOM      7  C   UNL A   1     -24.587   0.984  27.574  0.00  0.00    +0.004 A 
ATOM      8  C   UNL A   1     -22.335   2.033  26.239  0.00  0.00    +0.000 A 
ATOM      9  C   UNL A   1     -24.638   1.280  26.185  0.00  0.00    +0.000 A 
ATOM     10  C   UNL A   1     -23.519   1.832  25.551  0.00  0.00    +0.000 A 
ENDBRANCH   2   5
BRANCH   3  11
ATOM     11  C   UNL A   1     -23.090  -1.474  29.140  0.00  0.00    +0.077 C 
ATOM     12  C   UNL A   1     -23.607  -2.452  29.260  0.00  0.00    +0.066 C 
BRANCH  12  13
ATOM     13  C   UNL A   1     -23.896  -3.392  28.905  0.00  0.00    -0.049 C 
ATOM     14  C   UNL A   1     -24.208  -4.655  28.496  0.00  0.00    -0.009 C 
ENDBRANCH  12  13
ENDBRANCH   3  11
TORSDOF 3
ENDMDL
ENDMDL
