REMARK  Name = No_4057-gen_results/8p0m/2024-11-27-11-27-31/
REMARK  6 active torsions:
REMARK  status: ('A' for Active; 'I' for Inactive)
REMARK    1  A    between atoms: C_4  and  C_11
REMARK    2  A    between atoms: C_6  and  O_20
REMARK    3  A    between atoms: C_11  and  C_13
REMARK    4  A    between atoms: O_20  and  C_21
REMARK    5  A    between atoms: C_21  and  C_22
REMARK    6  A    between atoms: C_22  and  C_23
REMARK                            x       y       z     vdW  Elec       q    Type
REMARK                         _______ _______ _______ _____ _____    ______ ____
ROOT
ATOM      1  C   UNL A   1     -28.016  -0.814  28.878  0.00  0.00    +0.037 A 
ATOM      2  C   UNL A   1     -27.064  -0.119  28.608  0.00  0.00    +0.003 A 
ATOM      3  C   UNL A   1     -25.792  -0.430  29.076  0.00  0.00    -0.004 A 
ATOM      4  C   UNL A   1     -24.546   0.349  28.823  0.00  0.00    -0.019 A 
ATOM      5  C   UNL A   1     -23.241   0.022  29.332  0.00  0.00    -0.004 A 
ATOM      6  C   UNL A   1     -27.882  -1.899  29.863  0.00  0.00    +0.139 A 
ATOM      7  C   UNL A   1     -26.653  -2.314  30.314  0.00  0.00    +0.037 A 
ATOM      8  C   UNL A   1     -25.515  -1.561  29.979  0.00  0.00    +0.003 A 
ATOM      9  C   UNL A   1     -23.207  -1.229  30.031  0.00  0.00    -0.000 A 
ATOM     10  C   UNL A   1     -24.243  -1.936  30.388  0.00  0.00    +0.000 A 
ENDROOT
BRANCH   4  11
ATOM     11  C   UNL A   1     -24.577   1.565  27.957  0.00  0.00    +0.038 C 
ATOM     12  C   UNL A   1     -24.928   1.456  26.692  0.00  0.00    +0.009 C 
ATOM     13  C   UNL A   1     -23.037   2.086  27.958  0.00  0.00    +0.009 C 
BRANCH  11  14
ATOM     14  C   UNL A   1     -25.348   2.636  28.682  0.00  0.00    -0.019 A 
ATOM     15  C   UNL A   1     -25.557   3.855  28.005  0.00  0.00    -0.004 A 
ATOM     16  C   UNL A   1     -26.224   4.887  28.656  0.00  0.00    -0.000 A 
ATOM     17  C   UNL A   1     -26.496   4.839  29.990  0.00  0.00    -0.000 A 
ATOM     18  C   UNL A   1     -26.147   3.693  30.708  0.00  0.00    -0.000 A 
ATOM     19  C   UNL A   1     -25.530   2.623  30.097  0.00  0.00    -0.004 A 
ENDBRANCH  11  14
ENDBRANCH   4  11
BRANCH   6  20
ATOM     20  O   UNL A   1     -29.009  -2.632  30.164  0.00  0.00    -0.472 OA
BRANCH  20  21
ATOM     21  C   UNL A   1     -28.875  -3.914  30.597  0.00  0.00    +0.240 C 
BRANCH  21  22
ATOM     22  C   UNL A   1     -30.126  -4.590  30.831  0.00  0.00    +0.185 C 
ATOM     23  O   UNL A   1     -30.731  -4.991  29.598  0.00  0.00    -0.217 OA
ATOM     24  C   UNL A   1     -29.848  -6.014  31.567  0.00  0.00    +0.041 C 
BRANCH  22  25
ATOM     25  C   UNL A   1     -30.990  -3.895  31.463  0.00  0.00    +0.009 A 
ATOM     26  C   UNL A   1     -31.985  -3.595  31.306  0.00  0.00    -0.002 A 
ATOM     27  C   UNL A   1     -32.956  -2.752  32.111  0.00  0.00    -0.000 A 
ATOM     28  C   UNL A   1     -32.431  -2.255  33.291  0.00  0.00    -0.000 A 
ATOM     29  C   UNL A   1     -31.139  -2.556  33.654  0.00  0.00    -0.000 A 
ATOM     30  C   UNL A   1     -30.351  -3.328  32.864  0.00  0.00    -0.002 A 
ENDBRANCH  22  25
ENDBRANCH  21  22
ENDBRANCH  20  21
ENDBRANCH   6  20
TORSDOF 6
