MODEL 4057
MODEL 1
REMARK VINA RESULT:    -8.247      0.000      0.000
REMARK INTER + INTRA:         -12.533
REMARK INTER:                 -11.140
REMARK INTRA:                  -1.392
REMARK UNBOUND:                -1.392
REMARK  Name = No_4057-gen_results/8p0m/2024-11-27-11-27-31/
REMARK  6 active torsions:
REMARK  status: ('A' for Active; 'I' for Inactive)
REMARK    1  A    between atoms: C_4  and  C_11
REMARK    2  A    between atoms: C_6  and  O_20
REMARK    3  A    between atoms: C_11  and  C_13
REMARK    4  A    between atoms: O_20  and  C_21
REMARK    5  A    between atoms: C_21  and  C_22
REMARK    6  A    between atoms: C_22  and  C_23
REMARK                            x       y       z     vdW  Elec       q    Type
REMARK                         _______ _______ _______ _____ _____    ______ ____
ROOT
ATOM      1  C   UNL A   1     -26.842  -0.008  26.742  0.00  0.00    +0.037 A 
ATOM      2  C   UNL A   1     -26.101  -0.139  27.689  0.00  0.00    +0.003 A 
ATOM      3  C   UNL A   1     -24.795   0.336  27.649  0.00  0.00    -0.004 A 
ATOM      4  C   UNL A   1     -23.785   0.227  28.741  0.00  0.00    -0.019 A 
ATOM      5  C   UNL A   1     -22.431   0.708  28.675  0.00  0.00    -0.004 A 
ATOM      6  C   UNL A   1     -26.320   0.489  25.459  0.00  0.00    +0.139 A 
ATOM      7  C   UNL A   1     -25.068   1.044  25.358  0.00  0.00    +0.037 A 
ATOM      8  C   UNL A   1     -24.194   0.957  26.455  0.00  0.00    +0.003 A 
ATOM      9  C   UNL A   1     -22.151   1.438  27.473  0.00  0.00    -0.000 A 
ATOM     10  C   UNL A   1     -22.922   1.511  26.424  0.00  0.00    +0.000 A 
ENDROOT
BRANCH   4  11
ATOM     11  C   UNL A   1     -24.148  -0.398  30.047  0.00  0.00    +0.038 C 
ATOM     12  C   UNL A   1     -25.031   0.190  30.828  0.00  0.00    +0.009 C 
ATOM     13  C   UNL A   1     -22.749  -0.415  30.876  0.00  0.00    +0.009 C 
BRANCH  11  14
ATOM     14  C   UNL A   1     -24.468  -1.848  29.800  0.00  0.00    -0.019 A 
ATOM     15  C   UNL A   1     -23.606  -2.565  28.945  0.00  0.00    -0.004 A 
ATOM     16  C   UNL A   1     -23.891  -3.895  28.653  0.00  0.00    -0.000 A 
ATOM     17  C   UNL A   1     -25.081  -4.466  28.990  0.00  0.00    -0.000 A 
ATOM     18  C   UNL A   1     -26.014  -3.709  29.703  0.00  0.00    -0.000 A 
ATOM     19  C   UNL A   1     -25.756  -2.403  30.060  0.00  0.00    -0.004 A 
ENDBRANCH  11  14
ENDBRANCH   4  11
BRANCH   6  20
ATOM     20  O   UNL A   1     -27.200   0.579  24.403  0.00  0.00    -0.472 OA
BRANCH  20  21
ATOM     21  C   UNL A   1     -28.074   1.619  24.349  0.00  0.00    +0.240 C 
BRANCH  21  22
ATOM     22  C   UNL A   1     -29.450   1.241  24.551  0.00  0.00    +0.185 C 
ATOM     23  O   UNL A   1     -29.571  -0.171  24.748  0.00  0.00    -0.217 OA
ATOM     24  C   UNL A   1     -29.979   1.842  25.967  0.00  0.00    +0.041 C 
BRANCH  22  25
ATOM     25  C   UNL A   1     -30.228   1.553  23.588  0.00  0.00    +0.009 A 
ATOM     26  C   UNL A   1     -30.343   2.372  22.940  0.00  0.00    -0.002 A 
ATOM     27  C   UNL A   1     -31.309   2.676  21.810  0.00  0.00    -0.000 A 
ATOM     28  C   UNL A   1     -32.248   1.685  21.586  0.00  0.00    -0.000 A 
ATOM     29  C   UNL A   1     -32.238   0.538  22.345  0.00  0.00    -0.000 A 
ATOM     30  C   UNL A   1     -31.324   0.359  23.331  0.00  0.00    -0.002 A 
ENDBRANCH  22  25
ENDBRANCH  21  22
ENDBRANCH  20  21
ENDBRANCH   6  20
TORSDOF 6
ENDMDL
ENDMDL
