REMARK  Name = outputs/IAG933/test6/raw/output_4059_IAG933_linker_design_.xyz
REMARK  13 active torsions:
REMARK  status: ('A' for Active; 'I' for Inactive)
REMARK    1  A    between atoms: C_1  and  C_2
REMARK    2  A    between atoms: C_1  and  C_8
REMARK    3  A    between atoms: C_1  and  N_42
REMARK    4  A    between atoms: C_13  and  C_36
REMARK    5  A    between atoms: C_14  and  C_15
REMARK    6  A    between atoms: C_21  and  O_22
REMARK    7  A    between atoms: O_22  and  C_23
REMARK    8  A    between atoms: C_23  and  C_24
REMARK    9  A    between atoms: C_29  and  C_41
REMARK   10  A    between atoms: C_29  and  N_42
REMARK   11  A    between atoms: C_34  and  C_41
REMARK   12  A    between atoms: C_34  and  C_44
REMARK   13  A    between atoms: N_42  and  C_46
REMARK                            x       y       z     vdW  Elec       q    Type
REMARK                         _______ _______ _______ _____ _____    ______ ____
ROOT
ATOM      1  N   UNL A   1     -25.593  -0.217  29.021  0.00  0.00    -0.303 N 
ENDROOT
BRANCH   1   9
ATOM      2  F   UNL A   1     -23.122   2.682  25.750  0.00  0.00    -0.200 F 
ATOM      3  F   UNL A   1     -21.017   2.228  27.260  0.00  0.00    -0.181 F 
ATOM      4  C   UNL A   1     -23.377   0.352  29.017  0.00  0.00    +0.116 C 
ATOM      5  C   UNL A   1     -24.563   1.361  27.275  0.00  0.00    +0.049 C 
ATOM      6  C   UNL A   1     -22.146   1.705  27.642  0.00  0.00    +0.250 C 
ATOM      7  N   UNL A   1     -22.182   0.929  28.742  0.00  0.00    -0.213 NA
ATOM      8  C   UNL A   1     -23.290   1.951  26.886  0.00  0.00    +0.187 C 
ATOM      9  C   UNL A   1     -24.634   0.587  28.362  0.00  0.00    +0.070 C 
BRANCH   5  10
ATOM     10  C   UNL A   1     -25.688   1.614  26.461  0.00  0.00    +0.042 C 
ATOM     11  C   UNL A   1     -26.250   2.920  26.395  0.00  0.00    +0.077 C 
ATOM     12  C   UNL A   1     -27.438   3.091  25.645  0.00  0.00    +0.107 C 
ATOM     13  N   UNL A   1     -28.075   2.089  25.003  0.00  0.00    -0.208 NA
ATOM     14  C   UNL A   1     -27.543   0.849  25.079  0.00  0.00    +0.253 C 
ATOM     15  C   UNL A   1     -26.354   0.576  25.777  0.00  0.00    +0.193 C 
ATOM     16  F   UNL A   1     -25.860  -0.681  25.795  0.00  0.00    -0.199 F 
BRANCH  11  17
ATOM     17  C   UNL A   1     -25.642   4.093  27.123  0.00  0.00    +0.266 C 
ATOM     18  N   UNL A   1     -25.614   5.252  26.449  0.00  0.00    -0.200 NA
ATOM     19  C   UNL A   1     -25.026   6.479  26.963  0.00  0.00    +0.139 C 
ATOM     20  O   UNL A   1     -25.143   3.966  28.243  0.00  0.00    -0.268 OA
ENDBRANCH  11  17
BRANCH  14  21
ATOM     21  O   UNL A   1     -28.193  -0.208  24.477  0.00  0.00    -0.456 OA
BRANCH  21  22
ATOM     22  C   UNL A   1     -29.460   0.005  23.866  0.00  0.00    +0.243 C 
BRANCH  22  23
ATOM     23  C   UNL A   1     -30.065  -1.377  23.573  0.00  0.00    +0.229 C 
ATOM     24  O   UNL A   1     -30.729  -1.878  24.721  0.00  0.00    -0.216 OA
ENDBRANCH  22  23
ENDBRANCH  21  22
ENDBRANCH  14  21
ENDBRANCH   5  10
ENDBRANCH   1   9
BRANCH   1  25
ATOM     25  C   UNL A   1     -24.855  -1.012  30.143  0.00  0.00    +0.111 C 
BRANCH  25  26
ATOM     26  C   UNL A   1     -24.973  -2.505  29.788  0.00  0.00    -0.003 C 
ATOM     27  C   UNL A   1     -23.906  -3.173  29.146  0.00  0.00    -0.003 C 
ATOM     28  C   UNL A   1     -23.989  -4.549  28.853  0.00  0.00    -0.000 C 
ATOM     29  C   UNL A   1     -25.137  -5.280  29.205  0.00  0.00    -0.000 C 
ATOM     30  C   UNL A   1     -26.232  -4.611  29.784  0.00  0.00    -0.000 C 
ATOM     31  C   UNL A   1     -26.155  -3.232  30.065  0.00  0.00    -0.003 C 
ENDBRANCH  25  26
BRANCH  25  32
ATOM     32  C   UNL A   1     -25.387  -0.679  31.571  0.00  0.00    +0.095 C 
ATOM     33  C   UNL A   1     -25.189   0.773  32.028  0.00  0.00    +0.021 C 
ATOM     34  C   UNL A   1     -25.336   0.684  33.544  0.00  0.00    +0.020 C 
ATOM     35  C   UNL A   1     -24.829  -0.715  33.905  0.00  0.00    +0.089 C 
ATOM     36  N   UNL A   1     -24.758  -1.481  32.646  0.00  0.00    -0.217 NA
ENDBRANCH  25  32
ENDBRANCH   1  25
BRANCH   1  37
ATOM     37  C   UNL A   1     -27.049  -0.418  28.674  0.00  0.00    +0.091 C 
BRANCH  37  38
ATOM     38  C   UNL A   1     -28.095   0.412  29.439  0.00  0.00    +0.026 C 
BRANCH  38  39
ATOM     39  C   UNL A   1     -28.784   0.395  30.805  0.00  0.00    +0.024 C 
ATOM     40  C   UNL A   1     -29.391  -0.761  31.330  0.00  0.00    +0.005 C 
BRANCH  39  45
ATOM     41  C   UNL A   1     -28.412   4.047  31.618  0.00  0.00    -0.000 C 
ATOM     42  C   UNL A   1     -28.809   2.855  33.718  0.00  0.00    -0.000 C 
ATOM     43  C   UNL A   1     -29.022   1.656  33.029  0.00  0.00    -0.004 C 
ATOM     44  C   UNL A   1     -28.466   4.027  33.031  0.00  0.00    -0.000 C 
ATOM     45  C   UNL A   1     -28.887   1.630  31.620  0.00  0.00    -0.022 C 
ATOM     46  C   UNL A   1     -28.682   2.840  30.925  0.00  0.00    -0.004 C 
ENDBRANCH  39  45
ENDBRANCH  38  39
ENDBRANCH  37  38
ENDBRANCH   1  37
TORSDOF 13
