MODEL 4059
MODEL 1
REMARK VINA RESULT:    -4.832      0.000      0.000
REMARK INTER + INTRA:          -6.559
REMARK INTER:                  -6.245
REMARK INTRA:                  -0.314
REMARK UNBOUND:                -0.314
REMARK  Name = No_4059-gen_results/8p0m/2024-11-27-11-27-31/
REMARK  5 active torsions:
REMARK  status: ('A' for Active; 'I' for Inactive)
REMARK    1  A    between atoms: C_1  and  C_2
REMARK    2  A    between atoms: C_1  and  N_8
REMARK    3  A    between atoms: C_5  and  C_9
REMARK    4  A    between atoms: N_8  and  C_11
REMARK    5  A    between atoms: C_11  and  C_13
REMARK                            x       y       z     vdW  Elec       q    Type
REMARK                         _______ _______ _______ _____ _____    ______ ____
ROOT
ATOM      1  C   UNL A   1     -23.288   0.778  27.605  0.00  0.00    -0.005 A 
ATOM      2  C   UNL A   1     -22.601   0.092  28.605  0.00  0.00    -0.003 A 
ATOM      3  C   UNL A   1     -22.928  -1.234  29.165  0.00  0.00    -0.003 A 
ATOM      4  C   UNL A   1     -24.193  -1.775  28.780  0.00  0.00    -0.007 A 
ATOM      5  C   UNL A   1     -24.938  -1.096  27.811  0.00  0.00    -0.003 A 
ATOM      6  C   UNL A   1     -24.550   0.080  27.269  0.00  0.00    -0.003 A 
ENDROOT
BRANCH   4   7
ATOM      7  C   UNL A   1     -24.547  -3.033  29.381  0.00  0.00    +0.102 C 
ATOM      8 CL   UNL A   1     -26.005  -3.328  29.870  0.00  0.00    -0.110 Cl
ATOM      9  C   UNL A   1     -24.001  -4.314  28.601  0.00  0.00    +0.022 C 
ENDBRANCH   4   7
BRANCH   1  10
ATOM     10  C   UNL A   1     -22.955   1.862  27.187  0.00  0.00    +0.115 C 
BRANCH  10  11
ATOM     11  N   UNL A   1     -23.511   2.309  25.969  0.00  0.00    -0.212 NA
BRANCH  11  12
ATOM     12  C   UNL A   1     -24.171   3.509  25.851  0.00  0.00    +0.110 C 
BRANCH  12  13
ATOM     13  C   UNL A   1     -24.881   3.995  27.014  0.00  0.00    +0.128 C 
ATOM     14  N   UNL A   1     -24.865   5.405  26.904  0.00  0.00    -0.130 NA
ENDBRANCH  12  13
ENDBRANCH  11  12
ENDBRANCH  10  11
ENDBRANCH   1  10
TORSDOF 5
ENDMDL
ENDMDL
