MODEL 405
MODEL 1
REMARK VINA RESULT:    -8.565      0.000      0.000
REMARK INTER + INTRA:         -15.181
REMARK INTER:                 -12.570
REMARK INTRA:                  -2.611
REMARK UNBOUND:                -2.611
REMARK  Name = No_405-gen_results/8p0m/2024-11-27-11-27-31/
REMARK  8 active torsions:
REMARK  status: ('A' for Active; 'I' for Inactive)
REMARK    1  A    between atoms: C_1  and  C_2
REMARK    2  A    between atoms: C_1  and  C_8
REMARK    3  A    between atoms: C_5  and  C_10
REMARK    4  A    between atoms: C_8  and  C_9
REMARK    5  A    between atoms: C_8  and  C_18
REMARK    6  A    between atoms: C_18  and  C_19
REMARK    7  A    between atoms: C_18  and  C_25
REMARK    8  A    between atoms: C_26  and  C_27
REMARK                            x       y       z     vdW  Elec       q    Type
REMARK                         _______ _______ _______ _____ _____    ______ ____
ROOT
ATOM      1  C   UNL A   1     -24.115  -0.320  30.108  0.00  0.00    +0.035 C 
ENDROOT
BRANCH   1   2
ATOM      2  C   UNL A   1     -23.035   0.099  29.252  0.00  0.00    -0.021 A 
ATOM      3  C   UNL A   1     -21.944  -0.589  29.303  0.00  0.00    -0.004 A 
ATOM      4  C   UNL A   1     -20.884  -0.041  28.463  0.00  0.00    -0.000 A 
ATOM      5  C   UNL A   1     -21.043   1.034  27.745  0.00  0.00    -0.000 A 
ATOM      6  C   UNL A   1     -22.203   1.737  27.718  0.00  0.00    -0.000 A 
ATOM      7  C   UNL A   1     -23.265   1.307  28.507  0.00  0.00    -0.004 A 
ENDBRANCH   1   2
BRANCH   1   8
ATOM      8  C   UNL A   1     -24.670   0.638  31.114  0.00  0.00    +0.031 C 
BRANCH   8   9
ATOM      9  C   UNL A   1     -24.823   0.195  32.229  0.00  0.00    -0.022 A 
ATOM     10  C   UNL A   1     -25.795   0.642  33.102  0.00  0.00    -0.004 A 
ATOM     11  C   UNL A   1     -25.970   0.199  34.473  0.00  0.00    +0.006 A 
ATOM     12  C   UNL A   1     -25.094  -0.782  34.987  0.00  0.00    +0.080 A 
ATOM     13  C   UNL A   1     -24.066  -1.247  34.090  0.00  0.00    +0.006 A 
ATOM     14  C   UNL A   1     -23.896  -0.785  32.807  0.00  0.00    -0.004 A 
BRANCH  12  15
ATOM     15  C   UNL A   1     -25.194  -1.270  36.329  0.00  0.00    +0.388 C 
ATOM     16  O   UNL A   1     -25.922  -2.205  36.587  0.00  0.00    -0.241 OA
ATOM     17  O   UNL A   1     -24.329  -0.803  37.219  0.00  0.00    -0.241 OA
ENDBRANCH  12  15
ENDBRANCH   8   9
ENDBRANCH   1   8
BRANCH   1  18
ATOM     18  C   UNL A   1     -25.183  -1.124  29.325  0.00  0.00    +0.049 C 
BRANCH  18  19
ATOM     19  C   UNL A   1     -25.212  -2.469  29.408  0.00  0.00    -0.018 A 
ATOM     20  C   UNL A   1     -26.114  -3.245  29.691  0.00  0.00    -0.004 A 
ATOM     21  C   UNL A   1     -26.070  -4.642  29.718  0.00  0.00    -0.000 A 
ATOM     22  C   UNL A   1     -24.140  -3.096  28.624  0.00  0.00    -0.004 A 
ATOM     23  C   UNL A   1     -24.018  -4.493  28.572  0.00  0.00    -0.000 A 
ATOM     24  C   UNL A   1     -25.035  -5.268  29.068  0.00  0.00    -0.000 A 
ENDBRANCH  18  19
BRANCH  18  25
ATOM     25  C   UNL A   1     -25.903  -0.250  28.347  0.00  0.00    -0.022 C 
ATOM     26  C   UNL A   1     -26.068  -0.392  27.143  0.00  0.00    -0.005 C 
BRANCH  26  27
ATOM     27  C   UNL A   1     -26.741   0.453  26.271  0.00  0.00    -0.005 C 
ATOM     28  C   UNL A   1     -26.183   0.717  25.006  0.00  0.00    -0.026 C 
ATOM     29  C   UNL A   1     -24.938   0.096  24.686  0.00  0.00    +0.031 C 
ENDBRANCH  26  27
ENDBRANCH  18  25
ENDBRANCH   1  18
TORSDOF 8
ENDMDL
ENDMDL
