MODEL 4060
MODEL 1
REMARK VINA RESULT:    -6.361      0.000      0.000
REMARK INTER + INTRA:          -7.572
REMARK INTER:                  -7.104
REMARK INTRA:                  -0.468
REMARK UNBOUND:                -0.468
REMARK  Name = No_4060-gen_results/8p0m/2024-11-27-11-27-31/
REMARK  2 active torsions:
REMARK  status: ('A' for Active; 'I' for Inactive)
REMARK    1  A    between atoms: C_2  and  C_7
REMARK    2  A    between atoms: C_4  and  C_11
REMARK                            x       y       z     vdW  Elec       q    Type
REMARK                         _______ _______ _______ _____ _____    ______ ____
ROOT
ATOM      1  C   UNL A   1     -22.740   0.852  27.679  0.00  0.00    +0.036 A 
ATOM      2  C   UNL A   1     -23.065  -0.016  28.179  0.00  0.00    +0.082 A 
ATOM      3  C   UNL A   1     -23.689   1.393  26.633  0.00  0.00    +0.140 A 
ATOM      4  C   UNL A   1     -24.968   0.814  26.494  0.00  0.00    +0.028 A 
ATOM      5  C   UNL A   1     -24.332  -0.780  28.247  0.00  0.00    +0.007 A 
ATOM      6  C   UNL A   1     -25.232  -0.307  27.303  0.00  0.00    +0.002 A 
ATOM      7  F   UNL A   1     -23.447   2.440  25.876  0.00  0.00    -0.204 F 
ENDROOT
BRANCH   4   8
ATOM      8  C   UNL A   1     -25.721   1.338  25.406  0.00  0.00    +0.002 A 
ATOM      9  C   UNL A   1     -26.584   2.539  25.719  0.00  0.00    -0.000 A 
ATOM     10  C   UNL A   1     -27.829   2.670  25.044  0.00  0.00    -0.004 A 
ATOM     11  C   UNL A   1     -28.149   1.882  23.963  0.00  0.00    -0.022 A 
ATOM     12  C   UNL A   1     -29.382   2.155  23.386  0.00  0.00    +0.031 C 
ATOM     13  C   UNL A   1     -26.496   0.374  24.651  0.00  0.00    -0.000 A 
ATOM     14  C   UNL A   1     -27.589   0.806  23.873  0.00  0.00    -0.004 A 
ENDBRANCH   4   8
BRANCH   2  15
ATOM     15  C   UNL A   1     -22.083  -0.606  29.305  0.00  0.00    +0.388 C 
ATOM     16  O   UNL A   1     -22.338  -0.324  30.532  0.00  0.00    -0.241 OA
ATOM     17  O   UNL A   1     -20.953  -1.008  28.919  0.00  0.00    -0.241 OA
ENDBRANCH   2  15
TORSDOF 2
ENDMDL
ENDMDL
