REMARK  Name = No_4060-gen_results/8p0m/2024-11-27-11-27-31/
REMARK  2 active torsions:
REMARK  status: ('A' for Active; 'I' for Inactive)
REMARK    1  A    between atoms: C_2  and  C_7
REMARK    2  A    between atoms: C_4  and  C_11
REMARK                            x       y       z     vdW  Elec       q    Type
REMARK                         _______ _______ _______ _____ _____    ______ ____
ROOT
ATOM      1  C   UNL A   1     -28.016  -0.814  28.878  0.00  0.00    +0.036 A 
ATOM      2  C   UNL A   1     -28.469  -0.785  29.829  0.00  0.00    +0.082 A 
ATOM      3  C   UNL A   1     -26.504  -0.778  28.877  0.00  0.00    +0.140 A 
ATOM      4  C   UNL A   1     -25.810  -0.853  30.103  0.00  0.00    +0.028 A 
ATOM      5  C   UNL A   1     -27.991  -0.892  31.226  0.00  0.00    +0.007 A 
ATOM      6  C   UNL A   1     -26.604  -0.868  31.265  0.00  0.00    +0.002 A 
ATOM      7  F   UNL A   1     -25.759  -0.765  27.795  0.00  0.00    -0.204 F 
ENDROOT
BRANCH   4   8
ATOM      8  C   UNL A   1     -24.401  -0.699  29.976  0.00  0.00    +0.002 A 
ATOM      9  C   UNL A   1     -23.859   0.681  30.272  0.00  0.00    -0.000 A 
ATOM     10  C   UNL A   1     -22.742   1.142  29.522  0.00  0.00    -0.004 A 
ATOM     11  C   UNL A   1     -22.008   0.294  28.726  0.00  0.00    -0.022 A 
ATOM     12  C   UNL A   1     -20.924   0.882  28.089  0.00  0.00    +0.031 C 
ATOM     13  C   UNL A   1     -23.820  -1.188  28.741  0.00  0.00    -0.000 A 
ATOM     14  C   UNL A   1     -22.566  -0.706  28.316  0.00  0.00    -0.004 A 
ENDBRANCH   4   8
BRANCH   2  15
ATOM     15  C   UNL A   1     -30.074  -0.836  29.861  0.00  0.00    +0.388 C 
ATOM     16  O   UNL A   1     -30.683  -0.070  30.692  0.00  0.00    -0.241 OA
ATOM     17  O   UNL A   1     -30.620  -1.843  29.335  0.00  0.00    -0.241 OA
ENDBRANCH   2  15
TORSDOF 2
