MODEL 4061
MODEL 1
REMARK VINA RESULT:    -6.749      0.000      0.000
REMARK INTER + INTRA:          -8.089
REMARK INTER:                  -7.538
REMARK INTRA:                  -0.551
REMARK UNBOUND:                -0.551
REMARK  Name = No_4061-gen_results/8p0m/2024-11-27-11-27-31/
REMARK  2 active torsions:
REMARK  status: ('A' for Active; 'I' for Inactive)
REMARK    1  A    between atoms: C_4  and  C_11
REMARK    2  A    between atoms: C_11  and  C_12
REMARK                            x       y       z     vdW  Elec       q    Type
REMARK                         _______ _______ _______ _____ _____    ______ ____
ROOT
ATOM      1  C   UNL A   1     -26.066   0.197  26.436  0.00  0.00    -0.000 A 
ATOM      2  C   UNL A   1     -25.466  -0.384  27.309  0.00  0.00    -0.000 A 
ATOM      3  C   UNL A   1     -24.169  -0.056  27.704  0.00  0.00    -0.004 A 
ATOM      4  C   UNL A   1     -23.360  -0.716  28.747  0.00  0.00    -0.018 A 
ATOM      5  C   UNL A   1     -22.006  -0.375  29.101  0.00  0.00    -0.004 A 
ATOM      6  C   UNL A   1     -21.530   0.807  28.524  0.00  0.00    -0.000 A 
ATOM      7  C   UNL A   1     -25.307   1.218  25.637  0.00  0.00    -0.000 A 
ATOM      8  C   UNL A   1     -24.061   1.667  26.010  0.00  0.00    -0.000 A 
ATOM      9  C   UNL A   1     -23.396   1.027  27.040  0.00  0.00    -0.000 A 
ATOM     10  C   UNL A   1     -22.136   1.447  27.464  0.00  0.00    -0.000 A 
ENDROOT
BRANCH   4  11
ATOM     11  C   UNL A   1     -23.924  -1.875  29.511  0.00  0.00    +0.044 C 
ATOM     12  C   UNL A   1     -24.420  -1.615  30.764  0.00  0.00    +0.009 C 
BRANCH  11  13
ATOM     13  C   UNL A   1     -23.842  -3.039  28.977  0.00  0.00    -0.027 C 
ATOM     14  C   UNL A   1     -24.642  -4.008  29.433  0.00  0.00    -0.030 C 
ATOM     15  C   UNL A   1     -24.690  -5.364  28.827  0.00  0.00    +0.030 C 
ENDBRANCH  11  13
ENDBRANCH   4  11
TORSDOF 2
ENDMDL
ENDMDL
