MODEL 4062
MODEL 1
REMARK VINA RESULT:    -8.250      0.000      0.000
REMARK INTER + INTRA:         -13.095
REMARK INTER:                 -11.144
REMARK INTRA:                  -1.951
REMARK UNBOUND:                -1.951
REMARK  Name = No_4062-gen_results/8p0m/2024-11-27-11-27-31/
REMARK  6 active torsions:
REMARK  status: ('A' for Active; 'I' for Inactive)
REMARK    1  A    between atoms: C_2  and  C_12
REMARK    2  A    between atoms: C_4  and  N_7
REMARK    3  A    between atoms: N_14  and  C_15
REMARK    4  A    between atoms: C_18  and  C_19
REMARK    5  A    between atoms: C_22  and  C_32
REMARK    6  A    between atoms: C_24  and  C_27
REMARK                            x       y       z     vdW  Elec       q    Type
REMARK                         _______ _______ _______ _____ _____    ______ ____
ROOT
ATOM      1  C   UNL A   1     -28.553   1.022  24.097  0.00  0.00    +0.074 A 
ATOM      2  C   UNL A   1     -27.484   0.427  23.791  0.00  0.00    +0.017 A 
ATOM      3  C   UNL A   1     -26.268   0.242  24.547  0.00  0.00    +0.001 A 
ATOM      4  C   UNL A   1     -26.290   0.904  25.805  0.00  0.00    +0.000 A 
ATOM      5  C   UNL A   1     -27.414   1.622  26.186  0.00  0.00    +0.001 A 
ATOM      6  C   UNL A   1     -28.521   1.662  25.395  0.00  0.00    +0.017 A 
ENDROOT
BRANCH   4   7
ATOM      7  C   UNL A   1     -25.177   0.796  26.605  0.00  0.00    -0.000 A 
ATOM      8  C   UNL A   1     -24.251   1.235  26.883  0.00  0.00    -0.004 A 
ATOM      9  C   UNL A   1     -23.209   0.909  27.826  0.00  0.00    +0.006 A 
ATOM     10  C   UNL A   1     -23.401  -0.299  28.492  0.00  0.00    +0.080 A 
ATOM     11  C   UNL A   1     -24.490  -1.035  28.271  0.00  0.00    +0.007 A 
ATOM     12  C   UNL A   1     -25.475  -0.665  27.386  0.00  0.00    +0.000 A 
BRANCH   8  13
ATOM     13  C   UNL A   1     -23.961   2.588  26.199  0.00  0.00    -0.026 C 
ATOM     14  C   UNL A   1     -24.422   3.551  26.416  0.00  0.00    -0.030 C 
ATOM     15  C   UNL A   1     -24.067   4.822  25.803  0.00  0.00    +0.030 C 
ATOM     16  C   UNL A   1     -22.889   2.511  25.200  0.00  0.00    +0.031 C 
ENDBRANCH   8  13
BRANCH  10  17
ATOM     17  C   UNL A   1     -22.348  -0.697  29.475  0.00  0.00    +0.388 C 
ATOM     18  O   UNL A   1     -22.538  -0.625  30.674  0.00  0.00    -0.241 OA
ATOM     19  O   UNL A   1     -21.247  -1.149  28.987  0.00  0.00    -0.241 OA
ENDBRANCH  10  17
ENDBRANCH   4   7
BRANCH   1  22
ATOM     20  C   UNL A   1     -30.754   0.695  23.669  0.00  0.00    +0.269 C 
ATOM     21  O   UNL A   1     -31.034  -0.056  24.495  0.00  0.00    -0.268 OA
ATOM     22  N   UNL A   1     -29.457   1.022  23.425  0.00  0.00    -0.175 NA
BRANCH  20  24
ATOM     23  C   UNL A   1     -32.517   0.561  22.229  0.00  0.00    +0.017 A 
ATOM     24  C   UNL A   1     -31.729   1.213  22.485  0.00  0.00    +0.056 A 
ATOM     25  C   UNL A   1     -33.452   1.063  21.152  0.00  0.00    +0.074 A 
ATOM     26  C   UNL A   1     -33.145   2.262  20.474  0.00  0.00    +0.075 A 
ATOM     27  C   UNL A   1     -31.178   2.468  21.926  0.00  0.00    +0.006 A 
ATOM     28  C   UNL A   1     -32.008   2.957  20.927  0.00  0.00    +0.018 A 
ATOM     29 CL   UNL A   1     -34.851   0.194  20.742  0.00  0.00    -0.081 Cl
BRANCH  26  30
ATOM     30  N   UNL A   1     -33.949   2.750  19.539  0.00  0.00    -0.295 N 
ATOM     31  C   UNL A   1     -33.916   2.631  18.328  0.00  0.00    +0.081 A 
ATOM     32  C   UNL A   1     -35.048   3.067  17.474  0.00  0.00    +0.021 A 
ATOM     33  C   UNL A   1     -35.179   3.524  19.862  0.00  0.00    +0.123 A 
ATOM     34  C   UNL A   1     -35.852   3.558  18.533  0.00  0.00    +0.031 A 
ATOM     35 CL   UNL A   1     -35.829   3.938  21.289  0.00  0.00    -0.063 Cl
ENDBRANCH  26  30
ENDBRANCH  20  24
ENDBRANCH   1  22
TORSDOF 6
ENDMDL
ENDMDL
