REMARK  Name = outputs/IAG933/test6/raw/output_4063_IAG933_linker_design_.xyz
REMARK  12 active torsions:
REMARK  status: ('A' for Active; 'I' for Inactive)
REMARK    1  A    between atoms: C_1  and  C_2
REMARK    2  A    between atoms: C_1  and  C_8
REMARK    3  A    between atoms: C_1  and  N_44
REMARK    4  A    between atoms: C_13  and  N_40
REMARK    5  A    between atoms: C_14  and  C_15
REMARK    6  A    between atoms: C_21  and  O_22
REMARK    7  A    between atoms: O_22  and  C_23
REMARK    8  A    between atoms: C_23  and  C_24
REMARK    9  A    between atoms: C_32  and  N_40
REMARK   10  A    between atoms: C_32  and  C_42
REMARK   11  A    between atoms: C_33  and  C_42
REMARK   12  A    between atoms: N_36  and  C_39
REMARK                            x       y       z     vdW  Elec       q    Type
REMARK                         _______ _______ _______ _____ _____    ______ ____
ROOT
ATOM      1  C   UNL A   1     -26.008   0.586  28.512  0.00  0.00    +0.427 C 
ATOM      2  N   UNL A   1     -27.386   0.836  28.395  0.00  0.00    -0.069 NA
ATOM      3  N   UNL A   1     -25.078   1.252  27.724  0.00  0.00    -0.228 N 
ATOM      4  N   UNL A   1     -25.742  -0.185  29.422  0.00  0.00    -0.092 NA
ENDROOT
BRANCH   2  12
ATOM      5  C   UNL A   1     -29.655  -1.376  30.136  0.00  0.00    +0.180 C 
ATOM      6  C   UNL A   1     -30.479   1.647  29.468  0.00  0.00    -0.005 C 
ATOM      7  C   UNL A   1     -28.698  -0.946  29.198  0.00  0.00    +0.075 C 
ATOM      8  C   UNL A   1     -30.695   0.926  30.636  0.00  0.00    -0.036 C 
ATOM      9  C   UNL A   1     -31.436   1.550  31.773  0.00  0.00    +0.027 C 
ATOM     10  C   UNL A   1     -29.643   1.203  28.396  0.00  0.00    +0.037 C 
ATOM     11  C   UNL A   1     -30.432  -0.416  30.853  0.00  0.00    +0.091 C 
ATOM     12  C   UNL A   1     -28.553   0.304  28.665  0.00  0.00    +0.162 C 
ATOM     13  O   UNL A   1     -29.909  -2.665  30.347  0.00  0.00    -0.291 OA
ENDBRANCH   2  12
BRANCH   3  14
ATOM     14  C   UNL A   1     -25.688   1.614  26.461  0.00  0.00    +0.212 C 
ATOM     15  C   UNL A   1     -26.250   2.920  26.395  0.00  0.00    +0.091 C 
ATOM     16  C   UNL A   1     -27.438   3.091  25.645  0.00  0.00    +0.105 C 
ATOM     17  N   UNL A   1     -28.075   2.089  25.003  0.00  0.00    -0.212 NA
ATOM     18  C   UNL A   1     -27.543   0.849  25.079  0.00  0.00    +0.238 C 
ATOM     19  C   UNL A   1     -26.354   0.576  25.777  0.00  0.00    +0.276 C 
ATOM     20  F   UNL A   1     -25.860  -0.681  25.795  0.00  0.00    -0.223 F 
BRANCH  15  21
ATOM     21  C   UNL A   1     -25.642   4.093  27.123  0.00  0.00    +0.266 C 
ATOM     22  N   UNL A   1     -25.614   5.252  26.449  0.00  0.00    -0.200 NA
ATOM     23  C   UNL A   1     -25.026   6.479  26.963  0.00  0.00    +0.139 C 
ATOM     24  O   UNL A   1     -25.143   3.966  28.243  0.00  0.00    -0.269 OA
ENDBRANCH  15  21
BRANCH  18  25
ATOM     25  O   UNL A   1     -28.193  -0.208  24.477  0.00  0.00    -0.458 OA
BRANCH  25  26
ATOM     26  C   UNL A   1     -29.460   0.005  23.866  0.00  0.00    +0.242 C 
BRANCH  26  27
ATOM     27  C   UNL A   1     -30.065  -1.377  23.573  0.00  0.00    +0.229 C 
ATOM     28  O   UNL A   1     -30.729  -1.878  24.721  0.00  0.00    -0.216 OA
ENDBRANCH  26  27
ENDBRANCH  25  26
ENDBRANCH  18  25
ENDBRANCH   3  14
BRANCH   4  29
ATOM     29  C   UNL A   1     -24.855  -1.012  30.143  0.00  0.00    +0.219 C 
BRANCH  29  30
ATOM     30  C   UNL A   1     -24.973  -2.505  29.788  0.00  0.00    +0.018 C 
ATOM     31  C   UNL A   1     -23.906  -3.173  29.146  0.00  0.00    -0.001 C 
ATOM     32  C   UNL A   1     -23.989  -4.549  28.853  0.00  0.00    -0.000 C 
ATOM     33  C   UNL A   1     -25.137  -5.280  29.205  0.00  0.00    -0.000 C 
ATOM     34  C   UNL A   1     -26.232  -4.611  29.784  0.00  0.00    -0.000 C 
ATOM     35  C   UNL A   1     -26.155  -3.232  30.065  0.00  0.00    -0.001 C 
ENDBRANCH  29  30
BRANCH  29  36
ATOM     36  C   UNL A   1     -25.387  -0.679  31.571  0.00  0.00    +0.117 C 
ATOM     37  C   UNL A   1     -25.189   0.773  32.028  0.00  0.00    +0.023 C 
ATOM     38  C   UNL A   1     -25.336   0.684  33.544  0.00  0.00    +0.020 C 
ATOM     39  C   UNL A   1     -24.829  -0.715  33.905  0.00  0.00    +0.089 C 
ATOM     40  N   UNL A   1     -24.758  -1.481  32.646  0.00  0.00    -0.216 NA
ENDBRANCH  29  36
ENDBRANCH   4  29
BRANCH   3  41
ATOM     41  C   UNL A   1     -23.726   0.701  27.607  0.00  0.00    +0.178 C 
BRANCH  41  42
ATOM     42  C   UNL A   1     -23.076   0.980  28.938  0.00  0.00    +0.043 C 
BRANCH  42  43
ATOM     43  C   UNL A   1     -21.704   0.334  28.883  0.00  0.00    +0.004 C 
ATOM     44  C   UNL A   1     -20.998   0.988  27.688  0.00  0.00    +0.000 C 
ENDBRANCH  42  43
ENDBRANCH  41  42
ENDBRANCH   3  41
TORSDOF 12
