REMARK  Name = outputs/IAG933/test6/raw/output_4064_IAG933_linker_design_.xyz
REMARK  18 active torsions:
REMARK  status: ('A' for Active; 'I' for Inactive)
REMARK    1  A    between atoms: C_1  and  C_2
REMARK    2  A    between atoms: C_1  and  C_8
REMARK    3  A    between atoms: C_1  and  C_35
REMARK    4  A    between atoms: C_13  and  C_39
REMARK    5  A    between atoms: C_14  and  C_15
REMARK    6  A    between atoms: C_21  and  O_22
REMARK    7  A    between atoms: O_22  and  C_23
REMARK    8  A    between atoms: C_23  and  C_24
REMARK    9  A    between atoms: N_28  and  C_36
REMARK   10  A    between atoms: N_28  and  C_41
REMARK   11  A    between atoms: N_31  and  C_35
REMARK   12  A    between atoms: N_31  and  O_37
REMARK   13  A    between atoms: N_31  and  C_39
REMARK   14  A    between atoms: C_33  and  C_38
REMARK   15  A    between atoms: C_33  and  C_39
REMARK   16  A    between atoms: C_34  and  O_40
REMARK   17  A    between atoms: C_36  and  O_37
REMARK   18  A    between atoms: O_40  and  C_41
REMARK                            x       y       z     vdW  Elec       q    Type
REMARK                         _______ _______ _______ _____ _____    ______ ____
ROOT
ATOM      1  N   UNL A   1     -24.732   1.001  28.789  0.00  0.00    -0.158 NA
ENDROOT
BRANCH   1   2
ATOM      2  C   UNL A   1     -25.667  -0.077  29.198  0.00  0.00    +0.107 C 
BRANCH   2   3
ATOM      3  C   UNL A   1     -24.855  -1.012  30.143  0.00  0.00    +0.057 C 
BRANCH   3   4
ATOM      4  C   UNL A   1     -24.973  -2.505  29.788  0.00  0.00    -0.020 C 
ATOM      5  C   UNL A   1     -23.906  -3.173  29.146  0.00  0.00    -0.004 C 
ATOM      6  C   UNL A   1     -23.989  -4.549  28.853  0.00  0.00    -0.000 C 
ATOM      7  C   UNL A   1     -25.137  -5.280  29.205  0.00  0.00    -0.000 C 
ATOM      8  C   UNL A   1     -26.232  -4.611  29.784  0.00  0.00    -0.000 C 
ATOM      9  C   UNL A   1     -26.155  -3.232  30.065  0.00  0.00    -0.004 C 
ENDBRANCH   3   4
BRANCH   3  10
ATOM     10  C   UNL A   1     -25.387  -0.679  31.571  0.00  0.00    +0.078 C 
ATOM     11  C   UNL A   1     -25.189   0.773  32.028  0.00  0.00    +0.019 C 
ATOM     12  C   UNL A   1     -25.336   0.684  33.544  0.00  0.00    +0.020 C 
ATOM     13  C   UNL A   1     -24.829  -0.715  33.905  0.00  0.00    +0.089 C 
ATOM     14  N   UNL A   1     -24.758  -1.481  32.646  0.00  0.00    -0.219 NA
ENDBRANCH   3  10
ENDBRANCH   2   3
ENDBRANCH   1   2
BRANCH   1  15
ATOM     15  O   UNL A   1     -24.346   2.171  29.486  0.00  0.00    -0.262 OA
BRANCH  15  16
ATOM     16  C   UNL A   1     -25.192   2.942  30.196  0.00  0.00    +0.259 C 
BRANCH  16  17
ATOM     17  N   UNL A   1     -26.050   3.483  30.869  0.00  0.00    -0.156 NA
BRANCH  17  18
ATOM     18  C   UNL A   1     -26.850   4.665  31.199  0.00  0.00    +0.239 C 
BRANCH  18  19
ATOM     19  O   UNL A   1     -25.975   5.497  32.107  0.00  0.00    -0.306 OA
BRANCH  19  21
ATOM     20  O   UNL A   1     -25.932   7.099  30.560  0.00  0.00    -0.184 OA
ATOM     21  C   UNL A   1     -25.234   6.266  31.407  0.00  0.00    +0.330 C 
ENDBRANCH  19  21
ENDBRANCH  18  19
ENDBRANCH  17  18
ENDBRANCH  16  17
ENDBRANCH  15  16
ENDBRANCH   1  15
BRANCH   1  22
ATOM     22  C   UNL A   1     -24.490   1.162  27.305  0.00  0.00    +0.152 C 
BRANCH  22  23
ATOM     23  C   UNL A   1     -25.688   1.614  26.461  0.00  0.00    +0.036 C 
ATOM     24  C   UNL A   1     -26.250   2.920  26.395  0.00  0.00    +0.074 C 
ATOM     25  C   UNL A   1     -27.438   3.091  25.645  0.00  0.00    +0.106 C 
ATOM     26  N   UNL A   1     -28.075   2.089  25.003  0.00  0.00    -0.208 NA
ATOM     27  C   UNL A   1     -27.543   0.849  25.079  0.00  0.00    +0.253 C 
ATOM     28  C   UNL A   1     -26.354   0.576  25.777  0.00  0.00    +0.191 C 
ATOM     29  F   UNL A   1     -25.860  -0.681  25.795  0.00  0.00    -0.200 F 
BRANCH  24  30
ATOM     30  C   UNL A   1     -25.642   4.093  27.123  0.00  0.00    +0.266 C 
ATOM     31  N   UNL A   1     -25.614   5.252  26.449  0.00  0.00    -0.200 NA
ATOM     32  C   UNL A   1     -25.026   6.479  26.963  0.00  0.00    +0.139 C 
ATOM     33  O   UNL A   1     -25.143   3.966  28.243  0.00  0.00    -0.268 OA
ENDBRANCH  24  30
BRANCH  27  34
ATOM     34  O   UNL A   1     -28.193  -0.208  24.477  0.00  0.00    -0.456 OA
BRANCH  34  35
ATOM     35  C   UNL A   1     -29.460   0.005  23.866  0.00  0.00    +0.243 C 
BRANCH  35  36
ATOM     36  C   UNL A   1     -30.065  -1.377  23.573  0.00  0.00    +0.229 C 
ATOM     37  O   UNL A   1     -30.729  -1.878  24.721  0.00  0.00    -0.216 OA
ENDBRANCH  35  36
ENDBRANCH  34  35
ENDBRANCH  27  34
ENDBRANCH  22  23
BRANCH  22  39
ATOM     38  O   UNL A   1     -22.687   2.196  25.976  0.00  0.00    -0.207 OA
ATOM     39  C   UNL A   1     -23.202   2.010  27.245  0.00  0.00    +0.293 C 
BRANCH  39  41
ATOM     40  N   UNL A   1     -22.279   0.184  28.977  0.00  0.00    +0.202 NA
ATOM     41  C   UNL A   1     -22.104   1.210  27.913  0.00  0.00    +0.485 C 
ATOM     42  N   UNL A   1     -20.852   1.773  27.765  0.00  0.00    +0.202 NA
ENDBRANCH  39  41
ENDBRANCH  22  39
ENDBRANCH   1  22
TORSDOF 18
