REMARK  Name = outputs/IAG933/test6/raw/output_4066_IAG933_linker_design_.xyz
REMARK  10 active torsions:
REMARK  status: ('A' for Active; 'I' for Inactive)
REMARK    1  A    between atoms: C_1  and  C_2
REMARK    2  A    between atoms: C_13  and  C_40
REMARK    3  A    between atoms: C_14  and  C_15
REMARK    4  A    between atoms: C_21  and  O_22
REMARK    5  A    between atoms: O_22  and  C_23
REMARK    6  A    between atoms: C_23  and  C_24
REMARK    7  A    between atoms: C_28  and  N_39
REMARK    8  A    between atoms: C_29  and  N_42
REMARK    9  A    between atoms: C_34  and  O_41
REMARK   10  A    between atoms: C_36  and  O_41
REMARK                            x       y       z     vdW  Elec       q    Type
REMARK                         _______ _______ _______ _____ _____    ______ ____
ROOT
ATOM      1  C   UNL A   1     -23.346   0.396  28.753  0.00  0.00    +0.080 C 
ATOM      2  C   UNL A   1     -22.007   0.124  28.948  0.00  0.00    +0.023 C 
ATOM      3  C   UNL A   1     -21.287   0.956  27.994  0.00  0.00    +0.036 C 
ATOM      4  C   UNL A   1     -23.462   1.959  25.464  0.00  0.00    +0.165 C 
ATOM      5  C   UNL A   1     -23.445   1.042  27.494  0.00  0.00    -0.008 C 
ATOM      6  O   UNL A   1     -22.109   2.052  25.806  0.00  0.00    -0.348 OA
ATOM      7  C   UNL A   1     -24.246   1.526  26.509  0.00  0.00    -0.012 C 
ATOM      8  C   UNL A   1     -22.202   1.376  27.040  0.00  0.00    +0.135 C 
ENDROOT
BRANCH   1  16
ATOM      9  C   UNL A   1     -24.855  -1.012  30.143  0.00  0.00    +0.098 C 
ATOM     10  C   UNL A   1     -25.387  -0.679  31.571  0.00  0.00    +0.095 C 
ATOM     11  C   UNL A   1     -25.189   0.773  32.028  0.00  0.00    +0.055 C 
ATOM     12  C   UNL A   1     -25.336   0.684  33.544  0.00  0.00    +0.023 C 
ATOM     13  C   UNL A   1     -24.829  -0.715  33.905  0.00  0.00    +0.089 C 
ATOM     14  N   UNL A   1     -24.758  -1.481  32.646  0.00  0.00    -0.218 NA
ATOM     15  C   UNL A   1     -24.152   1.161  31.002  0.00  0.00    +0.160 C 
ATOM     16  N   UNL A   1     -24.319   0.288  29.678  0.00  0.00    -0.251 NA
BRANCH   9  17
ATOM     17  C   UNL A   1     -24.973  -2.505  29.788  0.00  0.00    -0.006 C 
ATOM     18  C   UNL A   1     -23.906  -3.173  29.146  0.00  0.00    -0.003 C 
ATOM     19  C   UNL A   1     -23.989  -4.549  28.853  0.00  0.00    -0.000 C 
ATOM     20  C   UNL A   1     -25.137  -5.280  29.205  0.00  0.00    -0.000 C 
ATOM     21  C   UNL A   1     -26.232  -4.611  29.784  0.00  0.00    -0.000 C 
ATOM     22  C   UNL A   1     -26.155  -3.232  30.065  0.00  0.00    -0.003 C 
ENDBRANCH   9  17
BRANCH  15  25
ATOM     23  O   UNL A   1     -26.448   3.464  31.204  0.00  0.00    -0.225 OA
ATOM     24  C   UNL A   1     -25.321   3.247  31.469  0.00  0.00    +0.422 C 
ATOM     25  N   UNL A   1     -24.512   2.560  30.638  0.00  0.00    -0.154 NA
BRANCH  24  26
ATOM     26  O   UNL A   1     -24.765   3.687  32.677  0.00  0.00    -0.433 OA
BRANCH  26  28
ATOM     27  C   UNL A   1     -25.959   5.926  32.825  0.00  0.00    +0.051 C 
ATOM     28  C   UNL A   1     -24.734   5.118  32.734  0.00  0.00    +0.210 C 
ENDBRANCH  26  28
ENDBRANCH  24  26
ENDBRANCH  15  25
ENDBRANCH   1  16
BRANCH   7  29
ATOM     29  C   UNL A   1     -25.688   1.614  26.461  0.00  0.00    +0.090 C 
ATOM     30  C   UNL A   1     -26.250   2.920  26.395  0.00  0.00    +0.059 C 
ATOM     31  C   UNL A   1     -27.438   3.091  25.645  0.00  0.00    +0.102 C 
ATOM     32  N   UNL A   1     -28.075   2.089  25.003  0.00  0.00    -0.212 NA
ATOM     33  C   UNL A   1     -27.543   0.849  25.079  0.00  0.00    +0.234 C 
ATOM     34  C   UNL A   1     -26.354   0.576  25.777  0.00  0.00    +0.244 C 
ATOM     35  F   UNL A   1     -25.860  -0.681  25.795  0.00  0.00    -0.227 F 
BRANCH  30  36
ATOM     36  C   UNL A   1     -25.642   4.093  27.123  0.00  0.00    +0.263 C 
ATOM     37  N   UNL A   1     -25.614   5.252  26.449  0.00  0.00    -0.200 NA
ATOM     38  C   UNL A   1     -25.026   6.479  26.963  0.00  0.00    +0.139 C 
ATOM     39  O   UNL A   1     -25.143   3.966  28.243  0.00  0.00    -0.269 OA
ENDBRANCH  30  36
BRANCH  33  40
ATOM     40  O   UNL A   1     -28.193  -0.208  24.477  0.00  0.00    -0.459 OA
BRANCH  40  41
ATOM     41  C   UNL A   1     -29.460   0.005  23.866  0.00  0.00    +0.242 C 
BRANCH  41  42
ATOM     42  C   UNL A   1     -30.065  -1.377  23.573  0.00  0.00    +0.229 C 
ATOM     43  O   UNL A   1     -30.729  -1.878  24.721  0.00  0.00    -0.216 OA
ENDBRANCH  41  42
ENDBRANCH  40  41
ENDBRANCH  33  40
ENDBRANCH   7  29
TORSDOF 10
