MODEL 4067
MODEL 1
REMARK VINA RESULT:    -4.600      0.000      0.000
REMARK INTER + INTRA:          -4.600
REMARK INTER:                  -4.600
REMARK INTRA:                   0.000
REMARK UNBOUND:                 0.000
REMARK  Name = No_4067-gen_results/8p0m/2024-11-27-11-27-31/
REMARK  0 active torsions:
REMARK  status: ('A' for Active; 'I' for Inactive)
REMARK                            x       y       z     vdW  Elec       q    Type
REMARK                         _______ _______ _______ _____ _____    ______ ____
ROOT
ATOM      1  C   UNL A   1     -10.154  -9.746  18.337  0.00  0.00    +0.030 A 
ATOM      2  C   UNL A   1      -9.176 -10.374  18.006  0.00  0.00    +0.140 A 
ATOM      3  C   UNL A   1      -8.055 -10.489  18.763  0.00  0.00    +0.030 A 
ATOM      4  C   UNL A   1      -8.023  -9.839  20.011  0.00  0.00    +0.002 A 
ATOM      5  C   UNL A   1     -10.227  -9.135  19.641  0.00  0.00    +0.002 A 
ATOM      6  C   UNL A   1      -9.116  -9.197  20.428  0.00  0.00    +0.000 A 
ATOM      7  F   UNL A   1      -9.133 -11.028  16.816  0.00  0.00    -0.204 F 
ENDROOT
TORSDOF 0
ENDMDL
ENDMDL
