REMARK  Name = outputs/IAG933/test6/raw/output_4068_IAG933_linker_design_.xyz
REMARK  15 active torsions:
REMARK  status: ('A' for Active; 'I' for Inactive)
REMARK    1  A    between atoms: C_1  and  C_2
REMARK    2  A    between atoms: C_1  and  C_8
REMARK    3  A    between atoms: C_1  and  N_31
REMARK    4  A    between atoms: C_13  and  C_42
REMARK    5  A    between atoms: C_14  and  C_15
REMARK    6  A    between atoms: C_21  and  O_22
REMARK    7  A    between atoms: O_22  and  C_23
REMARK    8  A    between atoms: C_23  and  C_24
REMARK    9  A    between atoms: C_30  and  C_39
REMARK   10  A    between atoms: N_31  and  C_32
REMARK   11  A    between atoms: N_31  and  C_39
REMARK   12  A    between atoms: C_33  and  O_40
REMARK   13  A    between atoms: C_34  and  C_35
REMARK   14  A    between atoms: C_36  and  C_37
REMARK   15  A    between atoms: C_39  and  C_42
REMARK                            x       y       z     vdW  Elec       q    Type
REMARK                         _______ _______ _______ _____ _____    ______ ____
ROOT
ATOM      1  N   UNL A   1     -25.203   0.009  29.053  0.00  0.00    -0.272 NA
ENDROOT
BRANCH   1   2
ATOM      2  C   UNL A   1     -26.783   0.266  29.037  0.00  0.00    +0.060 C 
ATOM      3  C   UNL A   1     -28.748  -0.152  30.034  0.00  0.00    +0.119 C 
ATOM      4  C   UNL A   1     -28.832  -1.040  28.787  0.00  0.00    +0.059 C 
ATOM      5  C   UNL A   1     -27.798   1.020  29.844  0.00  0.00    +0.042 C 
ATOM      6  C   UNL A   1     -27.412  -0.943  28.230  0.00  0.00    +0.021 C 
BRANCH   4   8
ATOM      7  O   UNL A   1     -31.135  -0.459  27.858  0.00  0.00    -0.223 OA
ATOM      8  C   UNL A   1     -29.749  -0.280  27.654  0.00  0.00    +0.154 C 
ATOM      9  C   UNL A   1     -30.058   1.368  27.705  0.00  0.00    +0.036 C 
ENDBRANCH   4   8
BRANCH   5  10
ATOM     10  C   UNL A   1     -28.013   2.597  30.118  0.00  0.00    +0.004 C 
ATOM     11  C   UNL A   1     -28.579   3.017  31.377  0.00  0.00    +0.000 C 
ENDBRANCH   5  10
BRANCH   3  12
ATOM     12  O   UNL A   1     -29.386  -0.199  31.260  0.00  0.00    -0.353 OA
ATOM     13  C   UNL A   1     -28.593  -0.278  32.430  0.00  0.00    +0.174 C 
ENDBRANCH   3  12
ENDBRANCH   1   2
BRANCH   1  14
ATOM     14  C   UNL A   1     -24.855  -1.012  30.143  0.00  0.00    +0.096 C 
BRANCH  14  15
ATOM     15  C   UNL A   1     -24.973  -2.505  29.788  0.00  0.00    -0.006 C 
ATOM     16  C   UNL A   1     -23.906  -3.173  29.146  0.00  0.00    -0.003 C 
ATOM     17  C   UNL A   1     -23.989  -4.549  28.853  0.00  0.00    -0.000 C 
ATOM     18  C   UNL A   1     -25.137  -5.280  29.205  0.00  0.00    -0.000 C 
ATOM     19  C   UNL A   1     -26.232  -4.611  29.784  0.00  0.00    -0.000 C 
ATOM     20  C   UNL A   1     -26.155  -3.232  30.065  0.00  0.00    -0.003 C 
ENDBRANCH  14  15
BRANCH  14  21
ATOM     21  C   UNL A   1     -25.387  -0.679  31.571  0.00  0.00    +0.092 C 
ATOM     22  C   UNL A   1     -25.189   0.773  32.028  0.00  0.00    +0.021 C 
ATOM     23  C   UNL A   1     -25.336   0.684  33.544  0.00  0.00    +0.020 C 
ATOM     24  C   UNL A   1     -24.829  -0.715  33.905  0.00  0.00    +0.089 C 
ATOM     25  N   UNL A   1     -24.758  -1.481  32.646  0.00  0.00    -0.218 NA
ENDBRANCH  14  21
ENDBRANCH   1  14
BRANCH   1  26
ATOM     26  C   UNL A   1     -24.102   0.399  28.043  0.00  0.00    +0.058 C 
BRANCH  26  28
ATOM     27  C   UNL A   1     -21.674   1.477  27.703  0.00  0.00    +0.001 C 
ATOM     28  C   UNL A   1     -22.598   0.449  28.353  0.00  0.00    +0.016 C 
ENDBRANCH  26  28
BRANCH  26  29
ATOM     29  C   UNL A   1     -24.273   1.424  26.849  0.00  0.00    +0.024 C 
BRANCH  29  30
ATOM     30  C   UNL A   1     -25.688   1.614  26.461  0.00  0.00    +0.071 C 
ATOM     31  C   UNL A   1     -26.250   2.920  26.395  0.00  0.00    +0.055 C 
ATOM     32  C   UNL A   1     -27.438   3.091  25.645  0.00  0.00    +0.102 C 
ATOM     33  N   UNL A   1     -28.075   2.089  25.003  0.00  0.00    -0.212 NA
ATOM     34  C   UNL A   1     -27.543   0.849  25.079  0.00  0.00    +0.234 C 
ATOM     35  C   UNL A   1     -26.354   0.576  25.777  0.00  0.00    +0.240 C 
ATOM     36  F   UNL A   1     -25.860  -0.681  25.795  0.00  0.00    -0.227 F 
BRANCH  31  37
ATOM     37  C   UNL A   1     -25.642   4.093  27.123  0.00  0.00    +0.262 C 
ATOM     38  N   UNL A   1     -25.614   5.252  26.449  0.00  0.00    -0.200 NA
ATOM     39  C   UNL A   1     -25.026   6.479  26.963  0.00  0.00    +0.139 C 
ATOM     40  O   UNL A   1     -25.143   3.966  28.243  0.00  0.00    -0.269 OA
ENDBRANCH  31  37
BRANCH  34  41
ATOM     41  O   UNL A   1     -28.193  -0.208  24.477  0.00  0.00    -0.459 OA
BRANCH  41  42
ATOM     42  C   UNL A   1     -29.460   0.005  23.866  0.00  0.00    +0.242 C 
BRANCH  42  43
ATOM     43  C   UNL A   1     -30.065  -1.377  23.573  0.00  0.00    +0.229 C 
ATOM     44  O   UNL A   1     -30.729  -1.878  24.721  0.00  0.00    -0.216 OA
ENDBRANCH  42  43
ENDBRANCH  41  42
ENDBRANCH  34  41
ENDBRANCH  29  30
ENDBRANCH  26  29
ENDBRANCH   1  26
TORSDOF 15
