MODEL 4069
MODEL 1
REMARK VINA RESULT:    -7.177      0.000      0.000
REMARK INTER + INTRA:          -8.407
REMARK INTER:                  -8.016
REMARK INTRA:                  -0.390
REMARK UNBOUND:                -0.390
REMARK  Name = No_4069-gen_results/8p0m/2024-11-27-11-27-31/
REMARK  2 active torsions:
REMARK  status: ('A' for Active; 'I' for Inactive)
REMARK    1  A    between atoms: C_2  and  C_7
REMARK    2  A    between atoms: N_9  and  C_10
REMARK                            x       y       z     vdW  Elec       q    Type
REMARK                         _______ _______ _______ _____ _____    ______ ____
ROOT
ATOM      1  C   UNL A   1     -23.663  -0.862  29.180  0.00  0.00    +0.269 C 
ATOM      2  O   UNL A   1     -23.378  -0.913  30.227  0.00  0.00    -0.268 OA
ATOM      3  N   UNL A   1     -24.708  -1.629  28.653  0.00  0.00    -0.175 NA
ENDROOT
BRANCH   1   5
ATOM      4  C   UNL A   1     -22.307   0.764  28.331  0.00  0.00    +0.005 A 
ATOM      5  C   UNL A   1     -23.200   0.247  28.114  0.00  0.00    +0.055 A 
ATOM      6  C   UNL A   1     -21.901   1.812  27.319  0.00  0.00    +0.000 A 
ATOM      7  C   UNL A   1     -22.779   2.128  26.261  0.00  0.00    +0.000 A 
ATOM      8  C   UNL A   1     -24.291   0.401  27.126  0.00  0.00    +0.005 A 
ATOM      9  C   UNL A   1     -23.956   1.361  26.182  0.00  0.00    +0.000 A 
ENDBRANCH   1   5
BRANCH   3  10
ATOM     10  C   UNL A   1     -25.095  -2.612  28.981  0.00  0.00    +0.074 A 
ATOM     11  C   UNL A   1     -25.946  -3.099  29.469  0.00  0.00    +0.017 A 
ATOM     12  C   UNL A   1     -26.268  -4.493  29.756  0.00  0.00    +0.001 A 
ATOM     13  C   UNL A   1     -25.278  -5.385  29.339  0.00  0.00    +0.000 A 
ATOM     14  C   UNL A   1     -24.199  -4.945  28.670  0.00  0.00    +0.001 A 
ATOM     15  C   UNL A   1     -24.003  -3.654  28.450  0.00  0.00    +0.017 A 
ENDBRANCH   3  10
TORSDOF 2
ENDMDL
ENDMDL
