MODEL 406
MODEL 1
REMARK VINA RESULT:    -8.247      0.000      0.000
REMARK INTER + INTRA:         -11.502
REMARK INTER:                 -10.657
REMARK INTRA:                  -0.844
REMARK UNBOUND:                -0.844
REMARK  Name = No_406-gen_results/8p0m/2024-11-27-11-27-31/
REMARK  5 active torsions:
REMARK  status: ('A' for Active; 'I' for Inactive)
REMARK    1  A    between atoms: C_3  and  C_7
REMARK    2  A    between atoms: C_6  and  C_13
REMARK    3  A    between atoms: C_12  and  O_16
REMARK    4  A    between atoms: O_16  and  C_17
REMARK    5  A    between atoms: C_17  and  C_18
REMARK                            x       y       z     vdW  Elec       q    Type
REMARK                         _______ _______ _______ _____ _____    ______ ____
ROOT
ATOM      1  C   UNL A   1     -24.320   1.129  26.310  0.00  0.00    +0.003 A 
ATOM      2  C   UNL A   1     -23.340   2.006  26.208  0.00  0.00    +0.000 A 
ATOM      3  C   UNL A   1     -22.143   1.880  26.969  0.00  0.00    +0.003 A 
ATOM      4  C   UNL A   1     -22.166   1.022  28.105  0.00  0.00    +0.037 A 
ATOM      5  C   UNL A   1     -24.201   0.254  27.470  0.00  0.00    +0.037 A 
ATOM      6  C   UNL A   1     -23.151   0.199  28.265  0.00  0.00    +0.139 A 
ENDROOT
BRANCH   1   9
ATOM      7  C   UNL A   1     -27.501   2.352  24.886  0.00  0.00    +0.007 A 
ATOM      8  C   UNL A   1     -26.456   2.341  25.495  0.00  0.00    +0.000 A 
ATOM      9  C   UNL A   1     -25.626   1.224  25.583  0.00  0.00    +0.000 A 
ATOM     10  C   UNL A   1     -26.048  -0.019  24.967  0.00  0.00    +0.000 A 
ATOM     11  C   UNL A   1     -27.267   0.033  24.293  0.00  0.00    +0.007 A 
ATOM     12  C   UNL A   1     -27.995   1.132  24.268  0.00  0.00    +0.080 A 
BRANCH  12  13
ATOM     13  C   UNL A   1     -29.319   1.094  23.592  0.00  0.00    +0.388 C 
ATOM     14  O   UNL A   1     -29.834   0.167  23.305  0.00  0.00    -0.241 OA
ATOM     15  O   UNL A   1     -29.826   2.307  23.306  0.00  0.00    -0.241 OA
ENDBRANCH  12  13
ENDBRANCH   1   9
BRANCH   6  16
ATOM     16  O   UNL A   1     -23.106  -0.715  29.280  0.00  0.00    -0.471 OA
BRANCH  16  17
ATOM     17  C   UNL A   1     -24.356  -1.247  29.689  0.00  0.00    +0.232 C 
BRANCH  17  18
ATOM     18  C   UNL A   1     -24.692  -2.580  29.377  0.00  0.00    +0.021 A 
ATOM     19  C   UNL A   1     -23.861  -3.372  28.795  0.00  0.00    -0.001 A 
ATOM     20  C   UNL A   1     -24.097  -4.776  28.615  0.00  0.00    -0.000 A 
ATOM     21  C   UNL A   1     -25.340  -5.282  29.046  0.00  0.00    -0.000 A 
ATOM     22  C   UNL A   1     -26.278  -4.482  29.697  0.00  0.00    -0.000 A 
ATOM     23  C   UNL A   1     -25.944  -3.115  29.926  0.00  0.00    -0.001 A 
ENDBRANCH  17  18
ENDBRANCH  16  17
ENDBRANCH   6  16
TORSDOF 5
ENDMDL
ENDMDL
