MODEL 4070
MODEL 1
REMARK VINA RESULT:    -5.030      0.000      0.000
REMARK INTER + INTRA:          -5.759
REMARK INTER:                  -5.618
REMARK INTRA:                  -0.142
REMARK UNBOUND:                -0.142
REMARK  Name = No_4070-gen_results/8p0m/2024-11-27-11-27-31/
REMARK  2 active torsions:
REMARK  status: ('A' for Active; 'I' for Inactive)
REMARK    1  A    between atoms: C_1  and  C_7
REMARK    2  A    between atoms: C_7  and  N_8
REMARK                            x       y       z     vdW  Elec       q    Type
REMARK                         _______ _______ _______ _____ _____    ______ ____
ROOT
ATOM      1  C   UNL A   1     -24.503  -2.651  29.206  0.00  0.00    -0.006 A 
ATOM      2  C   UNL A   1     -23.863  -3.521  28.662  0.00  0.00    -0.003 A 
ATOM      3  C   UNL A   1     -24.237  -4.850  28.648  0.00  0.00    -0.000 A 
ATOM      4  C   UNL A   1     -25.463  -5.204  29.278  0.00  0.00    -0.000 A 
ATOM      5  C   UNL A   1     -26.223  -4.176  29.722  0.00  0.00    -0.000 A 
ATOM      6  C   UNL A   1     -25.802  -2.928  29.656  0.00  0.00    -0.003 A 
ENDROOT
BRANCH   1   7
ATOM      7  C   UNL A   1     -24.024  -1.221  29.161  0.00  0.00    +0.099 C 
BRANCH   7   8
ATOM      8  N   UNL A   1     -22.971  -0.926  29.826  0.00  0.00    -0.267 NA
ATOM      9  C   UNL A   1     -23.040  -0.738  31.160  0.00  0.00    +0.090 C 
ATOM     10  C   UNL A   1     -21.811  -0.439  29.162  0.00  0.00    +0.090 C 
ENDBRANCH   7   8
ENDBRANCH   1   7
TORSDOF 2
ENDMDL
ENDMDL
