REMARK  Name = No_4070-gen_results/8p0m/2024-11-27-11-27-31/
REMARK  2 active torsions:
REMARK  status: ('A' for Active; 'I' for Inactive)
REMARK    1  A    between atoms: C_1  and  C_7
REMARK    2  A    between atoms: C_7  and  N_8
REMARK                            x       y       z     vdW  Elec       q    Type
REMARK                         _______ _______ _______ _____ _____    ______ ____
ROOT
ATOM      1  C   UNL A   1     -28.016  -0.814  28.878  0.00  0.00    -0.006 A 
ATOM      2  C   UNL A   1     -27.064  -0.119  28.608  0.00  0.00    -0.003 A 
ATOM      3  C   UNL A   1     -27.001   0.691  27.491  0.00  0.00    -0.000 A 
ATOM      4  C   UNL A   1     -28.137   0.736  26.635  0.00  0.00    -0.000 A 
ATOM      5  C   UNL A   1     -29.236   0.076  27.069  0.00  0.00    -0.000 A 
ATOM      6  C   UNL A   1     -29.218  -0.643  28.175  0.00  0.00    -0.003 A 
ENDROOT
BRANCH   1   7
ATOM      7  C   UNL A   1     -28.003  -1.660  30.127  0.00  0.00    +0.099 C 
BRANCH   7   8
ATOM      8  N   UNL A   1     -27.044  -2.495  30.269  0.00  0.00    -0.267 NA
ATOM      9  C   UNL A   1     -25.765  -2.066  30.274  0.00  0.00    +0.090 C 
ATOM     10  C   UNL A   1     -27.260  -3.886  30.062  0.00  0.00    +0.090 C 
ENDBRANCH   7   8
ENDBRANCH   1   7
TORSDOF 2
