REMARK  Name = outputs/IAG933/test6/raw/output_4071_IAG933_linker_design_.xyz
REMARK  12 active torsions:
REMARK  status: ('A' for Active; 'I' for Inactive)
REMARK    1  A    between atoms: C_1  and  C_2
REMARK    2  A    between atoms: C_1  and  C_8
REMARK    3  A    between atoms: C_13  and  C_39
REMARK    4  A    between atoms: C_14  and  C_15
REMARK    5  A    between atoms: C_21  and  O_22
REMARK    6  A    between atoms: O_22  and  C_23
REMARK    7  A    between atoms: C_23  and  C_24
REMARK    8  A    between atoms: C_29  and  C_30
REMARK    9  A    between atoms: C_30  and  C_40
REMARK   10  A    between atoms: O_33  and  C_43
REMARK   11  A    between atoms: C_36  and  N_42
REMARK   12  A    between atoms: C_36  and  C_43
REMARK                            x       y       z     vdW  Elec       q    Type
REMARK                         _______ _______ _______ _____ _____    ______ ____
ROOT
ATOM      1  C   UNL A   1     -24.855  -1.012  30.143  0.00  0.00    +0.112 C 
ATOM      2  C   UNL A   1     -22.218   1.348  27.718  0.00  0.00    +0.137 C 
ATOM      3  C   UNL A   1     -23.319   1.521  26.842  0.00  0.00    +0.017 C 
ATOM      4  C   UNL A   1     -24.729   0.481  28.524  0.00  0.00    +0.046 C 
ATOM      5  F   UNL A   1     -20.970   1.948  27.732  0.00  0.00    -0.204 F 
ATOM      6  C   UNL A   1     -22.250   0.598  28.821  0.00  0.00    +0.028 C 
ATOM      7  C   UNL A   1     -23.445   0.015  29.301  0.00  0.00    +0.015 C 
ATOM      8  C   UNL A   1     -24.588   1.198  27.416  0.00  0.00    +0.014 C 
ATOM      9  N   UNL A   1     -26.067  -0.126  29.137  0.00  0.00    -0.302 N 
ENDROOT
BRANCH   8  10
ATOM     10  C   UNL A   1     -25.688   1.614  26.461  0.00  0.00    +0.039 C 
ATOM     11  C   UNL A   1     -26.250   2.920  26.395  0.00  0.00    +0.077 C 
ATOM     12  C   UNL A   1     -27.438   3.091  25.645  0.00  0.00    +0.107 C 
ATOM     13  N   UNL A   1     -28.075   2.089  25.003  0.00  0.00    -0.208 NA
ATOM     14  C   UNL A   1     -27.543   0.849  25.079  0.00  0.00    +0.253 C 
ATOM     15  C   UNL A   1     -26.354   0.576  25.777  0.00  0.00    +0.193 C 
ATOM     16  F   UNL A   1     -25.860  -0.681  25.795  0.00  0.00    -0.199 F 
BRANCH  11  17
ATOM     17  C   UNL A   1     -25.642   4.093  27.123  0.00  0.00    +0.266 C 
ATOM     18  N   UNL A   1     -25.614   5.252  26.449  0.00  0.00    -0.200 NA
ATOM     19  C   UNL A   1     -25.026   6.479  26.963  0.00  0.00    +0.139 C 
ATOM     20  O   UNL A   1     -25.143   3.966  28.243  0.00  0.00    -0.268 OA
ENDBRANCH  11  17
BRANCH  14  21
ATOM     21  O   UNL A   1     -28.193  -0.208  24.477  0.00  0.00    -0.456 OA
BRANCH  21  22
ATOM     22  C   UNL A   1     -29.460   0.005  23.866  0.00  0.00    +0.243 C 
BRANCH  22  23
ATOM     23  C   UNL A   1     -30.065  -1.377  23.573  0.00  0.00    +0.229 C 
ATOM     24  O   UNL A   1     -30.729  -1.878  24.721  0.00  0.00    -0.216 OA
ENDBRANCH  22  23
ENDBRANCH  21  22
ENDBRANCH  14  21
ENDBRANCH   8  10
BRANCH   1  25
ATOM     25  C   UNL A   1     -24.973  -2.505  29.788  0.00  0.00    -0.001 C 
ATOM     26  C   UNL A   1     -23.906  -3.173  29.146  0.00  0.00    -0.002 C 
ATOM     27  C   UNL A   1     -23.989  -4.549  28.853  0.00  0.00    -0.000 C 
ATOM     28  C   UNL A   1     -25.137  -5.280  29.205  0.00  0.00    -0.000 C 
ATOM     29  C   UNL A   1     -26.232  -4.611  29.784  0.00  0.00    -0.000 C 
ATOM     30  C   UNL A   1     -26.155  -3.232  30.065  0.00  0.00    -0.002 C 
ENDBRANCH   1  25
BRANCH   1  31
ATOM     31  C   UNL A   1     -25.387  -0.679  31.571  0.00  0.00    +0.097 C 
ATOM     32  C   UNL A   1     -25.189   0.773  32.028  0.00  0.00    +0.021 C 
ATOM     33  C   UNL A   1     -25.336   0.684  33.544  0.00  0.00    +0.020 C 
ATOM     34  C   UNL A   1     -24.829  -0.715  33.905  0.00  0.00    +0.089 C 
ATOM     35  N   UNL A   1     -24.758  -1.481  32.646  0.00  0.00    -0.217 NA
ENDBRANCH   1  31
BRANCH   9  36
ATOM     36  C   UNL A   1     -27.460   0.696  28.869  0.00  0.00    +0.100 C 
ATOM     37  C   UNL A   1     -28.188   2.116  28.857  0.00  0.00    +0.024 C 
BRANCH  36  38
ATOM     38  C   UNL A   1     -28.561  -0.307  28.344  0.00  0.00    +0.133 C 
ATOM     39  C   UNL A   1     -29.708   0.275  27.471  0.00  0.00    +0.034 C 
BRANCH  38  40
ATOM     40  O   UNL A   1     -28.989  -1.008  29.292  0.00  0.00    -0.352 OA
ATOM     41  C   UNL A   1     -30.274  -1.512  29.436  0.00  0.00    +0.174 C 
ENDBRANCH  38  40
ENDBRANCH  36  38
ENDBRANCH   9  36
BRANCH   3  42
ATOM     42  C   UNL A   1     -23.331   1.939  25.401  0.00  0.00    +0.129 C 
BRANCH  42  45
ATOM     43  O   UNL A   1     -21.137   1.932  25.492  0.00  0.00    -0.259 OA
ATOM     44  F   UNL A   1     -22.153   1.890  23.490  0.00  0.00    -0.163 F 
ATOM     45  C   UNL A   1     -22.157   1.982  24.812  0.00  0.00    +0.315 C 
ENDBRANCH  42  45
ENDBRANCH   3  42
TORSDOF 12
