MODEL 4072
MODEL 1
REMARK VINA RESULT:    -4.792      0.000      0.000
REMARK INTER + INTRA:          -5.416
REMARK INTER:                  -5.352
REMARK INTRA:                  -0.064
REMARK UNBOUND:                -0.064
REMARK  Name = No_4072-gen_results/8p0m/2024-11-27-11-27-31/
REMARK  2 active torsions:
REMARK  status: ('A' for Active; 'I' for Inactive)
REMARK    1  A    between atoms: C_3  and  C_7
REMARK    2  A    between atoms: C_7  and  C_8
REMARK                            x       y       z     vdW  Elec       q    Type
REMARK                         _______ _______ _______ _____ _____    ______ ____
ROOT
ATOM      1  C   UNL A   1     -26.519  -3.622  29.857  0.00  0.00    -0.000 A 
ATOM      2  C   UNL A   1     -25.872  -2.623  29.644  0.00  0.00    -0.004 A 
ATOM      3  C   UNL A   1     -24.605  -2.634  29.062  0.00  0.00    -0.016 A 
ATOM      4  C   UNL A   1     -23.987  -3.905  28.739  0.00  0.00    -0.004 A 
ATOM      5  C   UNL A   1     -24.760  -5.032  29.018  0.00  0.00    -0.000 A 
ATOM      6  C   UNL A   1     -25.948  -4.930  29.582  0.00  0.00    -0.000 A 
ENDROOT
BRANCH   3   7
ATOM      7  C   UNL A   1     -23.743  -1.447  28.760  0.00  0.00    +0.075 C 
BRANCH   7   8
ATOM      8  C   UNL A   1     -22.737  -1.070  29.538  0.00  0.00    +0.100 C 
ATOM      9  N   UNL A   1     -21.478  -1.116  29.003  0.00  0.00    -0.151 NA
ENDBRANCH   7   8
ENDBRANCH   3   7
TORSDOF 2
ENDMDL
ENDMDL
