MODEL 4073
MODEL 1
REMARK VINA RESULT:    -7.043      0.000      0.000
REMARK INTER + INTRA:          -9.685
REMARK INTER:                  -8.690
REMARK INTRA:                  -0.995
REMARK UNBOUND:                -0.995
REMARK  Name = No_4073-gen_results/8p0m/2024-11-27-11-27-31/
REMARK  4 active torsions:
REMARK  status: ('A' for Active; 'I' for Inactive)
REMARK    1  A    between atoms: C_2  and  C_24
REMARK    2  A    between atoms: C_4  and  C_7
REMARK    3  A    between atoms: C_8  and  C_14
REMARK    4  A    between atoms: N_16  and  C_17
REMARK                            x       y       z     vdW  Elec       q    Type
REMARK                         _______ _______ _______ _____ _____    ______ ____
ROOT
ATOM      1  C   UNL A   1     -23.682   1.425  27.452  0.00  0.00    +0.007 A 
ATOM      2  C   UNL A   1     -24.617   2.371  28.043  0.00  0.00    +0.056 A 
ATOM      3  C   UNL A   1     -24.972   3.486  27.292  0.00  0.00    +0.005 A 
ATOM      4  C   UNL A   1     -24.237   3.799  26.117  0.00  0.00    +0.000 A 
ATOM      5  C   UNL A   1     -23.064   1.801  26.247  0.00  0.00    +0.000 A 
ATOM      6  C   UNL A   1     -23.384   2.965  25.566  0.00  0.00    +0.000 A 
ENDROOT
BRANCH   1  10
ATOM      7  C   UNL A   1     -23.296  -1.968  29.094  0.00  0.00    +0.049 A 
ATOM      8  C   UNL A   1     -24.181  -2.425  28.749  0.00  0.00    +0.083 A 
ATOM      9  C   UNL A   1     -23.076  -0.571  28.690  0.00  0.00    +0.196 A 
ATOM     10  C   UNL A   1     -23.858  -0.006  27.934  0.00  0.00    +0.039 A 
ATOM     11  C   UNL A   1     -25.056  -0.606  27.470  0.00  0.00    +0.003 A 
ATOM     12  C   UNL A   1     -25.239  -1.897  27.878  0.00  0.00    +0.007 A 
ATOM     13  O   UNL A   1     -21.926   0.096  29.085  0.00  0.00    -0.287 OA
BRANCH   8  14
ATOM     14  C   UNL A   1     -24.468  -3.956  29.120  0.00  0.00    +0.388 C 
ATOM     15  O   UNL A   1     -23.650  -4.703  28.799  0.00  0.00    -0.241 OA
ATOM     16  O   UNL A   1     -25.580  -4.339  29.610  0.00  0.00    -0.241 OA
ENDBRANCH   8  14
ENDBRANCH   1  10
BRANCH   2  17
ATOM     17  C   UNL A   1     -25.337   2.044  29.288  0.00  0.00    +0.269 C 
ATOM     18  O   UNL A   1     -26.555   1.941  29.253  0.00  0.00    -0.268 OA
ATOM     19  N   UNL A   1     -24.680   1.884  30.424  0.00  0.00    -0.175 NA
BRANCH  19  20
ATOM     20  C   UNL A   1     -25.376   1.517  31.712  0.00  0.00    +0.074 A 
ATOM     21  C   UNL A   1     -25.178   0.200  32.005  0.00  0.00    +0.017 A 
ATOM     22  C   UNL A   1     -25.373  -0.207  33.245  0.00  0.00    +0.002 A 
ATOM     23  C   UNL A   1     -26.002   0.684  34.237  0.00  0.00    +0.011 A 
ATOM     24  C   UNL A   1     -26.165   2.001  33.849  0.00  0.00    +0.059 A 
ATOM     25  C   UNL A   1     -25.772   2.473  32.611  0.00  0.00    +0.028 A 
ATOM     26 CL   UNL A   1     -26.820   3.114  35.009  0.00  0.00    -0.082 Cl
ENDBRANCH  19  20
ENDBRANCH   2  17
TORSDOF 4
ENDMDL
ENDMDL
