REMARK  Name = outputs/IAG933/test6/raw/output_4075_IAG933_linker_design_.xyz
REMARK  13 active torsions:
REMARK  status: ('A' for Active; 'I' for Inactive)
REMARK    1  A    between atoms: C_1  and  C_2
REMARK    2  A    between atoms: C_1  and  C_8
REMARK    3  A    between atoms: C_1  and  N_46
REMARK    4  A    between atoms: C_13  and  O_35
REMARK    5  A    between atoms: C_14  and  C_15
REMARK    6  A    between atoms: C_15  and  O_18
REMARK    7  A    between atoms: O_18  and  C_33
REMARK    8  A    between atoms: C_21  and  O_22
REMARK    9  A    between atoms: O_22  and  C_23
REMARK   10  A    between atoms: C_23  and  C_24
REMARK   11  A    between atoms: C_31  and  C_33
REMARK   12  A    between atoms: O_35  and  C_42
REMARK   13  A    between atoms: C_43  and  N_44
REMARK                            x       y       z     vdW  Elec       q    Type
REMARK                         _______ _______ _______ _____ _____    ______ ____
ROOT
ATOM      1  C   UNL A   1     -25.688   1.614  26.461  0.00  0.00    +0.186 C 
ATOM      2  C   UNL A   1     -26.250   2.920  26.395  0.00  0.00    +0.080 C 
ATOM      3  C   UNL A   1     -27.438   3.091  25.645  0.00  0.00    +0.105 C 
ATOM      4  N   UNL A   1     -28.075   2.089  25.003  0.00  0.00    -0.212 NA
ATOM      5  C   UNL A   1     -27.543   0.849  25.079  0.00  0.00    +0.237 C 
ATOM      6  C   UNL A   1     -26.354   0.576  25.777  0.00  0.00    +0.267 C 
ATOM      7  F   UNL A   1     -25.860  -0.681  25.795  0.00  0.00    -0.224 F 
ENDROOT
BRANCH   2   8
ATOM      8  C   UNL A   1     -25.642   4.093  27.123  0.00  0.00    +0.221 C 
ATOM      9  N   UNL A   1     -25.614   5.252  26.449  0.00  0.00    -0.236 NA
ATOM     10  C   UNL A   1     -25.026   6.479  26.963  0.00  0.00    +0.155 C 
BRANCH   8  11
ATOM     11  O   UNL A   1     -25.143   3.966  28.243  0.00  0.00    -0.450 OA
BRANCH  11  12
ATOM     12  C   UNL A   1     -26.084   3.818  29.196  0.00  0.00    +0.293 C 
BRANCH  12  14
ATOM     13  O   UNL A   1     -25.716   4.823  30.734  0.00  0.00    -0.269 OA
ATOM     14  C   UNL A   1     -26.567   4.187  30.563  0.00  0.00    +0.290 C 
ATOM     15  N   UNL A   1     -27.830   3.681  30.962  0.00  0.00    -0.176 NA
BRANCH  15  21
ATOM     16  C   UNL A   1     -29.452   2.795  29.306  0.00  0.00    +0.020 C 
ATOM     17  C   UNL A   1     -29.929   1.790  28.431  0.00  0.00    +0.043 C 
ATOM     18  C   UNL A   1     -29.242   0.553  28.338  0.00  0.00    +0.196 C 
ATOM     19  O   UNL A   1     -29.522  -0.363  27.347  0.00  0.00    -0.287 OA
ATOM     20  C   UNL A   1     -28.264   0.237  29.308  0.00  0.00    +0.043 C 
ATOM     21  C   UNL A   1     -28.344   2.580  30.168  0.00  0.00    +0.074 C 
ATOM     22  C   UNL A   1     -27.817   1.256  30.197  0.00  0.00    +0.020 C 
ENDBRANCH  15  21
ENDBRANCH  12  14
ENDBRANCH  11  12
ENDBRANCH   8  11
ENDBRANCH   2   8
BRANCH   5  23
ATOM     23  O   UNL A   1     -28.193  -0.208  24.477  0.00  0.00    -0.459 OA
BRANCH  23  24
ATOM     24  C   UNL A   1     -29.460   0.005  23.866  0.00  0.00    +0.242 C 
BRANCH  24  25
ATOM     25  C   UNL A   1     -30.065  -1.377  23.573  0.00  0.00    +0.229 C 
ATOM     26  O   UNL A   1     -30.729  -1.878  24.721  0.00  0.00    -0.216 OA
ENDBRANCH  24  25
ENDBRANCH  23  24
ENDBRANCH   5  23
BRANCH   1  27
ATOM     27  O   UNL A   1     -24.904   1.557  27.667  0.00  0.00    -0.334 OA
BRANCH  27  33
ATOM     28 CL   UNL A   1     -22.419   2.378  25.808  0.00  0.00    -0.080 Cl
ATOM     29  C   UNL A   1     -22.364   1.593  27.261  0.00  0.00    +0.121 C 
ATOM     30  N   UNL A   1     -21.664   0.551  29.032  0.00  0.00    -0.034 NA
ATOM     31  C   UNL A   1     -21.247   1.250  27.941  0.00  0.00    +0.245 C 
ATOM     32  C   UNL A   1     -23.040   0.493  29.053  0.00  0.00    +0.370 C 
ATOM     33  C   UNL A   1     -23.524   1.210  27.941  0.00  0.00    +0.262 C 
ATOM     34  N   UNL A   1     -23.586  -0.312  30.056  0.00  0.00    -0.031 NA
BRANCH  34  35
ATOM     35  C   UNL A   1     -24.855  -1.012  30.143  0.00  0.00    +0.243 C 
BRANCH  35  36
ATOM     36  C   UNL A   1     -24.973  -2.505  29.788  0.00  0.00    +0.025 C 
ATOM     37  C   UNL A   1     -23.906  -3.173  29.146  0.00  0.00    -0.000 C 
ATOM     38  C   UNL A   1     -23.989  -4.549  28.853  0.00  0.00    -0.000 C 
ATOM     39  C   UNL A   1     -25.137  -5.280  29.205  0.00  0.00    -0.000 C 
ATOM     40  C   UNL A   1     -26.232  -4.611  29.784  0.00  0.00    -0.000 C 
ATOM     41  C   UNL A   1     -26.155  -3.232  30.065  0.00  0.00    -0.000 C 
ENDBRANCH  35  36
BRANCH  35  42
ATOM     42  C   UNL A   1     -25.387  -0.679  31.571  0.00  0.00    +0.124 C 
ATOM     43  C   UNL A   1     -25.189   0.773  32.028  0.00  0.00    +0.024 C 
ATOM     44  C   UNL A   1     -25.336   0.684  33.544  0.00  0.00    +0.020 C 
ATOM     45  C   UNL A   1     -24.829  -0.715  33.905  0.00  0.00    +0.089 C 
ATOM     46  N   UNL A   1     -24.758  -1.481  32.646  0.00  0.00    -0.215 NA
ENDBRANCH  35  42
ENDBRANCH  34  35
ENDBRANCH  27  33
ENDBRANCH   1  27
TORSDOF 13
