MODEL 4076
MODEL 1
REMARK VINA RESULT:    -6.612      0.000      0.000
REMARK INTER + INTRA:         -14.317
REMARK INTER:                 -10.864
REMARK INTRA:                  -3.453
REMARK UNBOUND:                -3.453
REMARK  Name = No_4076-gen_results/8p0m/2024-11-27-11-27-31/
REMARK  11 active torsions:
REMARK  status: ('A' for Active; 'I' for Inactive)
REMARK    1  A    between atoms: C_1  and  C_2
REMARK    2  A    between atoms: C_2  and  C_4
REMARK    3  A    between atoms: C_4  and  C_5
REMARK    4  A    between atoms: C_4  and  C_9
REMARK    5  A    between atoms: C_6  and  C_7
REMARK    6  A    between atoms: C_9  and  C_10
REMARK    7  A    between atoms: C_16  and  C_17
REMARK    8  A    between atoms: C_17  and  C_18
REMARK    9  A    between atoms: C_19  and  C_21
REMARK   10  A    between atoms: C_21  and  C_22
REMARK   11  A    between atoms: C_21  and  C_25
REMARK                            x       y       z     vdW  Elec       q    Type
REMARK                         _______ _______ _______ _____ _____    ______ ____
ROOT
ATOM      1  C   UNL A   1     -24.451  -0.084  29.471  0.00  0.00    +0.063 C 
ENDROOT
BRANCH   1   2
ATOM      2  C   UNL A   1     -23.574   0.083  28.352  0.00  0.00    +0.187 C 
ATOM      3  F   UNL A   1     -23.910  -0.422  27.270  0.00  0.00    -0.232 F 
BRANCH   2   4
ATOM      4  C   UNL A   1     -22.542   0.712  28.293  0.00  0.00    +0.009 C 
ATOM      5  C   UNL A   1     -22.108   1.783  27.494  0.00  0.00    -0.002 C 
BRANCH   5   6
ATOM      6  C   UNL A   1     -23.106   2.238  26.696  0.00  0.00    -0.000 C 
ATOM      7  C   UNL A   1     -22.919   2.398  25.341  0.00  0.00    -0.000 C 
ENDBRANCH   5   6
ENDBRANCH   2   4
ENDBRANCH   1   2
BRANCH   1   8
ATOM      8  C   UNL A   1     -25.212   1.067  29.925  0.00  0.00    -0.027 C 
ATOM      9  C   UNL A   1     -26.516   1.355  29.634  0.00  0.00    -0.026 C 
BRANCH   9  10
ATOM     10  C   UNL A   1     -27.393   0.541  28.807  0.00  0.00    +0.051 C 
BRANCH  10  11
ATOM     11  C   UNL A   1     -27.425   0.452  27.659  0.00  0.00    -0.025 C 
ATOM     12  C   UNL A   1     -26.612   1.422  26.705  0.00  0.00    -0.022 C 
BRANCH  12  13
ATOM     13  C   UNL A   1     -26.830   1.285  25.306  0.00  0.00    +0.065 C 
BRANCH  13  14
ATOM     14  C   UNL A   1     -27.708   2.025  24.734  0.00  0.00    -0.022 C 
ATOM     15  C   UNL A   1     -28.653   1.479  23.826  0.00  0.00    -0.030 C 
ATOM     16  C   UNL A   1     -29.760   2.188  23.320  0.00  0.00    +0.030 C 
ENDBRANCH  13  14
BRANCH  13  17
ATOM     17  C   UNL A   1     -26.057   0.417  24.499  0.00  0.00    -0.018 C 
ATOM     18  C   UNL A   1     -25.663  -0.519  24.782  0.00  0.00    -0.004 C 
ENDBRANCH  13  17
ENDBRANCH  12  13
ENDBRANCH  10  11
ENDBRANCH   9  10
ENDBRANCH   1   8
BRANCH   1  19
ATOM     19  C   UNL A   1     -24.389  -1.182  30.340  0.00  0.00    +0.029 C 
ATOM     20  C   UNL A   1     -23.905  -0.974  31.729  0.00  0.00    +0.005 C 
BRANCH  19  21
ATOM     21  C   UNL A   1     -24.899  -2.419  30.033  0.00  0.00    -0.022 A 
ATOM     22  C   UNL A   1     -26.168  -2.767  30.305  0.00  0.00    -0.004 A 
ATOM     23  C   UNL A   1     -26.610  -4.030  29.805  0.00  0.00    -0.000 A 
ATOM     24  C   UNL A   1     -25.706  -4.854  29.147  0.00  0.00    -0.000 A 
ATOM     25  C   UNL A   1     -24.425  -4.501  28.910  0.00  0.00    -0.000 A 
ATOM     26  C   UNL A   1     -23.961  -3.275  29.342  0.00  0.00    -0.004 A 
ENDBRANCH  19  21
ENDBRANCH   1  19
TORSDOF 11
ENDMDL
ENDMDL
