REMARK  Name = outputs/IAG933/test6/raw/output_4076_IAG933_linker_design_.xyz
REMARK  12 active torsions:
REMARK  status: ('A' for Active; 'I' for Inactive)
REMARK    1  A    between atoms: C_1  and  C_2
REMARK    2  A    between atoms: C_1  and  C_8
REMARK    3  A    between atoms: C_1  and  C_30
REMARK    4  A    between atoms: C_13  and  N_39
REMARK    5  A    between atoms: C_14  and  C_15
REMARK    6  A    between atoms: C_21  and  O_22
REMARK    7  A    between atoms: O_22  and  C_23
REMARK    8  A    between atoms: C_23  and  C_24
REMARK    9  A    between atoms: C_28  and  O_31
REMARK   10  A    between atoms: C_30  and  O_31
REMARK   11  A    between atoms: C_30  and  N_38
REMARK   12  A    between atoms: C_35  and  N_39
REMARK                            x       y       z     vdW  Elec       q    Type
REMARK                         _______ _______ _______ _____ _____    ______ ____
ROOT
ATOM      1  C   UNL A   1     -22.960   0.636  27.951  0.00  0.00    +0.145 C 
ATOM      2  O   UNL A   1     -21.587   2.232  26.334  0.00  0.00    -0.325 OA
ATOM      3  C   UNL A   1     -22.828   1.797  26.069  0.00  0.00    +0.301 C 
ATOM      4  C   UNL A   1     -21.014   1.846  27.500  0.00  0.00    +0.148 C 
ATOM      5  C   UNL A   1     -23.539   1.396  27.069  0.00  0.00    +0.181 C 
ATOM      6  C   UNL A   1     -21.676   0.940  28.339  0.00  0.00    +0.064 C 
ATOM      7  F   UNL A   1     -23.261   1.589  24.833  0.00  0.00    -0.202 F 
ENDROOT
BRANCH   1   8
ATOM      8  O   UNL A   1     -23.792  -0.428  28.301  0.00  0.00    -0.337 OA
BRANCH   8   9
ATOM      9  C   UNL A   1     -25.123  -0.075  28.972  0.00  0.00    +0.216 C 
BRANCH   9  13
ATOM     10  C   UNL A   1     -27.435   0.886  29.031  0.00  0.00    +0.244 C 
ATOM     11  C   UNL A   1     -28.313   1.992  29.434  0.00  0.00    +0.097 C 
ATOM     12  O   UNL A   1     -27.830  -0.271  28.770  0.00  0.00    -0.273 OA
ATOM     13  N   UNL A   1     -26.134   1.121  29.152  0.00  0.00    -0.177 NA
ENDBRANCH   9  13
BRANCH   9  14
ATOM     14  C   UNL A   1     -24.855  -1.012  30.143  0.00  0.00    +0.087 C 
BRANCH  14  15
ATOM     15  C   UNL A   1     -24.973  -2.505  29.788  0.00  0.00    -0.017 C 
ATOM     16  C   UNL A   1     -23.906  -3.173  29.146  0.00  0.00    -0.004 C 
ATOM     17  C   UNL A   1     -23.989  -4.549  28.853  0.00  0.00    -0.000 C 
ATOM     18  C   UNL A   1     -25.137  -5.280  29.205  0.00  0.00    -0.000 C 
ATOM     19  C   UNL A   1     -26.232  -4.611  29.784  0.00  0.00    -0.000 C 
ATOM     20  C   UNL A   1     -26.155  -3.232  30.065  0.00  0.00    -0.004 C 
ENDBRANCH  14  15
BRANCH  14  21
ATOM     21  C   UNL A   1     -25.387  -0.679  31.571  0.00  0.00    +0.081 C 
ATOM     22  C   UNL A   1     -25.189   0.773  32.028  0.00  0.00    +0.019 C 
ATOM     23  C   UNL A   1     -25.336   0.684  33.544  0.00  0.00    +0.020 C 
ATOM     24  C   UNL A   1     -24.829  -0.715  33.905  0.00  0.00    +0.089 C 
ATOM     25  N   UNL A   1     -24.758  -1.481  32.646  0.00  0.00    -0.219 NA
ENDBRANCH  14  21
ENDBRANCH   9  14
ENDBRANCH   8   9
ENDBRANCH   1   8
BRANCH   5  26
ATOM     26  N   UNL A   1     -24.641   1.483  27.097  0.00  0.00    -0.229 NA
BRANCH  26  27
ATOM     27  C   UNL A   1     -25.688   1.614  26.461  0.00  0.00    +0.103 C 
ATOM     28  C   UNL A   1     -26.250   2.920  26.395  0.00  0.00    +0.091 C 
ATOM     29  C   UNL A   1     -27.438   3.091  25.645  0.00  0.00    +0.108 C 
ATOM     30  N   UNL A   1     -28.075   2.089  25.003  0.00  0.00    -0.208 NA
ATOM     31  C   UNL A   1     -27.543   0.849  25.079  0.00  0.00    +0.255 C 
ATOM     32  C   UNL A   1     -26.354   0.576  25.777  0.00  0.00    +0.208 C 
ATOM     33  F   UNL A   1     -25.860  -0.681  25.795  0.00  0.00    -0.198 F 
BRANCH  28  34
ATOM     34  C   UNL A   1     -25.642   4.093  27.123  0.00  0.00    +0.268 C 
ATOM     35  N   UNL A   1     -25.614   5.252  26.449  0.00  0.00    -0.200 NA
ATOM     36  C   UNL A   1     -25.026   6.479  26.963  0.00  0.00    +0.139 C 
ATOM     37  O   UNL A   1     -25.143   3.966  28.243  0.00  0.00    -0.268 OA
ENDBRANCH  28  34
BRANCH  31  38
ATOM     38  O   UNL A   1     -28.193  -0.208  24.477  0.00  0.00    -0.456 OA
BRANCH  38  39
ATOM     39  C   UNL A   1     -29.460   0.005  23.866  0.00  0.00    +0.243 C 
BRANCH  39  40
ATOM     40  C   UNL A   1     -30.065  -1.377  23.573  0.00  0.00    +0.229 C 
ATOM     41  O   UNL A   1     -30.729  -1.878  24.721  0.00  0.00    -0.216 OA
ENDBRANCH  39  40
ENDBRANCH  38  39
ENDBRANCH  31  38
ENDBRANCH  26  27
ENDBRANCH   5  26
TORSDOF 12
