REMARK  Name = outputs/IAG933/test6/raw/output_4077_IAG933_linker_design_.xyz
REMARK  11 active torsions:
REMARK  status: ('A' for Active; 'I' for Inactive)
REMARK    1  A    between atoms: C_1  and  C_2
REMARK    2  A    between atoms: C_1  and  C_8
REMARK    3  A    between atoms: C_1  and  C_29
REMARK    4  A    between atoms: C_13  and  C_34
REMARK    5  A    between atoms: C_14  and  C_15
REMARK    6  A    between atoms: C_21  and  O_22
REMARK    7  A    between atoms: O_22  and  C_23
REMARK    8  A    between atoms: C_23  and  C_24
REMARK    9  A    between atoms: N_28  and  C_29
REMARK   10  A    between atoms: C_29  and  C_40
REMARK   11  A    between atoms: C_31  and  C_35
REMARK                            x       y       z     vdW  Elec       q    Type
REMARK                         _______ _______ _______ _____ _____    ______ ____
ROOT
ATOM      1  C   UNL A   1     -25.446  -0.065  29.169  0.00  0.00    +0.129 C 
ENDROOT
BRANCH   1   7
ATOM      2  O   UNL A   1     -23.248   1.758  26.560  0.00  0.00    -0.444 OA
ATOM      3  C   UNL A   1     -22.976   0.795  28.686  0.00  0.00    +0.248 C 
ATOM      4  C   UNL A   1     -24.379   1.342  27.224  0.00  0.00    +0.145 C 
ATOM      5  O   UNL A   1     -22.228   0.202  29.494  0.00  0.00    -0.285 OA
ATOM      6  F   UNL A   1     -20.994   1.552  27.275  0.00  0.00    -0.179 F 
ATOM      7  C   UNL A   1     -24.345   0.670  28.431  0.00  0.00    +0.073 C 
ATOM      8  C   UNL A   1     -22.403   1.597  27.585  0.00  0.00    +0.390 C 
BRANCH   4   9
ATOM      9  C   UNL A   1     -25.688   1.614  26.461  0.00  0.00    +0.072 C 
ATOM     10  C   UNL A   1     -26.250   2.920  26.395  0.00  0.00    +0.080 C 
ATOM     11  C   UNL A   1     -27.438   3.091  25.645  0.00  0.00    +0.107 C 
ATOM     12  N   UNL A   1     -28.075   2.089  25.003  0.00  0.00    -0.208 NA
ATOM     13  C   UNL A   1     -27.543   0.849  25.079  0.00  0.00    +0.253 C 
ATOM     14  C   UNL A   1     -26.354   0.576  25.777  0.00  0.00    +0.196 C 
ATOM     15  F   UNL A   1     -25.860  -0.681  25.795  0.00  0.00    -0.199 F 
BRANCH  10  16
ATOM     16  C   UNL A   1     -25.642   4.093  27.123  0.00  0.00    +0.267 C 
ATOM     17  N   UNL A   1     -25.614   5.252  26.449  0.00  0.00    -0.200 NA
ATOM     18  C   UNL A   1     -25.026   6.479  26.963  0.00  0.00    +0.139 C 
ATOM     19  O   UNL A   1     -25.143   3.966  28.243  0.00  0.00    -0.268 OA
ENDBRANCH  10  16
BRANCH  13  20
ATOM     20  O   UNL A   1     -28.193  -0.208  24.477  0.00  0.00    -0.456 OA
BRANCH  20  21
ATOM     21  C   UNL A   1     -29.460   0.005  23.866  0.00  0.00    +0.243 C 
BRANCH  21  22
ATOM     22  C   UNL A   1     -30.065  -1.377  23.573  0.00  0.00    +0.229 C 
ATOM     23  O   UNL A   1     -30.729  -1.878  24.721  0.00  0.00    -0.216 OA
ENDBRANCH  21  22
ENDBRANCH  20  21
ENDBRANCH  13  20
ENDBRANCH   4   9
ENDBRANCH   1   7
BRANCH   1  24
ATOM     24  N   UNL A   1     -26.778  -0.009  28.701  0.00  0.00    -0.201 NA
ATOM     25  C   UNL A   1     -28.105   0.540  29.069  0.00  0.00    +0.260 C 
ATOM     26  O   UNL A   1     -29.000   0.006  28.492  0.00  0.00    -0.272 OA
BRANCH  25  28
ATOM     27  C   UNL A   1     -29.298   4.059  30.345  0.00  0.00    +0.036 C 
ATOM     28  C   UNL A   1     -28.248   1.715  30.059  0.00  0.00    +0.180 C 
ATOM     29  C   UNL A   1     -29.590   2.530  30.080  0.00  0.00    +0.032 C 
ATOM     30  C   UNL A   1     -28.168   4.526  31.326  0.00  0.00    +0.168 C 
ATOM     31  N   UNL A   1     -27.070   2.645  30.556  0.00  0.00    -0.076 NA
ATOM     32  O   UNL A   1     -27.591   3.282  31.745  0.00  0.00    -0.266 OA
ENDBRANCH  25  28
ENDBRANCH   1  24
BRANCH   1  33
ATOM     33  C   UNL A   1     -24.855  -1.012  30.143  0.00  0.00    +0.063 C 
BRANCH  33  34
ATOM     34  C   UNL A   1     -24.973  -2.505  29.788  0.00  0.00    -0.019 C 
ATOM     35  C   UNL A   1     -23.906  -3.173  29.146  0.00  0.00    -0.004 C 
ATOM     36  C   UNL A   1     -23.989  -4.549  28.853  0.00  0.00    -0.000 C 
ATOM     37  C   UNL A   1     -25.137  -5.280  29.205  0.00  0.00    -0.000 C 
ATOM     38  C   UNL A   1     -26.232  -4.611  29.784  0.00  0.00    -0.000 C 
ATOM     39  C   UNL A   1     -26.155  -3.232  30.065  0.00  0.00    -0.004 C 
ENDBRANCH  33  34
BRANCH  33  40
ATOM     40  C   UNL A   1     -25.387  -0.679  31.571  0.00  0.00    +0.079 C 
ATOM     41  C   UNL A   1     -25.189   0.773  32.028  0.00  0.00    +0.019 C 
ATOM     42  C   UNL A   1     -25.336   0.684  33.544  0.00  0.00    +0.020 C 
ATOM     43  C   UNL A   1     -24.829  -0.715  33.905  0.00  0.00    +0.089 C 
ATOM     44  N   UNL A   1     -24.758  -1.481  32.646  0.00  0.00    -0.219 NA
ENDBRANCH  33  40
ENDBRANCH   1  33
TORSDOF 11
