MODEL 4077
MODEL 1
REMARK VINA RESULT:    -4.916      0.000      0.000
REMARK INTER + INTRA:          -5.904
REMARK INTER:                  -5.779
REMARK INTRA:                  -0.125
REMARK UNBOUND:                -0.125
REMARK  Name = No_4077-gen_results/8p0m/2024-11-27-11-27-31/
REMARK  3 active torsions:
REMARK  status: ('A' for Active; 'I' for Inactive)
REMARK    1  A    between atoms: C_2  and  C_8
REMARK    2  A    between atoms: C_8  and  N_9
REMARK    3  A    between atoms: N_9  and  C_10
REMARK                            x       y       z     vdW  Elec       q    Type
REMARK                         _______ _______ _______ _____ _____    ______ ____
ROOT
ATOM      1  C   UNL A   1     -24.397  -0.144  27.671  0.00  0.00    -0.002 A 
ATOM      2  C   UNL A   1     -23.530  -0.176  28.269  0.00  0.00    -0.001 A 
ATOM      3  C   UNL A   1     -24.476   1.015  26.702  0.00  0.00    +0.011 A 
ATOM      4  C   UNL A   1     -23.363   1.870  26.556  0.00  0.00    +0.058 A 
ATOM      5  C   UNL A   1     -22.240   0.551  28.293  0.00  0.00    -0.002 A 
ATOM      6  C   UNL A   1     -22.273   1.621  27.410  0.00  0.00    +0.011 A 
ATOM      7 CL   UNL A   1     -23.395   3.166  25.538  0.00  0.00    -0.082 Cl
ENDROOT
BRANCH   2   8
ATOM      8  C   UNL A   1     -23.421  -1.426  29.311  0.00  0.00    +0.139 C 
BRANCH   8   9
ATOM      9  N   UNL A   1     -23.347  -2.566  28.932  0.00  0.00    -0.232 NA
BRANCH   9  10
ATOM     10  C   UNL A   1     -24.233  -3.494  29.159  0.00  0.00    +0.081 C 
ATOM     11  C   UNL A   1     -24.148  -4.774  28.531  0.00  0.00    +0.019 C 
ENDBRANCH   9  10
ENDBRANCH   8   9
ENDBRANCH   2   8
TORSDOF 3
ENDMDL
ENDMDL
