REMARK  Name = outputs/IAG933/test6/raw/output_4078_IAG933_linker_design_.xyz
REMARK  11 active torsions:
REMARK  status: ('A' for Active; 'I' for Inactive)
REMARK    1  A    between atoms: C_1  and  C_2
REMARK    2  A    between atoms: C_1  and  C_8
REMARK    3  A    between atoms: C_1  and  C_38
REMARK    4  A    between atoms: C_13  and  C_28
REMARK    5  A    between atoms: C_14  and  C_15
REMARK    6  A    between atoms: C_21  and  O_22
REMARK    7  A    between atoms: O_22  and  C_23
REMARK    8  A    between atoms: C_23  and  C_24
REMARK    9  A    between atoms: N_29  and  C_38
REMARK   10  A    between atoms: C_31  and  C_38
REMARK   11  A    between atoms: C_36  and  C_39
REMARK                            x       y       z     vdW  Elec       q    Type
REMARK                         _______ _______ _______ _____ _____    ______ ____
ROOT
ATOM      1  C   UNL A   1     -24.454   1.472  27.108  0.00  0.00    +0.107 C 
ATOM      2  C   UNL A   1     -22.643   0.418  28.314  0.00  0.00    +0.233 C 
ATOM      3  C   UNL A   1     -24.181   0.663  28.267  0.00  0.00    +0.078 C 
ATOM      4  O   UNL A   1     -22.146   0.692  29.659  0.00  0.00    -0.215 OA
ATOM      5  F   UNL A   1     -20.792   1.645  27.654  0.00  0.00    -0.183 F 
ATOM      6  C   UNL A   1     -22.098   1.204  27.129  0.00  0.00    +0.354 C 
ATOM      7  N   UNL A   1     -23.172   2.087  26.896  0.00  0.00    -0.157 NA
ATOM      8  F   UNL A   1     -22.103   1.752  26.014  0.00  0.00    -0.183 F 
ENDROOT
BRANCH   1   9
ATOM      9  C   UNL A   1     -25.688   1.614  26.461  0.00  0.00    +0.032 C 
ATOM     10  C   UNL A   1     -26.250   2.920  26.395  0.00  0.00    +0.074 C 
ATOM     11  C   UNL A   1     -27.438   3.091  25.645  0.00  0.00    +0.106 C 
ATOM     12  N   UNL A   1     -28.075   2.089  25.003  0.00  0.00    -0.208 NA
ATOM     13  C   UNL A   1     -27.543   0.849  25.079  0.00  0.00    +0.253 C 
ATOM     14  C   UNL A   1     -26.354   0.576  25.777  0.00  0.00    +0.190 C 
ATOM     15  F   UNL A   1     -25.860  -0.681  25.795  0.00  0.00    -0.200 F 
BRANCH  10  16
ATOM     16  C   UNL A   1     -25.642   4.093  27.123  0.00  0.00    +0.266 C 
ATOM     17  N   UNL A   1     -25.614   5.252  26.449  0.00  0.00    -0.200 NA
ATOM     18  C   UNL A   1     -25.026   6.479  26.963  0.00  0.00    +0.139 C 
ATOM     19  O   UNL A   1     -25.143   3.966  28.243  0.00  0.00    -0.268 OA
ENDBRANCH  10  16
BRANCH  13  20
ATOM     20  O   UNL A   1     -28.193  -0.208  24.477  0.00  0.00    -0.456 OA
BRANCH  20  21
ATOM     21  C   UNL A   1     -29.460   0.005  23.866  0.00  0.00    +0.243 C 
BRANCH  21  22
ATOM     22  C   UNL A   1     -30.065  -1.377  23.573  0.00  0.00    +0.229 C 
ATOM     23  O   UNL A   1     -30.729  -1.878  24.721  0.00  0.00    -0.216 OA
ENDBRANCH  21  22
ENDBRANCH  20  21
ENDBRANCH  13  20
ENDBRANCH   1   9
BRANCH   3  24
ATOM     24  C   UNL A   1     -25.158   0.088  29.118  0.00  0.00    +0.105 C 
BRANCH  24  25
ATOM     25  N   UNL A   1     -26.424   0.785  29.235  0.00  0.00    -0.207 NA
ATOM     26  C   UNL A   1     -27.698   0.836  28.787  0.00  0.00    +0.241 C 
ATOM     27  O   UNL A   1     -28.203   0.095  27.975  0.00  0.00    -0.273 OA
BRANCH  26  29
ATOM     28  C   UNL A   1     -29.977   1.490  29.351  0.00  0.00    +0.010 C 
ATOM     29  C   UNL A   1     -28.503   1.891  29.430  0.00  0.00    +0.087 C 
ENDBRANCH  26  29
ENDBRANCH  24  25
BRANCH  24  30
ATOM     30  C   UNL A   1     -24.855  -1.012  30.143  0.00  0.00    +0.058 C 
BRANCH  30  31
ATOM     31  C   UNL A   1     -24.973  -2.505  29.788  0.00  0.00    -0.019 C 
ATOM     32  C   UNL A   1     -23.906  -3.173  29.146  0.00  0.00    -0.004 C 
ATOM     33  C   UNL A   1     -23.989  -4.549  28.853  0.00  0.00    -0.000 C 
ATOM     34  C   UNL A   1     -25.137  -5.280  29.205  0.00  0.00    -0.000 C 
ATOM     35  C   UNL A   1     -26.232  -4.611  29.784  0.00  0.00    -0.000 C 
ATOM     36  C   UNL A   1     -26.155  -3.232  30.065  0.00  0.00    -0.004 C 
ENDBRANCH  30  31
BRANCH  30  37
ATOM     37  C   UNL A   1     -25.387  -0.679  31.571  0.00  0.00    +0.079 C 
ATOM     38  C   UNL A   1     -25.189   0.773  32.028  0.00  0.00    +0.019 C 
ATOM     39  C   UNL A   1     -25.336   0.684  33.544  0.00  0.00    +0.020 C 
ATOM     40  C   UNL A   1     -24.829  -0.715  33.905  0.00  0.00    +0.089 C 
ATOM     41  N   UNL A   1     -24.758  -1.481  32.646  0.00  0.00    -0.219 NA
ENDBRANCH  30  37
ENDBRANCH  24  30
ENDBRANCH   3  24
TORSDOF 11
