REMARK  Name = outputs/IAG933/test6/raw/output_4079_IAG933_linker_design_.xyz
REMARK  9 active torsions:
REMARK  status: ('A' for Active; 'I' for Inactive)
REMARK    1  A    between atoms: C_1  and  C_2
REMARK    2  A    between atoms: C_13  and  C_39
REMARK    3  A    between atoms: C_14  and  C_15
REMARK    4  A    between atoms: C_21  and  O_22
REMARK    5  A    between atoms: O_22  and  C_23
REMARK    6  A    between atoms: C_23  and  C_24
REMARK    7  A    between atoms: C_30  and  C_40
REMARK    8  A    between atoms: C_34  and  C_41
REMARK    9  A    between atoms: C_37  and  C_40
REMARK                            x       y       z     vdW  Elec       q    Type
REMARK                         _______ _______ _______ _____ _____    ______ ____
ROOT
ATOM      1  C   UNL A   1     -21.818   1.435  28.648  0.00  0.00    +0.179 C 
ATOM      2  C   UNL A   1     -22.045   2.118  26.808  0.00  0.00    +0.180 C 
ATOM      3  O   UNL A   1     -21.204   1.952  27.691  0.00  0.00    -0.447 OA
ATOM      4  C   UNL A   1     -24.267   0.933  28.444  0.00  0.00    +0.030 C 
ATOM      5  C   UNL A   1     -23.046   1.069  29.108  0.00  0.00    +0.041 C 
ATOM      6  C   UNL A   1     -24.427   1.480  27.142  0.00  0.00    +0.006 C 
ATOM      7  C   UNL A   1     -23.320   1.988  26.423  0.00  0.00    +0.041 C 
ENDROOT
BRANCH   4  16
ATOM      8  C   UNL A   1     -24.855  -1.012  30.143  0.00  0.00    +0.092 C 
ATOM      9  C   UNL A   1     -25.387  -0.679  31.571  0.00  0.00    +0.087 C 
ATOM     10  C   UNL A   1     -25.189   0.773  32.028  0.00  0.00    +0.054 C 
ATOM     11  C   UNL A   1     -25.336   0.684  33.544  0.00  0.00    +0.026 C 
ATOM     12  C   UNL A   1     -24.829  -0.715  33.905  0.00  0.00    +0.089 C 
ATOM     13  N   UNL A   1     -24.758  -1.481  32.646  0.00  0.00    -0.219 NA
ATOM     14  C   UNL A   1     -25.913   1.927  31.340  0.00  0.00    +0.039 C 
ATOM     15  O   UNL A   1     -26.321  -0.535  28.346  0.00  0.00    -0.196 OA
ATOM     16  C   UNL A   1     -25.416   0.285  29.300  0.00  0.00    +0.233 C 
ATOM     17  N   UNL A   1     -26.091   1.526  29.944  0.00  0.00    -0.249 NA
BRANCH   8  18
ATOM     18  C   UNL A   1     -24.973  -2.505  29.788  0.00  0.00    -0.017 C 
ATOM     19  C   UNL A   1     -23.906  -3.173  29.146  0.00  0.00    -0.004 C 
ATOM     20  C   UNL A   1     -23.989  -4.549  28.853  0.00  0.00    -0.000 C 
ATOM     21  C   UNL A   1     -25.137  -5.280  29.205  0.00  0.00    -0.000 C 
ATOM     22  C   UNL A   1     -26.232  -4.611  29.784  0.00  0.00    -0.000 C 
ATOM     23  C   UNL A   1     -26.155  -3.232  30.065  0.00  0.00    -0.004 C 
ENDBRANCH   8  18
BRANCH  14  24
ATOM     24  C   UNL A   1     -26.418   3.087  32.002  0.00  0.00    +0.090 C 
BRANCH  24  26
ATOM     25  O   UNL A   1     -24.242   3.921  32.447  0.00  0.00    -0.206 OA
ATOM     26  C   UNL A   1     -25.551   4.192  32.579  0.00  0.00    +0.207 C 
ATOM     27  N   UNL A   1     -26.020   4.370  33.893  0.00  0.00    -0.101 NA
ATOM     28  C   UNL A   1     -25.773   5.542  32.089  0.00  0.00    +0.053 C 
ENDBRANCH  24  26
ENDBRANCH  14  24
ENDBRANCH   4  16
BRANCH   6  29
ATOM     29  C   UNL A   1     -25.688   1.614  26.461  0.00  0.00    +0.038 C 
ATOM     30  C   UNL A   1     -26.250   2.920  26.395  0.00  0.00    +0.076 C 
ATOM     31  C   UNL A   1     -27.438   3.091  25.645  0.00  0.00    +0.107 C 
ATOM     32  N   UNL A   1     -28.075   2.089  25.003  0.00  0.00    -0.208 NA
ATOM     33  C   UNL A   1     -27.543   0.849  25.079  0.00  0.00    +0.253 C 
ATOM     34  C   UNL A   1     -26.354   0.576  25.777  0.00  0.00    +0.193 C 
ATOM     35  F   UNL A   1     -25.860  -0.681  25.795  0.00  0.00    -0.199 F 
BRANCH  30  36
ATOM     36  C   UNL A   1     -25.642   4.093  27.123  0.00  0.00    +0.266 C 
ATOM     37  N   UNL A   1     -25.614   5.252  26.449  0.00  0.00    -0.200 NA
ATOM     38  C   UNL A   1     -25.026   6.479  26.963  0.00  0.00    +0.139 C 
ATOM     39  O   UNL A   1     -25.143   3.966  28.243  0.00  0.00    -0.268 OA
ENDBRANCH  30  36
BRANCH  33  40
ATOM     40  O   UNL A   1     -28.193  -0.208  24.477  0.00  0.00    -0.456 OA
BRANCH  40  41
ATOM     41  C   UNL A   1     -29.460   0.005  23.866  0.00  0.00    +0.243 C 
BRANCH  41  42
ATOM     42  C   UNL A   1     -30.065  -1.377  23.573  0.00  0.00    +0.229 C 
ATOM     43  O   UNL A   1     -30.729  -1.878  24.721  0.00  0.00    -0.216 OA
ENDBRANCH  41  42
ENDBRANCH  40  41
ENDBRANCH  33  40
ENDBRANCH   6  29
TORSDOF 9
