MODEL 4079
MODEL 1
REMARK VINA RESULT:    -5.195      0.000      0.000
REMARK INTER + INTRA:          -5.565
REMARK INTER:                  -5.499
REMARK INTRA:                  -0.066
REMARK UNBOUND:                -0.066
REMARK  Name = No_4079-gen_results/8p0m/2024-11-27-11-27-31/
REMARK  1 active torsions:
REMARK  status: ('A' for Active; 'I' for Inactive)
REMARK    1  A    between atoms: C_5  and  C_8
REMARK                            x       y       z     vdW  Elec       q    Type
REMARK                         _______ _______ _______ _____ _____    ______ ____
ROOT
ATOM      1 CL   UNL A   1     -23.297   2.736  25.811  0.00  0.00    -0.080 Cl
ATOM      2  C   UNL A   1     -23.249   1.673  26.785  0.00  0.00    +0.087 A 
ATOM      3  C   UNL A   1     -22.374   1.394  27.524  0.00  0.00    +0.178 A 
ATOM      4  C   UNL A   1     -22.417   0.303  28.494  0.00  0.00    +0.174 A 
ATOM      5  C   UNL A   1     -23.573  -0.535  28.542  0.00  0.00    +0.109 A 
ATOM      6  C   UNL A   1     -24.576  -0.213  27.686  0.00  0.00    +0.010 A 
ATOM      7  C   UNL A   1     -24.484   0.822  26.837  0.00  0.00    +0.014 A 
ATOM      8  F   UNL A   1     -21.237   2.085  27.626  0.00  0.00    -0.201 F 
ATOM      9  F   UNL A   1     -21.468  -0.010  29.346  0.00  0.00    -0.202 F 
ENDROOT
BRANCH   5  10
ATOM     10  C   UNL A   1     -23.641  -1.686  29.453  0.00  0.00    +0.390 C 
ATOM     11  O   UNL A   1     -23.673  -1.636  30.585  0.00  0.00    -0.240 OA
ATOM     12  O   UNL A   1     -23.326  -2.887  28.851  0.00  0.00    -0.240 OA
ENDBRANCH   5  10
TORSDOF 1
ENDMDL
ENDMDL
