MODEL 407
MODEL 1
REMARK VINA RESULT:    -6.339      0.000      0.000
REMARK INTER + INTRA:          -6.980
REMARK INTER:                  -6.710
REMARK INTRA:                  -0.270
REMARK UNBOUND:                -0.270
REMARK  Name = No_407-gen_results/8p0m/2024-11-27-11-27-31/
REMARK  1 active torsions:
REMARK  status: ('A' for Active; 'I' for Inactive)
REMARK    1  A    between atoms: C_2  and  C_5
REMARK                            x       y       z     vdW  Elec       q    Type
REMARK                         _______ _______ _______ _____ _____    ______ ____
ROOT
ATOM      1  C   UNL A   1     -24.078  -3.963  28.777  0.00  0.00    +0.002 A 
ATOM      2  C   UNL A   1     -24.415  -3.002  29.046  0.00  0.00    +0.018 A 
ATOM      3  C   UNL A   1     -24.936  -5.056  29.029  0.00  0.00    +0.000 A 
ATOM      4  C   UNL A   1     -26.174  -4.893  29.620  0.00  0.00    +0.000 A 
ATOM      5  C   UNL A   1     -26.520  -3.570  29.924  0.00  0.00    +0.000 A 
ATOM      6  C   UNL A   1     -25.680  -2.523  29.595  0.00  0.00    +0.002 A 
ENDROOT
BRANCH   2   7
ATOM      7  C   UNL A   1     -23.554  -1.763  28.750  0.00  0.00    +0.081 A 
ATOM      8  N   UNL A   1     -22.364  -1.489  29.077  0.00  0.00    -0.244 NA
ATOM      9  C   UNL A   1     -24.159  -0.560  28.030  0.00  0.00    +0.019 A 
ATOM     10  C   UNL A   1     -21.733  -0.325  29.088  0.00  0.00    +0.099 A 
ATOM     11  C   UNL A   1     -23.547   0.602  27.925  0.00  0.00    +0.003 A 
ATOM     12  C   UNL A   1     -22.265   0.732  28.408  0.00  0.00    +0.021 A 
ENDBRANCH   2   7
TORSDOF 1
ENDMDL
ENDMDL
