MODEL 4080
MODEL 1
REMARK VINA RESULT:    -4.261      0.000      0.000
REMARK INTER + INTRA:          -4.261
REMARK INTER:                  -4.261
REMARK INTRA:                   0.000
REMARK UNBOUND:                 0.000
REMARK  Name = No_4080-gen_results/8p0m/2024-11-27-11-27-31/
REMARK  0 active torsions:
REMARK  status: ('A' for Active; 'I' for Inactive)
REMARK                            x       y       z     vdW  Elec       q    Type
REMARK                         _______ _______ _______ _____ _____    ______ ____
ROOT
ATOM      1  C   UNL A   1     -26.220  -4.704  29.658  0.00  0.00    +0.000 A 
ATOM      2  C   UNL A   1     -26.136  -3.656  29.735  0.00  0.00    +0.000 A 
ATOM      3  C   UNL A   1     -25.073  -5.338  29.010  0.00  0.00    +0.000 A 
ATOM      4  C   UNL A   1     -23.991  -4.615  28.569  0.00  0.00    +0.000 A 
ATOM      5  C   UNL A   1     -25.136  -2.651  29.372  0.00  0.00    +0.000 A 
ATOM      6  C   UNL A   1     -24.021  -3.255  28.744  0.00  0.00    +0.000 A 
ENDROOT
TORSDOF 0
ENDMDL
ENDMDL
