MODEL 4081
MODEL 1
REMARK VINA RESULT:    -5.290      0.000      0.000
REMARK INTER + INTRA:          -5.647
REMARK INTER:                  -5.599
REMARK INTRA:                  -0.049
REMARK UNBOUND:                -0.049
REMARK  Name = No_4081-gen_results/8p0m/2024-11-27-11-27-31/
REMARK  1 active torsions:
REMARK  status: ('A' for Active; 'I' for Inactive)
REMARK    1  A    between atoms: C_2  and  C_3
REMARK                            x       y       z     vdW  Elec       q    Type
REMARK                         _______ _______ _______ _____ _____    ______ ____
ROOT
ATOM      1  C   UNL A   1     -28.272 -11.499  32.452  0.00  0.00    +0.081 A 
ATOM      2  C   UNL A   1     -28.773 -10.690  32.845  0.00  0.00    +0.007 A 
ATOM      3  C   UNL A   1     -28.151 -11.942  30.959  0.00  0.00    +0.018 A 
ATOM      4  C   UNL A   1     -29.103 -11.376  30.044  0.00  0.00    +0.058 A 
ATOM      5  C   UNL A   1     -29.842  -9.895  31.903  0.00  0.00    +0.001 A 
ATOM      6  C   UNL A   1     -29.893 -10.280  30.561  0.00  0.00    +0.011 A 
ATOM      7 CL   UNL A   1     -29.186 -11.768  28.442  0.00  0.00    -0.082 Cl
ENDROOT
BRANCH   1   9
ATOM      8  O   UNL A   1     -26.439 -12.810  32.522  0.00  0.00    -0.241 OA
ATOM      9  C   UNL A   1     -27.370 -12.236  33.099  0.00  0.00    +0.388 C 
ATOM     10  O   UNL A   1     -27.315 -12.354  34.499  0.00  0.00    -0.241 OA
ENDBRANCH   1   9
TORSDOF 1
ENDMDL
ENDMDL
