REMARK  Name = No_4082-gen_results/8p0m/2024-11-27-11-27-31/
REMARK  9 active torsions:
REMARK  status: ('A' for Active; 'I' for Inactive)
REMARK    1  A    between atoms: C_3  and  C_4
REMARK    2  A    between atoms: C_4  and  C_8
REMARK    3  A    between atoms: C_5  and  C_25
REMARK    4  A    between atoms: C_7  and  C_14
REMARK    5  A    between atoms: C_10  and  C_28
REMARK    6  A    between atoms: C_15  and  C_20
REMARK    7  A    between atoms: C_28  and  O_30
REMARK    8  A    between atoms: O_30  and  C_31
REMARK    9  A    between atoms: C_31  and  C_32
REMARK                            x       y       z     vdW  Elec       q    Type
REMARK                         _______ _______ _______ _____ _____    ______ ____
ROOT
ATOM      1  C   UNL A   1     -28.016  -0.814  28.878  0.00  0.00    +0.026 A 
ATOM      2  C   UNL A   1     -28.469  -0.785  29.829  0.00  0.00    +0.146 A 
ATOM      3  C   UNL A   1     -26.546  -0.876  28.850  0.00  0.00    -0.015 A 
ATOM      4  C   UNL A   1     -27.918  -1.003  31.188  0.00  0.00    +0.107 A 
ATOM      5  C   UNL A   1     -26.531  -1.079  31.246  0.00  0.00    +0.009 A 
ATOM      6  C   UNL A   1     -25.780  -1.046  30.090  0.00  0.00    -0.003 A 
ATOM      7  F   UNL A   1     -29.883  -0.758  29.923  0.00  0.00    -0.204 F 
ENDROOT
BRANCH   6   8
ATOM      8  C   UNL A   1     -24.375  -1.130  30.172  0.00  0.00    +0.012 A 
ATOM      9  C   UNL A   1     -23.396  -0.161  30.390  0.00  0.00    +0.080 A 
ATOM     10  C   UNL A   1     -23.821  -2.466  29.664  0.00  0.00    +0.035 A 
ATOM     11  C   UNL A   1     -22.063  -0.284  30.194  0.00  0.00    +0.007 A 
ATOM     12  C   UNL A   1     -21.586  -1.424  29.515  0.00  0.00    +0.001 A 
ATOM     13  C   UNL A   1     -22.448  -2.458  29.281  0.00  0.00    +0.007 A 
ATOM     14 BR   UNL A   1     -24.965  -3.735  29.518  0.00  0.00    -0.049 Br
BRANCH   9  15
ATOM     15  C   UNL A   1     -23.939   1.178  31.015  0.00  0.00    +0.388 C 
ATOM     16  O   UNL A   1     -24.518   1.309  32.027  0.00  0.00    -0.241 OA
ATOM     17  O   UNL A   1     -23.695   2.278  30.210  0.00  0.00    -0.241 OA
ENDBRANCH   9  15
ENDBRANCH   6   8
BRANCH   4  18
ATOM     18  C   UNL A   1     -28.767  -1.036  32.421  0.00  0.00    +0.390 C 
ATOM     19  O   UNL A   1     -29.123  -0.158  33.035  0.00  0.00    -0.240 OA
ATOM     20  O   UNL A   1     -28.857  -2.288  32.860  0.00  0.00    -0.240 OA
ENDBRANCH   4  18
BRANCH   3  21
ATOM     21  C   UNL A   1     -25.683  -0.777  27.683  0.00  0.00    +0.053 C 
BRANCH  21  22
ATOM     22  C   UNL A   1     -25.232   0.579  27.329  0.00  0.00    -0.018 A 
ATOM     23  C   UNL A   1     -25.903   1.534  27.425  0.00  0.00    +0.003 A 
ATOM     24  C   UNL A   1     -25.335   2.867  27.080  0.00  0.00    +0.075 A 
ATOM     25  C   UNL A   1     -24.003   2.989  26.647  0.00  0.00    +0.006 A 
ATOM     26  C   UNL A   1     -23.233   1.838  26.612  0.00  0.00    -0.000 A 
ATOM     27  C   UNL A   1     -23.806   0.581  26.992  0.00  0.00    -0.004 A 
BRANCH  24  28
ATOM     28  C   UNL A   1     -26.194   4.116  27.166  0.00  0.00    +0.341 C 
ATOM     29  O   UNL A   1     -27.313   4.040  26.922  0.00  0.00    -0.245 OA
BRANCH  28  30
ATOM     30  O   UNL A   1     -25.565   5.222  27.471  0.00  0.00    -0.445 OA
BRANCH  30  31
ATOM     31  C   UNL A   1     -26.302   6.382  27.674  0.00  0.00    +0.208 C 
BRANCH  31  32
ATOM     32  C   UNL A   1     -25.550   7.533  27.552  0.00  0.00    +0.041 C 
ATOM     33  C   UNL A   1     -24.240   7.457  27.872  0.00  0.00    +0.004 C 
ATOM     34  C   UNL A   1     -26.134   8.742  28.320  0.00  0.00    +0.004 C 
ATOM     35  C   UNL A   1     -25.635   7.952  26.003  0.00  0.00    +0.004 C 
ENDBRANCH  31  32
ENDBRANCH  30  31
ENDBRANCH  28  30
ENDBRANCH  24  28
ENDBRANCH  21  22
ENDBRANCH   3  21
TORSDOF 9
