MODEL 4082
MODEL 1
REMARK VINA RESULT:    -7.633      0.000      0.000
REMARK INTER + INTRA:         -13.797
REMARK INTER:                 -11.648
REMARK INTRA:                  -2.149
REMARK UNBOUND:                -2.149
REMARK  Name = No_4082-gen_results/8p0m/2024-11-27-11-27-31/
REMARK  9 active torsions:
REMARK  status: ('A' for Active; 'I' for Inactive)
REMARK    1  A    between atoms: C_3  and  C_4
REMARK    2  A    between atoms: C_4  and  C_8
REMARK    3  A    between atoms: C_5  and  C_25
REMARK    4  A    between atoms: C_7  and  C_14
REMARK    5  A    between atoms: C_10  and  C_28
REMARK    6  A    between atoms: C_15  and  C_20
REMARK    7  A    between atoms: C_28  and  O_30
REMARK    8  A    between atoms: O_30  and  C_31
REMARK    9  A    between atoms: C_31  and  C_32
REMARK                            x       y       z     vdW  Elec       q    Type
REMARK                         _______ _______ _______ _____ _____    ______ ____
ROOT
ATOM      1  C   UNL A   1     -26.540  -1.774  30.029  0.00  0.00    +0.026 A 
ATOM      2  C   UNL A   1     -26.193  -2.763  29.927  0.00  0.00    +0.146 A 
ATOM      3  C   UNL A   1     -25.758  -0.728  29.349  0.00  0.00    -0.015 A 
ATOM      4  C   UNL A   1     -25.159  -3.358  29.046  0.00  0.00    +0.107 A 
ATOM      5  C   UNL A   1     -24.379  -2.432  28.362  0.00  0.00    +0.009 A 
ATOM      6  C   UNL A   1     -24.650  -1.084  28.455  0.00  0.00    -0.003 A 
ATOM      7  F   UNL A   1     -26.921  -3.819  30.531  0.00  0.00    -0.204 F 
ENDROOT
BRANCH   6   8
ATOM      8  C   UNL A   1     -23.849  -0.164  27.748  0.00  0.00    +0.012 A 
ATOM      9  C   UNL A   1     -22.675   0.505  28.093  0.00  0.00    +0.080 A 
ATOM     10  C   UNL A   1     -24.538   0.399  26.500  0.00  0.00    +0.035 A 
ATOM     11  C   UNL A   1     -22.118   1.563  27.460  0.00  0.00    +0.007 A 
ATOM     12  C   UNL A   1     -22.866   2.217  26.460  0.00  0.00    +0.001 A 
ATOM     13  C   UNL A   1     -24.017   1.633  26.012  0.00  0.00    +0.007 A 
ATOM     14 BR   UNL A   1     -25.906  -0.477  25.950  0.00  0.00    -0.049 Br
BRANCH   9  15
ATOM     15  C   UNL A   1     -21.901  -0.131  29.308  0.00  0.00    +0.388 C 
ATOM     16  O   UNL A   1     -22.134   0.003  30.450  0.00  0.00    -0.241 OA
ATOM     17  O   UNL A   1     -20.820  -0.898  28.907  0.00  0.00    -0.241 OA
ENDBRANCH   9  15
ENDBRANCH   6   8
BRANCH   4  18
ATOM     18  C   UNL A   1     -24.896  -4.830  28.969  0.00  0.00    +0.390 C 
ATOM     19  O   UNL A   1     -25.335  -5.642  29.618  0.00  0.00    -0.240 OA
ATOM     20  O   UNL A   1     -23.859  -5.050  28.166  0.00  0.00    -0.240 OA
ENDBRANCH   4  18
BRANCH   3  21
ATOM     21  C   UNL A   1     -25.937   0.712  29.453  0.00  0.00    +0.053 C 
BRANCH  21  22
ATOM     22  C   UNL A   1     -27.313   1.204  29.276  0.00  0.00    -0.018 A 
ATOM     23  C   UNL A   1     -27.864   1.239  28.243  0.00  0.00    +0.003 A 
ATOM     24  C   UNL A   1     -29.274   1.716  28.180  0.00  0.00    +0.075 A 
ATOM     25  C   UNL A   1     -29.948   2.118  29.347  0.00  0.00    +0.006 A 
ATOM     26  C   UNL A   1     -29.273   1.997  30.551  0.00  0.00    -0.000 A 
ATOM     27  C   UNL A   1     -27.932   1.494  30.572  0.00  0.00    -0.004 A 
BRANCH  24  28
ATOM     28  C   UNL A   1     -29.999   1.801  26.849  0.00  0.00    +0.341 C 
ATOM     29  O   UNL A   1     -31.053   2.256  26.818  0.00  0.00    -0.245 OA
BRANCH  28  30
ATOM     30  O   UNL A   1     -29.371   1.289  25.822  0.00  0.00    -0.445 OA
BRANCH  30  31
ATOM     31  C   UNL A   1     -29.796   0.069  25.312  0.00  0.00    +0.208 C 
BRANCH  31  32
ATOM     32  C   UNL A   1     -29.676  -0.018  23.940  0.00  0.00    +0.041 C 
ATOM     33  C   UNL A   1     -30.753   0.322  23.199  0.00  0.00    +0.004 C 
ATOM     34  C   UNL A   1     -29.205  -1.405  23.443  0.00  0.00    +0.004 C 
ATOM     35  C   UNL A   1     -28.488   0.986  23.537  0.00  0.00    +0.004 C 
ENDBRANCH  31  32
ENDBRANCH  30  31
ENDBRANCH  28  30
ENDBRANCH  24  28
ENDBRANCH  21  22
ENDBRANCH   3  21
TORSDOF 9
ENDMDL
ENDMDL
