MODEL 4083
MODEL 1
REMARK VINA RESULT:    -6.732      0.000      0.000
REMARK INTER + INTRA:          -9.957
REMARK INTER:                  -9.094
REMARK INTRA:                  -0.863
REMARK UNBOUND:                -0.863
REMARK  Name = No_4083-gen_results/8p0m/2024-11-27-11-27-31/
REMARK  6 active torsions:
REMARK  status: ('A' for Active; 'I' for Inactive)
REMARK    1  A    between atoms: C_2  and  C_3
REMARK    2  A    between atoms: C_5  and  C_6
REMARK    3  A    between atoms: C_7  and  C_8
REMARK    4  A    between atoms: C_8  and  C_10
REMARK    5  A    between atoms: C_10  and  C_11
REMARK    6  A    between atoms: C_11  and  C_12
REMARK                            x       y       z     vdW  Elec       q    Type
REMARK                         _______ _______ _______ _____ _____    ______ ____
ROOT
ATOM      1  C   UNL A   1     -22.963   0.702  28.943  0.00  0.00    +0.023 C 
ENDROOT
BRANCH   1   3
ATOM      2  C   UNL A   1     -23.434   1.164  26.629  0.00  0.00    +0.041 C 
ATOM      3  C   UNL A   1     -22.761   1.154  27.683  0.00  0.00    -0.036 C 
ATOM      4  C   UNL A   1     -21.430   1.869  27.340  0.00  0.00    +0.027 C 
BRANCH   2   6
ATOM      5  C   UNL A   1     -25.416   0.331  25.339  0.00  0.00    +0.012 C 
ATOM      6  C   UNL A   1     -24.465   0.684  25.686  0.00  0.00    -0.054 C 
BRANCH   5   8
ATOM      7  O   UNL A   1     -27.318   0.089  24.377  0.00  0.00    -0.244 OA
ATOM      8  C   UNL A   1     -26.160  -0.110  24.763  0.00  0.00    +0.376 C 
ATOM      9  F   UNL A   1     -25.809  -1.512  24.410  0.00  0.00    -0.149 F 
ENDBRANCH   5   8
ENDBRANCH   2   6
ENDBRANCH   1   3
BRANCH   1  10
ATOM     10  C   UNL A   1     -24.017  -0.407  29.052  0.00  0.00    +0.009 C 
BRANCH  10  11
ATOM     11  C   UNL A   1     -23.384  -1.735  28.969  0.00  0.00    +0.027 C 
BRANCH  11  12
ATOM     12  C   UNL A   1     -24.220  -2.838  29.363  0.00  0.00    -0.022 A 
ATOM     13  C   UNL A   1     -23.925  -4.059  28.737  0.00  0.00    -0.004 A 
ATOM     14  C   UNL A   1     -24.900  -5.198  29.070  0.00  0.00    -0.000 A 
ATOM     15  C   UNL A   1     -26.135  -4.832  29.596  0.00  0.00    -0.000 A 
ATOM     16  C   UNL A   1     -26.480  -3.528  29.935  0.00  0.00    -0.000 A 
ATOM     17  C   UNL A   1     -25.519  -2.543  29.792  0.00  0.00    -0.004 A 
ENDBRANCH  11  12
ENDBRANCH  10  11
ENDBRANCH   1  10
TORSDOF 6
ENDMDL
ENDMDL
