MODEL 4084
MODEL 1
REMARK VINA RESULT:    -7.467      0.000      0.000
REMARK INTER + INTRA:         -10.845
REMARK INTER:                 -10.086
REMARK INTRA:                  -0.759
REMARK UNBOUND:                -0.759
REMARK  Name = No_4084-gen_results/8p0m/2024-11-27-11-27-31/
REMARK  6 active torsions:
REMARK  status: ('A' for Active; 'I' for Inactive)
REMARK    1  A    between atoms: C_2  and  O_7
REMARK    2  A    between atoms: C_3  and  C_18
REMARK    3  A    between atoms: O_7  and  C_8
REMARK    4  A    between atoms: C_8  and  C_21
REMARK    5  A    between atoms: C_9  and  C_10
REMARK    6  A    between atoms: C_11  and  C_12
REMARK                            x       y       z     vdW  Elec       q    Type
REMARK                         _______ _______ _______ _____ _____    ______ ____
ROOT
ATOM      1  C   UNL A   1     -25.946   1.604  26.877  0.00  0.00    +0.200 C 
ATOM      2  C   UNL A   1     -25.838   0.987  27.852  0.00  0.00    +0.042 C 
ENDROOT
BRANCH   1   3
ATOM      3  C   UNL A   1     -25.734   3.033  26.783  0.00  0.00    +0.299 C 
ATOM      4  O   UNL A   1     -24.903   3.585  26.087  0.00  0.00    -0.265 OA
ATOM      5  N   UNL A   1     -26.726   3.958  27.323  0.00  0.00    -0.197 NA
ATOM      6  C   UNL A   1     -26.660   5.381  27.190  0.00  0.00    +0.139 C 
ENDBRANCH   1   3
BRANCH   2   7
ATOM      7  C   UNL A   1     -25.837  -0.459  27.800  0.00  0.00    -0.001 C 
ATOM      8  C   UNL A   1     -25.069  -1.033  28.745  0.00  0.00    -0.022 C 
ATOM      9  C   UNL A   1     -23.527  -0.743  28.750  0.00  0.00    +0.031 C 
BRANCH   8  10
ATOM     10  C   UNL A   1     -25.141  -2.489  28.927  0.00  0.00    -0.004 A 
ATOM     11  C   UNL A   1     -24.054  -3.261  28.434  0.00  0.00    -0.000 A 
ATOM     12  C   UNL A   1     -24.081  -4.681  28.580  0.00  0.00    -0.000 A 
ATOM     13  C   UNL A   1     -25.162  -5.248  29.188  0.00  0.00    -0.000 A 
ATOM     14  C   UNL A   1     -26.184  -4.516  29.674  0.00  0.00    -0.000 A 
ATOM     15  C   UNL A   1     -26.172  -3.155  29.522  0.00  0.00    -0.000 A 
ENDBRANCH   8  10
ENDBRANCH   2   7
BRANCH   1  16
ATOM     16  O   UNL A   1     -25.842   1.146  25.624  0.00  0.00    -0.449 OA
BRANCH  16  18
ATOM     17  C   UNL A   1     -27.296  -0.019  24.470  0.00  0.00    +0.039 A 
ATOM     18  C   UNL A   1     -27.073   0.853  25.017  0.00  0.00    +0.145 A 
ATOM     19  C   UNL A   1     -28.708  -0.140  24.110  0.00  0.00    +0.047 A 
ATOM     20  C   UNL A   1     -29.218   0.624  23.292  0.00  0.00    +0.001 A 
ATOM     21  C   UNL A   1     -27.575   2.233  24.447  0.00  0.00    +0.037 A 
ATOM     22  C   UNL A   1     -28.820   2.105  23.748  0.00  0.00    +0.003 A 
BRANCH  19  23
ATOM     23  C   UNL A   1     -29.298  -1.582  23.692  0.00  0.00    +0.341 C 
ATOM     24  F   UNL A   1     -30.180  -1.875  24.164  0.00  0.00    -0.193 F 
ATOM     25  F   UNL A   1     -28.712  -1.910  22.851  0.00  0.00    -0.193 F 
ENDBRANCH  19  23
ENDBRANCH  16  18
ENDBRANCH   1  16
TORSDOF 6
ENDMDL
ENDMDL
