MODEL 4085
MODEL 1
REMARK VINA RESULT:    -4.451      0.000      0.000
REMARK INTER + INTRA:          -4.451
REMARK INTER:                  -4.451
REMARK INTRA:                   0.000
REMARK UNBOUND:                 0.000
REMARK  Name = No_4085-gen_results/8p0m/2024-11-27-11-27-31/
REMARK  0 active torsions:
REMARK  status: ('A' for Active; 'I' for Inactive)
REMARK                            x       y       z     vdW  Elec       q    Type
REMARK                         _______ _______ _______ _____ _____    ______ ____
ROOT
ATOM      1  C   UNL A   1     -10.298  -9.086  19.432  0.00  0.00    +0.001 A 
ATOM      2  C   UNL A   1      -9.412  -9.154  20.252  0.00  0.00    +0.011 A 
ATOM      3  C   UNL A   1      -8.230  -9.867  20.053  0.00  0.00    +0.058 A 
ATOM      4  C   UNL A   1      -8.059 -10.623  18.828  0.00  0.00    +0.011 A 
ATOM      5  C   UNL A   1      -9.138 -10.505  17.923  0.00  0.00    +0.001 A 
ATOM      6  C   UNL A   1     -10.215  -9.814  18.201  0.00  0.00    +0.000 A 
ATOM      7 CL   UNL A   1      -6.943  -9.991  21.179  0.00  0.00    -0.082 Cl
ENDROOT
TORSDOF 0
ENDMDL
ENDMDL
