MODEL 4086
MODEL 1
REMARK VINA RESULT:    -6.838      0.000      0.000
REMARK INTER + INTRA:          -6.838
REMARK INTER:                  -6.838
REMARK INTRA:                   0.000
REMARK UNBOUND:                 0.000
REMARK  Name = No_4086-gen_results/8p0m/2024-11-27-11-27-31/
REMARK  0 active torsions:
REMARK  status: ('A' for Active; 'I' for Inactive)
REMARK                            x       y       z     vdW  Elec       q    Type
REMARK                         _______ _______ _______ _____ _____    ______ ____
ROOT
ATOM      1  C   UNL A   1     -26.070   0.575  31.048  0.00  0.00    +0.003 A 
ATOM      2  C   UNL A   1     -25.339   1.317  31.210  0.00  0.00    +0.000 A 
ATOM      3  C   UNL A   1     -25.518  -0.704  30.605  0.00  0.00    +0.042 A 
ATOM      4  C   UNL A   1     -26.330  -1.927  30.413  0.00  0.00    +0.196 C 
ATOM      5  C   UNL A   1     -23.888   1.375  31.096  0.00  0.00    +0.000 A 
ATOM      6  C   UNL A   1     -23.330   0.189  30.667  0.00  0.00    +0.003 A 
ATOM      7  C   UNL A   1     -24.117  -0.883  30.464  0.00  0.00    +0.042 A 
ATOM      8  C   UNL A   1     -25.700  -2.973  29.711  0.00  0.00    +0.042 A 
ATOM      9  C   UNL A   1     -26.307  -4.228  29.759  0.00  0.00    +0.003 A 
ATOM     10  C   UNL A   1     -25.512  -5.358  29.229  0.00  0.00    +0.000 A 
ATOM     11  C   UNL A   1     -24.307  -5.100  28.547  0.00  0.00    +0.000 A 
ATOM     12  C   UNL A   1     -23.873  -3.803  28.439  0.00  0.00    +0.003 A 
ATOM     13  C   UNL A   1     -24.490  -2.761  29.093  0.00  0.00    +0.042 A 
ATOM     14  C   UNL A   1     -23.672  -1.609  29.444  0.00  0.00    +0.196 C 
ATOM     15  O   UNL A   1     -22.438  -1.618  28.978  0.00  0.00    -0.287 OA
ATOM     16  O   UNL A   1     -27.494  -1.971  30.792  0.00  0.00    -0.287 OA
ENDROOT
TORSDOF 0
ENDMDL
ENDMDL
