REMARK  Name = No_4086-gen_results/8p0m/2024-11-27-11-27-31/
REMARK  0 active torsions:
REMARK  status: ('A' for Active; 'I' for Inactive)
REMARK                            x       y       z     vdW  Elec       q    Type
REMARK                         _______ _______ _______ _____ _____    ______ ____
ROOT
ATOM      1  C   UNL A   1     -28.016  -0.814  28.878  0.00  0.00    +0.003 A 
ATOM      2  C   UNL A   1     -28.469  -0.785  29.829  0.00  0.00    +0.000 A 
ATOM      3  C   UNL A   1     -27.087   0.290  28.638  0.00  0.00    +0.042 A 
ATOM      4  C   UNL A   1     -26.252   0.411  27.422  0.00  0.00    +0.196 C 
ATOM      5  C   UNL A   1     -28.391   0.104  30.980  0.00  0.00    +0.000 A 
ATOM      6  C   UNL A   1     -27.533   1.167  30.787  0.00  0.00    +0.003 A 
ATOM      7  C   UNL A   1     -26.828   1.256  29.645  0.00  0.00    +0.042 A 
ATOM      8  C   UNL A   1     -25.644   1.665  27.222  0.00  0.00    +0.042 A 
ATOM      9  C   UNL A   1     -24.632   1.737  26.265  0.00  0.00    +0.003 A 
ATOM     10  C   UNL A   1     -23.843   2.989  26.242  0.00  0.00    +0.000 A 
ATOM     11  C   UNL A   1     -24.258   4.086  27.022  0.00  0.00    +0.000 A 
ATOM     12  C   UNL A   1     -25.359   3.945  27.829  0.00  0.00    +0.003 A 
ATOM     13  C   UNL A   1     -25.986   2.734  28.016  0.00  0.00    +0.042 A 
ATOM     14  C   UNL A   1     -26.679   2.525  29.279  0.00  0.00    +0.196 C 
ATOM     15  O   UNL A   1     -26.753   3.575  30.074  0.00  0.00    -0.287 OA
ATOM     16  O   UNL A   1     -26.169  -0.516  26.625  0.00  0.00    -0.287 OA
ENDROOT
TORSDOF 0
