MODEL 4087
MODEL 1
REMARK VINA RESULT:    -6.610      0.000      0.000
REMARK INTER + INTRA:          -9.380
REMARK INTER:                  -8.156
REMARK INTRA:                  -1.223
REMARK UNBOUND:                -1.223
REMARK  Name = No_4087-gen_results/8p0m/2024-11-27-11-27-31/
REMARK  4 active torsions:
REMARK  status: ('A' for Active; 'I' for Inactive)
REMARK    1  A    between atoms: C_5  and  C_11
REMARK    2  A    between atoms: C_11  and  N_14
REMARK    3  A    between atoms: N_14  and  C_15
REMARK    4  A    between atoms: C_15  and  C_16
REMARK                            x       y       z     vdW  Elec       q    Type
REMARK                         _______ _______ _______ _____ _____    ______ ____
ROOT
ATOM      1  C   UNL A   1     -25.432   0.760  33.437  0.00  0.00    +0.050 A 
ATOM      2  C   UNL A   1     -26.373   0.907  33.889  0.00  0.00    +0.249 C 
ATOM      3  C   UNL A   1     -25.058  -0.654  33.313  0.00  0.00    +0.004 A 
ATOM      4  C   UNL A   1     -23.875  -1.058  32.529  0.00  0.00    -0.003 A 
ATOM      5  C   UNL A   1     -23.515  -0.256  31.423  0.00  0.00    -0.005 A 
ATOM      6  C   UNL A   1     -24.160   1.015  31.262  0.00  0.00    -0.007 A 
ATOM      7  C   UNL A   1     -25.120   1.408  32.099  0.00  0.00    -0.016 A 
ATOM      8  N   UNL A   1     -26.825   2.295  34.003  0.00  0.00    -0.274 N 
ATOM      9  O   UNL A   1     -27.029   0.224  34.798  0.00  0.00    -0.270 OA
ATOM     10  C   UNL A   1     -27.842   2.840  34.959  0.00  0.00    +0.115 C 
ATOM     11  C   UNL A   1     -26.347   3.286  33.128  0.00  0.00    +0.098 C 
ATOM     12  C   UNL A   1     -25.508   2.853  31.992  0.00  0.00    +0.048 C 
ENDROOT
BRANCH   5  13
ATOM     13  C   UNL A   1     -22.487  -0.652  30.475  0.00  0.00    +0.115 C 
BRANCH  13  14
ATOM     14  N   UNL A   1     -22.488  -1.320  29.437  0.00  0.00    -0.208 NA
BRANCH  14  15
ATOM     15  C   UNL A   1     -23.755  -1.734  28.977  0.00  0.00    +0.115 C 
BRANCH  15  16
ATOM     16  C   UNL A   1     -24.347  -2.616  29.031  0.00  0.00    -0.009 A 
ATOM     17  C   UNL A   1     -23.970  -3.984  28.548  0.00  0.00    -0.003 A 
ATOM     18  C   UNL A   1     -24.759  -5.075  28.937  0.00  0.00    -0.000 A 
ATOM     19  C   UNL A   1     -25.982  -4.846  29.592  0.00  0.00    -0.000 A 
ATOM     20  C   UNL A   1     -26.385  -3.576  29.899  0.00  0.00    -0.004 A 
ATOM     21  C   UNL A   1     -25.622  -2.618  29.657  0.00  0.00    -0.025 A 
ATOM     22  C   UNL A   1     -26.351  -1.394  29.232  0.00  0.00    +0.031 C 
ENDBRANCH  15  16
ENDBRANCH  14  15
ENDBRANCH  13  14
ENDBRANCH   5  13
TORSDOF 4
ENDMDL
ENDMDL
