MODEL 4088
MODEL 1
REMARK VINA RESULT:    -5.252      0.000      0.000
REMARK INTER + INTRA:          -6.405
REMARK INTER:                  -6.174
REMARK INTRA:                  -0.232
REMARK UNBOUND:                -0.232
REMARK  Name = No_4088-gen_results/8p0m/2024-11-27-11-27-31/
REMARK  3 active torsions:
REMARK  status: ('A' for Active; 'I' for Inactive)
REMARK    1  A    between atoms: C_5  and  C_10
REMARK    2  A    between atoms: C_7  and  O_8
REMARK    3  A    between atoms: N_11  and  C_13
REMARK                            x       y       z     vdW  Elec       q    Type
REMARK                         _______ _______ _______ _____ _____    ______ ____
ROOT
ATOM      1 CL   UNL A   1     -23.203   2.474  25.575  0.00  0.00    -0.079 Cl
ATOM      2  C   UNL A   1     -23.751   1.495  26.347  0.00  0.00    +0.091 A 
ATOM      3  C   UNL A   1     -24.858   0.823  25.929  0.00  0.00    +0.015 A 
ATOM      4  C   UNL A   1     -25.452  -0.302  26.661  0.00  0.00    +0.006 A 
ATOM      5  C   UNL A   1     -24.750  -0.734  27.829  0.00  0.00    +0.058 A 
ATOM      6  C   UNL A   1     -23.591  -0.115  28.179  0.00  0.00    +0.042 A 
ATOM      7  C   UNL A   1     -23.079   0.928  27.472  0.00  0.00    +0.149 A 
ENDROOT
BRANCH   5   8
ATOM      8  C   UNL A   1     -25.290  -1.917  28.569  0.00  0.00    +0.265 C 
ATOM      9  N   UNL A   1     -24.687  -3.015  28.614  0.00  0.00    -0.202 NA
ATOM     10  O   UNL A   1     -26.320  -1.748  29.323  0.00  0.00    -0.268 OA
BRANCH   9  11
ATOM     11  C   UNL A   1     -25.203  -4.223  29.390  0.00  0.00    +0.116 C 
ATOM     12  C   UNL A   1     -24.933  -5.337  28.998  0.00  0.00    +0.025 C 
ENDBRANCH   9  11
ENDBRANCH   5   8
BRANCH   7  13
ATOM     13  O   UNL A   1     -21.938   1.471  27.884  0.00  0.00    -0.471 OA
ATOM     14  C   UNL A   1     -20.932   0.649  28.148  0.00  0.00    +0.253 C 
ENDBRANCH   7  13
TORSDOF 3
ENDMDL
ENDMDL
