MODEL 4089
MODEL 1
REMARK VINA RESULT:    -4.535      0.000      0.000
REMARK INTER + INTRA:          -4.804
REMARK INTER:                  -4.800
REMARK INTRA:                  -0.003
REMARK UNBOUND:                -0.003
REMARK  Name = No_4089-gen_results/8p0m/2024-11-27-11-27-31/
REMARK  1 active torsions:
REMARK  status: ('A' for Active; 'I' for Inactive)
REMARK    1  A    between atoms: C_2  and  C_7
REMARK                            x       y       z     vdW  Elec       q    Type
REMARK                         _______ _______ _______ _____ _____    ______ ____
ROOT
ATOM      1  N   UNL A   1     -23.695  -3.570  28.556  0.00  0.00    -0.244 NA
ATOM      2  C   UNL A   1     -24.460  -2.661  28.884  0.00  0.00    +0.081 A 
ATOM      3  C   UNL A   1     -25.702  -2.966  29.415  0.00  0.00    +0.019 A 
ATOM      4  C   UNL A   1     -26.101  -4.355  29.619  0.00  0.00    +0.003 A 
ATOM      5  C   UNL A   1     -25.188  -5.250  29.194  0.00  0.00    +0.021 A 
ATOM      6  C   UNL A   1     -24.060  -4.893  28.630  0.00  0.00    +0.099 A 
ENDROOT
BRANCH   2   7
ATOM      7  C   UNL A   1     -24.164  -1.223  28.730  0.00  0.00    +0.015 C 
ATOM      8  C   UNL A   1     -23.424  -0.536  29.567  0.00  0.00    -0.024 C 
ATOM      9  C   UNL A   1     -23.319  -1.101  30.958  0.00  0.00    +0.031 C 
ENDBRANCH   2   7
TORSDOF 1
ENDMDL
ENDMDL
