MODEL 408
MODEL 1
REMARK VINA RESULT:    -6.631      0.000      0.000
REMARK INTER + INTRA:          -6.631
REMARK INTER:                  -6.631
REMARK INTRA:                   0.000
REMARK UNBOUND:                 0.000
REMARK  Name = No_408-gen_results/8p0m/2024-11-27-11-27-31/
REMARK  0 active torsions:
REMARK  status: ('A' for Active; 'I' for Inactive)
REMARK                            x       y       z     vdW  Elec       q    Type
REMARK                         _______ _______ _______ _____ _____    ______ ____
ROOT
ATOM      1  C   UNL A   1     -26.424  -4.112  29.817  0.00  0.00    -0.000 A 
ATOM      2  C   UNL A   1     -25.891  -3.030  29.903  0.00  0.00    -0.004 A 
ATOM      3  C   UNL A   1     -24.613  -2.759  29.414  0.00  0.00    -0.000 A 
ATOM      4  C   UNL A   1     -23.842  -3.834  28.821  0.00  0.00    -0.000 A 
ATOM      5  C   UNL A   1     -24.487  -5.068  28.761  0.00  0.00    -0.000 A 
ATOM      6  C   UNL A   1     -25.696  -5.239  29.259  0.00  0.00    -0.000 A 
ATOM      7  C   UNL A   1     -23.885  -1.451  29.474  0.00  0.00    -0.000 A 
ATOM      8  C   UNL A   1     -22.743  -1.200  28.865  0.00  0.00    -0.000 A 
ATOM      9  C   UNL A   1     -22.131   0.085  28.923  0.00  0.00    -0.000 A 
ATOM     10  C   UNL A   1     -22.940   1.186  29.322  0.00  0.00    -0.000 A 
ATOM     11  C   UNL A   1     -24.591  -0.251  29.905  0.00  0.00    -0.000 A 
ATOM     12  C   UNL A   1     -25.951  -0.444  30.436  0.00  0.00    -0.004 A 
ATOM     13  C   UNL A   1     -24.095   1.020  29.861  0.00  0.00    -0.000 A 
ATOM     14  C   UNL A   1     -26.616  -1.796  30.424  0.00  0.00    -0.022 A 
ATOM     15  C   UNL A   1     -27.948  -1.911  30.852  0.00  0.00    +0.031 C 
ENDROOT
TORSDOF 0
ENDMDL
ENDMDL
