MODEL 4090
MODEL 1
REMARK VINA RESULT:    -5.270      0.000      0.000
REMARK INTER + INTRA:          -5.645
REMARK INTER:                  -5.578
REMARK INTRA:                  -0.067
REMARK UNBOUND:                -0.067
REMARK  Name = No_4090-gen_results/8p0m/2024-11-27-11-27-31/
REMARK  1 active torsions:
REMARK  status: ('A' for Active; 'I' for Inactive)
REMARK    1  A    between atoms: C_6  and  C_7
REMARK                            x       y       z     vdW  Elec       q    Type
REMARK                         _______ _______ _______ _____ _____    ______ ____
ROOT
ATOM      1  C   UNL A   1     -24.127  -4.091  28.705  0.00  0.00    +0.005 A 
ATOM      2  C   UNL A   1     -24.811  -5.050  28.975  0.00  0.00    +0.000 A 
ATOM      3  C   UNL A   1     -26.061  -4.897  29.565  0.00  0.00    +0.000 A 
ATOM      4  C   UNL A   1     -26.559  -3.592  29.917  0.00  0.00    +0.000 A 
ATOM      5  C   UNL A   1     -25.693  -2.541  29.592  0.00  0.00    +0.005 A 
ATOM      6  C   UNL A   1     -24.514  -2.740  29.049  0.00  0.00    +0.055 A 
ENDROOT
BRANCH   6   7
ATOM      7  C   UNL A   1     -23.669  -1.547  28.804  0.00  0.00    +0.265 C 
ATOM      8  N   UNL A   1     -24.102  -0.605  28.083  0.00  0.00    -0.200 NA
ATOM      9  O   UNL A   1     -22.409  -1.646  29.008  0.00  0.00    -0.268 OA
ATOM     10  C   UNL A   1     -23.547   0.587  27.796  0.00  0.00    +0.139 C 
ENDBRANCH   6   7
TORSDOF 1
ENDMDL
ENDMDL
