REMARK  Name = outputs/IAG933/test6/raw/output_4090_IAG933_linker_design_.xyz
REMARK  14 active torsions:
REMARK  status: ('A' for Active; 'I' for Inactive)
REMARK    1  A    between atoms: C_1  and  C_2
REMARK    2  A    between atoms: C_1  and  C_8
REMARK    3  A    between atoms: C_1  and  C_37
REMARK    4  A    between atoms: C_13  and  C_28
REMARK    5  A    between atoms: C_14  and  C_15
REMARK    6  A    between atoms: C_21  and  O_22
REMARK    7  A    between atoms: O_22  and  C_23
REMARK    8  A    between atoms: C_23  and  C_24
REMARK    9  A    between atoms: C_29  and  C_30
REMARK   10  A    between atoms: C_29  and  N_32
REMARK   11  A    between atoms: C_30  and  N_39
REMARK   12  A    between atoms: N_32  and  C_37
REMARK   13  A    between atoms: O_34  and  C_45
REMARK   14  A    between atoms: C_37  and  C_40
REMARK                            x       y       z     vdW  Elec       q    Type
REMARK                         _______ _______ _______ _____ _____    ______ ____
ROOT
ATOM      1  C   UNL A   1     -25.135  -0.051  29.030  0.00  0.00    +0.100 C 
ENDROOT
BRANCH   1   4
ATOM      2  C   UNL A   1     -24.300   1.365  27.150  0.00  0.00    -0.000 C 
ATOM      3  C   UNL A   1     -23.184   1.854  26.389  0.00  0.00    -0.000 C 
ATOM      4  C   UNL A   1     -24.010   0.666  28.444  0.00  0.00    -0.006 C 
ATOM      5  C   UNL A   1     -22.654   0.686  29.023  0.00  0.00    -0.003 C 
ATOM      6  C   UNL A   1     -21.596   1.249  28.267  0.00  0.00    -0.000 C 
ATOM      7  C   UNL A   1     -21.849   1.823  26.962  0.00  0.00    -0.000 C 
BRANCH   2   8
ATOM      8  C   UNL A   1     -25.688   1.614  26.461  0.00  0.00    +0.038 C 
ATOM      9  C   UNL A   1     -26.250   2.920  26.395  0.00  0.00    +0.076 C 
ATOM     10  C   UNL A   1     -27.438   3.091  25.645  0.00  0.00    +0.107 C 
ATOM     11  N   UNL A   1     -28.075   2.089  25.003  0.00  0.00    -0.208 NA
ATOM     12  C   UNL A   1     -27.543   0.849  25.079  0.00  0.00    +0.253 C 
ATOM     13  C   UNL A   1     -26.354   0.576  25.777  0.00  0.00    +0.193 C 
ATOM     14  F   UNL A   1     -25.860  -0.681  25.795  0.00  0.00    -0.199 F 
BRANCH   9  15
ATOM     15  C   UNL A   1     -25.642   4.093  27.123  0.00  0.00    +0.266 C 
ATOM     16  N   UNL A   1     -25.614   5.252  26.449  0.00  0.00    -0.200 NA
ATOM     17  C   UNL A   1     -25.026   6.479  26.963  0.00  0.00    +0.139 C 
ATOM     18  O   UNL A   1     -25.143   3.966  28.243  0.00  0.00    -0.268 OA
ENDBRANCH   9  15
BRANCH  12  19
ATOM     19  O   UNL A   1     -28.193  -0.208  24.477  0.00  0.00    -0.456 OA
BRANCH  19  20
ATOM     20  C   UNL A   1     -29.460   0.005  23.866  0.00  0.00    +0.243 C 
BRANCH  20  21
ATOM     21  C   UNL A   1     -30.065  -1.377  23.573  0.00  0.00    +0.229 C 
ATOM     22  O   UNL A   1     -30.729  -1.878  24.721  0.00  0.00    -0.216 OA
ENDBRANCH  20  21
ENDBRANCH  19  20
ENDBRANCH  12  19
ENDBRANCH   2   8
ENDBRANCH   1   4
BRANCH   1  23
ATOM     23  C   UNL A   1     -24.855  -1.012  30.143  0.00  0.00    +0.059 C 
BRANCH  23  24
ATOM     24  C   UNL A   1     -24.973  -2.505  29.788  0.00  0.00    -0.019 C 
ATOM     25  C   UNL A   1     -23.906  -3.173  29.146  0.00  0.00    -0.004 C 
ATOM     26  C   UNL A   1     -23.989  -4.549  28.853  0.00  0.00    -0.000 C 
ATOM     27  C   UNL A   1     -25.137  -5.280  29.205  0.00  0.00    -0.000 C 
ATOM     28  C   UNL A   1     -26.232  -4.611  29.784  0.00  0.00    -0.000 C 
ATOM     29  C   UNL A   1     -26.155  -3.232  30.065  0.00  0.00    -0.004 C 
ENDBRANCH  23  24
BRANCH  23  30
ATOM     30  C   UNL A   1     -25.387  -0.679  31.571  0.00  0.00    +0.079 C 
ATOM     31  C   UNL A   1     -25.189   0.773  32.028  0.00  0.00    +0.019 C 
ATOM     32  C   UNL A   1     -25.336   0.684  33.544  0.00  0.00    +0.020 C 
ATOM     33  C   UNL A   1     -24.829  -0.715  33.905  0.00  0.00    +0.089 C 
ATOM     34  N   UNL A   1     -24.758  -1.481  32.646  0.00  0.00    -0.219 NA
ENDBRANCH  23  30
ENDBRANCH   1  23
BRANCH   1  35
ATOM     35  N   UNL A   1     -26.314   0.845  29.275  0.00  0.00    -0.213 NA
BRANCH  35  36
ATOM     36  C   UNL A   1     -26.948   1.729  29.655  0.00  0.00    +0.106 C 
BRANCH  36  37
ATOM     37  C   UNL A   1     -27.738   2.789  30.072  0.00  0.00    +0.096 C 
BRANCH  37  41
ATOM     38  C   UNL A   1     -28.230   4.952  30.685  0.00  0.00    +0.224 C 
ATOM     39  C   UNL A   1     -26.221   5.380  31.826  0.00  0.00    +0.317 C 
ATOM     40  O   UNL A   1     -27.160   5.956  30.847  0.00  0.00    -0.308 OA
ATOM     41  N   UNL A   1     -27.555   3.662  30.956  0.00  0.00    -0.217 NA
ATOM     42  O   UNL A   1     -24.974   5.842  31.720  0.00  0.00    -0.185 OA
ATOM     43  C   UNL A   1     -26.462   4.024  31.805  0.00  0.00    +0.277 C 
BRANCH  43  44
ATOM     44  O   UNL A   1     -25.624   3.267  32.453  0.00  0.00    -0.169 OA
ATOM     45  O   UNL A   1     -24.271   3.348  32.658  0.00  0.00    -0.033 OA
ENDBRANCH  43  44
ENDBRANCH  37  41
ENDBRANCH  36  37
ENDBRANCH  35  36
ENDBRANCH   1  35
TORSDOF 14
