REMARK  Name = outputs/IAG933/test6/raw/output_4091_IAG933_linker_design_.xyz
REMARK  11 active torsions:
REMARK  status: ('A' for Active; 'I' for Inactive)
REMARK    1  A    between atoms: C_1  and  C_2
REMARK    2  A    between atoms: C_1  and  C_8
REMARK    3  A    between atoms: C_1  and  C_39
REMARK    4  A    between atoms: C_13  and  C_31
REMARK    5  A    between atoms: C_14  and  C_15
REMARK    6  A    between atoms: C_21  and  O_22
REMARK    7  A    between atoms: O_22  and  C_23
REMARK    8  A    between atoms: C_23  and  C_24
REMARK    9  A    between atoms: C_29  and  C_37
REMARK   10  A    between atoms: N_30  and  C_38
REMARK   11  A    between atoms: C_37  and  C_38
REMARK                            x       y       z     vdW  Elec       q    Type
REMARK                         _______ _______ _______ _____ _____    ______ ____
ROOT
ATOM      1  C   UNL A   1     -22.747   0.828  28.297  0.00  0.00    +0.202 C 
ATOM      2  N   UNL A   1     -26.238  -0.021  28.442  0.00  0.00    -0.061 NA
ATOM      3  C   UNL A   1     -24.294   1.485  26.904  0.00  0.00    +0.167 C 
ATOM      4  C   UNL A   1     -22.104   1.672  27.210  0.00  0.00    +0.055 C 
ATOM      5  C   UNL A   1     -23.252   1.954  26.243  0.00  0.00    +0.051 C 
ATOM      6  C   UNL A   1     -25.007  -0.107  28.869  0.00  0.00    +0.300 C 
ATOM      7  N   UNL A   1     -24.137   0.653  28.065  0.00  0.00    -0.198 N 
ENDROOT
BRANCH   3   8
ATOM      8  C   UNL A   1     -25.688   1.614  26.461  0.00  0.00    +0.113 C 
ATOM      9  C   UNL A   1     -26.250   2.920  26.395  0.00  0.00    +0.059 C 
ATOM     10  C   UNL A   1     -27.438   3.091  25.645  0.00  0.00    +0.102 C 
ATOM     11  N   UNL A   1     -28.075   2.089  25.003  0.00  0.00    -0.212 NA
ATOM     12  C   UNL A   1     -27.543   0.849  25.079  0.00  0.00    +0.234 C 
ATOM     13  C   UNL A   1     -26.354   0.576  25.777  0.00  0.00    +0.244 C 
ATOM     14  F   UNL A   1     -25.860  -0.681  25.795  0.00  0.00    -0.227 F 
BRANCH   9  15
ATOM     15  C   UNL A   1     -25.642   4.093  27.123  0.00  0.00    +0.263 C 
ATOM     16  N   UNL A   1     -25.614   5.252  26.449  0.00  0.00    -0.200 NA
ATOM     17  C   UNL A   1     -25.026   6.479  26.963  0.00  0.00    +0.139 C 
ATOM     18  O   UNL A   1     -25.143   3.966  28.243  0.00  0.00    -0.269 OA
ENDBRANCH   9  15
BRANCH  12  19
ATOM     19  O   UNL A   1     -28.193  -0.208  24.477  0.00  0.00    -0.459 OA
BRANCH  19  20
ATOM     20  C   UNL A   1     -29.460   0.005  23.866  0.00  0.00    +0.242 C 
BRANCH  20  21
ATOM     21  C   UNL A   1     -30.065  -1.377  23.573  0.00  0.00    +0.229 C 
ATOM     22  O   UNL A   1     -30.729  -1.878  24.721  0.00  0.00    -0.216 OA
ENDBRANCH  20  21
ENDBRANCH  19  20
ENDBRANCH  12  19
ENDBRANCH   3   8
BRANCH   6  23
ATOM     23  C   UNL A   1     -24.855  -1.012  30.143  0.00  0.00    +0.143 C 
BRANCH  23  24
ATOM     24  C   UNL A   1     -24.973  -2.505  29.788  0.00  0.00    -0.010 C 
ATOM     25  C   UNL A   1     -23.906  -3.173  29.146  0.00  0.00    -0.004 C 
ATOM     26  C   UNL A   1     -23.989  -4.549  28.853  0.00  0.00    -0.000 C 
ATOM     27  C   UNL A   1     -25.137  -5.280  29.205  0.00  0.00    -0.000 C 
ATOM     28  C   UNL A   1     -26.232  -4.611  29.784  0.00  0.00    -0.000 C 
ATOM     29  C   UNL A   1     -26.155  -3.232  30.065  0.00  0.00    -0.004 C 
ENDBRANCH  23  24
BRANCH  23  30
ATOM     30  C   UNL A   1     -25.387  -0.679  31.571  0.00  0.00    +0.088 C 
ATOM     31  C   UNL A   1     -25.189   0.773  32.028  0.00  0.00    +0.020 C 
ATOM     32  C   UNL A   1     -25.336   0.684  33.544  0.00  0.00    +0.020 C 
ATOM     33  C   UNL A   1     -24.829  -0.715  33.905  0.00  0.00    +0.089 C 
ATOM     34  N   UNL A   1     -24.758  -1.481  32.646  0.00  0.00    -0.218 NA
ENDBRANCH  23  30
ENDBRANCH   6  23
BRANCH   2  35
ATOM     35  C   UNL A   1     -27.513  -0.371  28.803  0.00  0.00    +0.331 C 
BRANCH  35  36
ATOM     36  C   UNL A   1     -28.764   0.402  28.944  0.00  0.00    +0.227 C 
ATOM     37  O   UNL A   1     -29.784  -0.267  28.893  0.00  0.00    -0.287 OA
BRANCH  36  38
ATOM     38  C   UNL A   1     -28.853   1.917  29.148  0.00  0.00    +0.039 C 
ATOM     39  C   UNL A   1     -27.772   3.998  29.674  0.00  0.00    +0.000 C 
ATOM     40  C   UNL A   1     -28.764   4.678  28.950  0.00  0.00    +0.000 C 
ATOM     41  C   UNL A   1     -27.831   2.612  29.808  0.00  0.00    +0.003 C 
ATOM     42  C   UNL A   1     -29.940   2.634  28.602  0.00  0.00    +0.003 C 
ATOM     43  C   UNL A   1     -29.900   4.022  28.460  0.00  0.00    +0.000 C 
ENDBRANCH  36  38
ENDBRANCH  35  36
ENDBRANCH   2  35
TORSDOF 11
