MODEL 4091
MODEL 1
REMARK VINA RESULT:    -7.297      0.000      0.000
REMARK INTER + INTRA:         -10.714
REMARK INTER:                  -9.856
REMARK INTRA:                  -0.858
REMARK UNBOUND:                -0.858
REMARK  Name = No_4091-gen_results/8p0m/2024-11-27-11-27-31/
REMARK  6 active torsions:
REMARK  status: ('A' for Active; 'I' for Inactive)
REMARK    1  A    between atoms: C_3  and  C_7
REMARK    2  A    between atoms: C_6  and  C_14
REMARK    3  A    between atoms: C_7  and  C_28
REMARK    4  A    between atoms: C_8  and  C_10
REMARK    5  A    between atoms: N_15  and  C_16
REMARK    6  A    between atoms: C_17  and  C_24
REMARK                            x       y       z     vdW  Elec       q    Type
REMARK                         _______ _______ _______ _____ _____    ______ ____
ROOT
ATOM      1  C   UNL A   1     -27.258   1.305  26.556  0.00  0.00    +0.005 A 
ATOM      2  C   UNL A   1     -26.423   0.949  27.356  0.00  0.00    +0.000 A 
ATOM      3  C   UNL A   1     -25.335   0.142  27.028  0.00  0.00    -0.000 A 
ATOM      4  C   UNL A   1     -25.209  -0.357  25.672  0.00  0.00    +0.000 A 
ATOM      5  C   UNL A   1     -26.203   0.061  24.788  0.00  0.00    +0.005 A 
ATOM      6  C   UNL A   1     -27.206   0.819  25.187  0.00  0.00    +0.055 A 
ENDROOT
BRANCH   3   7
ATOM      7  C   UNL A   1     -24.265  -0.329  27.954  0.00  0.00    +0.004 C 
ATOM      8  C   UNL A   1     -23.200   0.375  28.194  0.00  0.00    +0.050 C 
ATOM      9  C   UNL A   1     -22.950   1.683  27.740  0.00  0.00    +0.035 C 
BRANCH   8  10
ATOM     10  C   UNL A   1     -22.098  -0.257  29.013  0.00  0.00    +0.415 C 
ATOM     11  F   UNL A   1     -21.986  -1.530  28.920  0.00  0.00    -0.166 F 
ATOM     12  F   UNL A   1     -22.287  -0.025  30.387  0.00  0.00    -0.166 F 
ATOM     13  F   UNL A   1     -20.943   0.313  28.695  0.00  0.00    -0.166 F 
ENDBRANCH   8  10
BRANCH   7  14
ATOM     14  C   UNL A   1     -24.550  -1.685  28.545  0.00  0.00    +0.060 C 
ATOM     15  C   UNL A   1     -25.498  -1.577  29.713  0.00  0.00    +0.279 C 
ATOM     16  F   UNL A   1     -26.290  -2.662  29.817  0.00  0.00    -0.172 F 
ATOM     17  F   UNL A   1     -24.724  -1.544  30.883  0.00  0.00    -0.172 F 
ENDBRANCH   7  14
ENDBRANCH   3   7
BRANCH   6  18
ATOM     18  C   UNL A   1     -28.254   1.183  24.193  0.00  0.00    +0.269 C 
ATOM     19  N   UNL A   1     -29.392   1.805  24.582  0.00  0.00    -0.175 NA
ATOM     20  O   UNL A   1     -28.125   0.884  23.015  0.00  0.00    -0.268 OA
BRANCH  19  21
ATOM     21  C   UNL A   1     -30.554   1.647  23.869  0.00  0.00    +0.079 A 
ATOM     22  C   UNL A   1     -31.393   0.618  24.232  0.00  0.00    +0.070 A 
ATOM     23  C   UNL A   1     -32.544   0.272  23.423  0.00  0.00    +0.007 A 
ATOM     24  C   UNL A   1     -32.754   1.021  22.279  0.00  0.00    +0.012 A 
ATOM     25  C   UNL A   1     -31.873   2.043  21.893  0.00  0.00    +0.059 A 
ATOM     26  C   UNL A   1     -30.639   2.349  22.754  0.00  0.00    +0.028 A 
ATOM     27 CL   UNL A   1     -32.053   2.951  20.498  0.00  0.00    -0.082 Cl
BRANCH  22  28
ATOM     28  C   UNL A   1     -31.144  -0.203  25.484  0.00  0.00    +0.266 C 
ATOM     29  O   UNL A   1     -30.530  -1.136  25.423  0.00  0.00    -0.268 OA
ATOM     30  N   UNL A   1     -31.540   0.378  26.620  0.00  0.00    -0.200 NA
ATOM     31  C   UNL A   1     -31.311  -0.332  27.896  0.00  0.00    +0.139 C 
ENDBRANCH  22  28
ENDBRANCH  19  21
ENDBRANCH   6  18
TORSDOF 6
ENDMDL
ENDMDL
