REMARK  Name = No_4094-gen_results/8p0m/2024-11-27-11-27-31/
REMARK  7 active torsions:
REMARK  status: ('A' for Active; 'I' for Inactive)
REMARK    1  A    between atoms: C_2  and  O_7
REMARK    2  A    between atoms: C_5  and  C_31
REMARK    3  A    between atoms: O_7  and  C_8
REMARK    4  A    between atoms: C_9  and  C_11
REMARK    5  A    between atoms: C_11  and  C_12
REMARK    6  A    between atoms: C_16  and  C_19
REMARK    7  A    between atoms: N_21  and  C_22
REMARK                            x       y       z     vdW  Elec       q    Type
REMARK                         _______ _______ _______ _____ _____    ______ ____
ROOT
ATOM      1  C   UNL A   1     -23.185   0.431  28.321  0.00  0.00    +0.202 C 
ATOM      2  O   UNL A   1     -21.950   0.764  28.807  0.00  0.00    -0.286 OA
ENDROOT
BRANCH   1   3
ATOM      3  C   UNL A   1     -23.851   1.451  27.685  0.00  0.00    +0.078 A 
ATOM      4  C   UNL A   1     -23.202   2.529  27.203  0.00  0.00    +0.006 A 
ATOM      5  C   UNL A   1     -24.048   3.467  26.492  0.00  0.00    +0.001 A 
ATOM      6  C   UNL A   1     -25.419   3.228  26.367  0.00  0.00    +0.008 A 
ATOM      7  C   UNL A   1     -25.947   2.094  26.539  0.00  0.00    +0.094 A 
ATOM      8  C   UNL A   1     -25.115   1.137  27.208  0.00  0.00    +0.203 A 
ATOM      9  O   UNL A   1     -25.010   0.502  25.981  0.00  0.00    -0.286 OA
BRANCH   7  10
ATOM     10  C   UNL A   1     -27.218   1.849  26.077  0.00  0.00    +0.272 C 
ATOM     11  O   UNL A   1     -28.171   2.607  26.281  0.00  0.00    -0.268 OA
ATOM     12  N   UNL A   1     -27.494   0.947  25.111  0.00  0.00    -0.175 NA
BRANCH  12  13
ATOM     13  C   UNL A   1     -28.774   0.599  24.511  0.00  0.00    +0.073 A 
ATOM     14  C   UNL A   1     -29.659   0.178  25.501  0.00  0.00    +0.012 A 
ATOM     15  C   UNL A   1     -30.968   0.453  25.180  0.00  0.00    -0.021 A 
ATOM     16  C   UNL A   1     -31.314   0.638  23.890  0.00  0.00    -0.004 A 
ATOM     17  C   UNL A   1     -30.356   0.950  22.929  0.00  0.00    +0.001 A 
ATOM     18  C   UNL A   1     -29.051   1.045  23.326  0.00  0.00    +0.017 A 
ATOM     19  C   UNL A   1     -32.089  -0.092  26.147  0.00  0.00    +0.031 C 
ENDBRANCH  12  13
ENDBRANCH   7  10
ENDBRANCH   1   3
BRANCH   1  21
ATOM     20  C   UNL A   1     -24.904  -1.148  28.578  0.00  0.00    +0.148 A 
ATOM     21  C   UNL A   1     -23.773  -0.924  28.749  0.00  0.00    +0.073 A 
ATOM     22  C   UNL A   1     -25.267  -2.553  29.125  0.00  0.00    +0.038 A 
ATOM     23  C   UNL A   1     -24.308  -3.430  29.385  0.00  0.00    +0.003 A 
ATOM     24  C   UNL A   1     -22.977  -2.935  29.460  0.00  0.00    +0.000 A 
ATOM     25  C   UNL A   1     -22.701  -1.680  29.115  0.00  0.00    +0.006 A 
BRANCH  20  26
ATOM     26  O   UNL A   1     -25.991  -0.612  27.857  0.00  0.00    -0.453 OA
BRANCH  26  28
ATOM     27  C   UNL A   1     -28.016  -0.814  28.878  0.00  0.00    +0.044 A 
ATOM     28  C   UNL A   1     -27.064  -0.119  28.608  0.00  0.00    +0.145 A 
ATOM     29  C   UNL A   1     -26.929   1.171  29.008  0.00  0.00    +0.037 A 
ATOM     30  C   UNL A   1     -27.956   1.741  29.784  0.00  0.00    +0.003 A 
ATOM     31  C   UNL A   1     -29.057  -0.327  29.747  0.00  0.00    +0.083 A 
ATOM     32  C   UNL A   1     -28.983   0.972  30.152  0.00  0.00    +0.007 A 
BRANCH  31  33
ATOM     33  C   UNL A   1     -30.236  -1.166  30.051  0.00  0.00    +0.388 C 
ATOM     34  O   UNL A   1     -31.270  -1.030  29.513  0.00  0.00    -0.241 OA
ATOM     35  O   UNL A   1     -30.061  -2.163  30.857  0.00  0.00    -0.241 OA
ENDBRANCH  31  33
ENDBRANCH  26  28
ENDBRANCH  20  26
ENDBRANCH   1  21
TORSDOF 7
