MODEL 4094
MODEL 1
REMARK VINA RESULT:    -8.642      0.000      0.000
REMARK INTER + INTRA:         -13.636
REMARK INTER:                 -12.179
REMARK INTRA:                  -1.457
REMARK UNBOUND:                -1.457
REMARK  Name = No_4094-gen_results/8p0m/2024-11-27-11-27-31/
REMARK  7 active torsions:
REMARK  status: ('A' for Active; 'I' for Inactive)
REMARK    1  A    between atoms: C_2  and  O_7
REMARK    2  A    between atoms: C_5  and  C_31
REMARK    3  A    between atoms: O_7  and  C_8
REMARK    4  A    between atoms: C_9  and  C_11
REMARK    5  A    between atoms: C_11  and  C_12
REMARK    6  A    between atoms: C_16  and  C_19
REMARK    7  A    between atoms: N_21  and  C_22
REMARK                            x       y       z     vdW  Elec       q    Type
REMARK                         _______ _______ _______ _____ _____    ______ ____
ROOT
ATOM      1  C   UNL A   1     -26.616  -1.540  30.147  0.00  0.00    +0.202 C 
ATOM      2  O   UNL A   1     -27.873  -1.451  29.612  0.00  0.00    -0.286 OA
ENDROOT
BRANCH   1   3
ATOM      3  C   UNL A   1     -26.250  -0.483  30.944  0.00  0.00    +0.078 A 
ATOM      4  C   UNL A   1     -26.121   0.765  30.452  0.00  0.00    +0.006 A 
ATOM      5  C   UNL A   1     -25.808   1.770  31.448  0.00  0.00    +0.001 A 
ATOM      6  C   UNL A   1     -25.646   1.411  32.788  0.00  0.00    +0.008 A 
ATOM      7  C   UNL A   1     -26.071   0.327  33.275  0.00  0.00    +0.094 A 
ATOM      8  C   UNL A   1     -26.422  -0.672  32.308  0.00  0.00    +0.203 A 
ATOM      9  O   UNL A   1     -27.740  -0.418  32.655  0.00  0.00    -0.286 OA
BRANCH   7  10
ATOM     10  C   UNL A   1     -26.187   0.182  34.637  0.00  0.00    +0.272 C 
ATOM     11  O   UNL A   1     -27.028   0.782  35.313  0.00  0.00    -0.268 OA
ATOM     12  N   UNL A   1     -25.627  -0.837  35.324  0.00  0.00    -0.175 NA
BRANCH  12  13
ATOM     13  C   UNL A   1     -25.682  -1.130  36.749  0.00  0.00    +0.073 A 
ATOM     14  C   UNL A   1     -26.565  -2.182  36.979  0.00  0.00    +0.012 A 
ATOM     15  C   UNL A   1     -26.215  -2.923  38.084  0.00  0.00    -0.021 A 
ATOM     16  C   UNL A   1     -25.435  -2.373  39.036  0.00  0.00    -0.004 A 
ATOM     17  C   UNL A   1     -24.658  -1.250  38.765  0.00  0.00    +0.001 A 
ATOM     18  C   UNL A   1     -24.723  -0.707  37.512  0.00  0.00    +0.017 A 
ATOM     19  C   UNL A   1     -27.204  -4.063  38.544  0.00  0.00    +0.031 C 
ENDBRANCH  12  13
ENDBRANCH   7  10
ENDBRANCH   1   3
BRANCH   1  21
ATOM     20  C   UNL A   1     -24.585  -2.406  29.347  0.00  0.00    +0.148 A 
ATOM     21  C   UNL A   1     -25.695  -2.648  29.609  0.00  0.00    +0.073 A 
ATOM     22  C   UNL A   1     -23.873  -3.666  28.790  0.00  0.00    +0.038 A 
ATOM     23  C   UNL A   1     -24.410  -4.864  28.971  0.00  0.00    +0.003 A 
ATOM     24  C   UNL A   1     -25.770  -4.912  29.382  0.00  0.00    +0.000 A 
ATOM     25  C   UNL A   1     -26.412  -3.800  29.729  0.00  0.00    +0.006 A 
BRANCH  20  26
ATOM     26  O   UNL A   1     -23.649  -1.374  29.562  0.00  0.00    -0.453 OA
BRANCH  26  28
ATOM     27  C   UNL A   1     -24.313  -0.350  27.640  0.00  0.00    +0.044 A 
ATOM     28  C   UNL A   1     -23.514  -0.423  28.545  0.00  0.00    +0.145 A 
ATOM     29  C   UNL A   1     -22.441   0.397  28.676  0.00  0.00    +0.037 A 
ATOM     30  C   UNL A   1     -22.240   1.396  27.705  0.00  0.00    +0.003 A 
ATOM     31  C   UNL A   1     -24.223   0.706  26.665  0.00  0.00    +0.083 A 
ATOM     32  C   UNL A   1     -23.147   1.539  26.736  0.00  0.00    +0.007 A 
BRANCH  31  33
ATOM     33  C   UNL A   1     -25.182   0.776  25.542  0.00  0.00    +0.388 C 
ATOM     34  O   UNL A   1     -26.015   1.599  25.466  0.00  0.00    -0.241 OA
ATOM     35  O   UNL A   1     -24.997  -0.039  24.554  0.00  0.00    -0.241 OA
ENDBRANCH  31  33
ENDBRANCH  26  28
ENDBRANCH  20  26
ENDBRANCH   1  21
TORSDOF 7
ENDMDL
ENDMDL
