MODEL 4095
MODEL 1
REMARK VINA RESULT:    -4.358      0.000      0.000
REMARK INTER + INTRA:          -4.358
REMARK INTER:                  -4.358
REMARK INTRA:                   0.000
REMARK UNBOUND:                 0.000
REMARK  Name = No_4095-gen_results/8p0m/2024-11-27-11-27-31/
REMARK  0 active torsions:
REMARK  status: ('A' for Active; 'I' for Inactive)
REMARK                            x       y       z     vdW  Elec       q    Type
REMARK                         _______ _______ _______ _____ _____    ______ ____
ROOT
ATOM      1  C   UNL A   1     -24.934  -5.432  29.002  0.00  0.00    +0.000 A 
ATOM      2  C   UNL A   1     -24.190  -4.766  28.664  0.00  0.00    +0.000 A 
ATOM      3  C   UNL A   1     -26.113  -4.758  29.560  0.00  0.00    +0.000 A 
ATOM      4  C   UNL A   1     -26.147  -3.443  29.784  0.00  0.00    +0.000 A 
ATOM      5  C   UNL A   1     -23.998  -3.343  28.811  0.00  0.00    +0.000 A 
ATOM      6  C   UNL A   1     -25.093  -2.739  29.354  0.00  0.00    +0.000 A 
ENDROOT
TORSDOF 0
ENDMDL
ENDMDL
