MODEL 4096
MODEL 1
REMARK VINA RESULT:    -4.417      0.000      0.000
REMARK INTER + INTRA:          -4.417
REMARK INTER:                  -4.417
REMARK INTRA:                   0.000
REMARK UNBOUND:                 0.000
REMARK  Name = No_4096-gen_results/8p0m/2024-11-27-11-27-31/
REMARK  0 active torsions:
REMARK  status: ('A' for Active; 'I' for Inactive)
REMARK                            x       y       z     vdW  Elec       q    Type
REMARK                         _______ _______ _______ _____ _____    ______ ____
ROOT
ATOM      1  C   UNL A   1      -9.188  -9.199  19.984  0.00  0.00    +0.011 A 
ATOM      2  C   UNL A   1      -8.353  -9.786  19.724  0.00  0.00    +0.058 A 
ATOM      3  C   UNL A   1     -10.340  -9.238  19.004  0.00  0.00    +0.001 A 
ATOM      4  C   UNL A   1     -10.292 -10.135  17.916  0.00  0.00    +0.000 A 
ATOM      5  C   UNL A   1      -8.065 -10.811  18.695  0.00  0.00    +0.011 A 
ATOM      6  C   UNL A   1      -9.105 -10.880  17.779  0.00  0.00    +0.001 A 
ATOM      7 CL   UNL A   1      -6.964  -9.749  20.909  0.00  0.00    -0.082 Cl
ENDROOT
TORSDOF 0
ENDMDL
ENDMDL
