MODEL 4097
MODEL 1
REMARK VINA RESULT:    -7.000      0.000      0.000
REMARK INTER + INTRA:          -9.683
REMARK INTER:                  -8.637
REMARK INTRA:                  -1.046
REMARK UNBOUND:                -1.046
REMARK  Name = No_4097-gen_results/8p0m/2024-11-27-11-27-31/
REMARK  4 active torsions:
REMARK  status: ('A' for Active; 'I' for Inactive)
REMARK    1  A    between atoms: C_5  and  C_8
REMARK    2  A    between atoms: C_7  and  O_13
REMARK    3  A    between atoms: O_13  and  C_14
REMARK    4  A    between atoms: C_15  and  C_17
REMARK                            x       y       z     vdW  Elec       q    Type
REMARK                         _______ _______ _______ _____ _____    ______ ____
ROOT
ATOM      1  C   UNL A   1     -23.445   0.389  30.451  0.00  0.00    +0.202 A 
ATOM      2  C   UNL A   1     -23.589  -0.366  31.171  0.00  0.00    +0.170 A 
ATOM      3  F   UNL A   1     -23.141   1.588  30.850  0.00  0.00    -0.199 F 
ATOM      4  C   UNL A   1     -23.886  -1.777  30.836  0.00  0.00    +0.036 A 
ATOM      5  C   UNL A   1     -24.130  -1.974  29.468  0.00  0.00    +0.077 A 
ATOM      6  C   UNL A   1     -24.022  -0.923  28.615  0.00  0.00    +0.044 A 
ATOM      7  C   UNL A   1     -23.718   0.326  29.102  0.00  0.00    +0.174 A 
ATOM      8  F   UNL A   1     -23.306  -0.255  32.562  0.00  0.00    -0.202 F 
ENDROOT
BRANCH   5   9
ATOM      9  C   UNL A   1     -24.478  -3.315  28.978  0.00  0.00    +0.419 C 
ATOM     10  F   UNL A   1     -23.677  -4.201  29.103  0.00  0.00    -0.166 F 
ATOM     11  F   UNL A   1     -25.647  -3.677  29.646  0.00  0.00    -0.166 F 
ATOM     12  F   UNL A   1     -24.870  -3.106  27.644  0.00  0.00    -0.166 F 
ENDBRANCH   5   9
BRANCH   7  13
ATOM     13  O   UNL A   1     -23.584   1.422  28.258  0.00  0.00    -0.455 OA
BRANCH  13  14
ATOM     14  C   UNL A   1     -22.645   1.531  27.359  0.00  0.00    +0.123 C 
ATOM     15  C   UNL A   1     -23.042   1.702  26.331  0.00  0.00    +0.033 C 
ATOM     16  C   UNL A   1     -21.280   1.606  27.727  0.00  0.00    +0.072 C 
BRANCH  15  17
ATOM     17  C   UNL A   1     -24.437   1.657  25.856  0.00  0.00    +0.003 A 
ATOM     18  C   UNL A   1     -25.486   2.505  25.862  0.00  0.00    +0.000 A 
ATOM     19  C   UNL A   1     -26.751   2.288  25.410  0.00  0.00    +0.000 A 
ATOM     20  C   UNL A   1     -27.100   1.051  24.863  0.00  0.00    +0.000 A 
ATOM     21  C   UNL A   1     -26.072   0.129  24.681  0.00  0.00    +0.000 A 
ATOM     22  C   UNL A   1     -24.833   0.372  25.197  0.00  0.00    +0.000 A 
ENDBRANCH  15  17
ENDBRANCH  13  14
ENDBRANCH   7  13
TORSDOF 4
ENDMDL
ENDMDL
