REMARK  Name = No_4097-gen_results/8p0m/2024-11-27-11-27-31/
REMARK  4 active torsions:
REMARK  status: ('A' for Active; 'I' for Inactive)
REMARK    1  A    between atoms: C_5  and  C_8
REMARK    2  A    between atoms: C_7  and  O_13
REMARK    3  A    between atoms: O_13  and  C_14
REMARK    4  A    between atoms: C_15  and  C_17
REMARK                            x       y       z     vdW  Elec       q    Type
REMARK                         _______ _______ _______ _____ _____    ______ ____
ROOT
ATOM      1  C   UNL A   1     -28.016  -0.814  28.878  0.00  0.00    +0.202 A 
ATOM      2  C   UNL A   1     -28.469  -0.785  29.829  0.00  0.00    +0.170 A 
ATOM      3  F   UNL A   1     -27.014  -1.618  28.684  0.00  0.00    -0.199 F 
ATOM      4  C   UNL A   1     -29.647   0.050  30.155  0.00  0.00    +0.036 A 
ATOM      5  C   UNL A   1     -29.994   0.932  29.120  0.00  0.00    +0.077 A 
ATOM      6  C   UNL A   1     -29.294   0.902  27.957  0.00  0.00    +0.044 A 
ATOM      7  C   UNL A   1     -28.230   0.042  27.821  0.00  0.00    +0.174 A 
ATOM      8  F   UNL A   1     -28.208  -1.684  30.903  0.00  0.00    -0.202 F 
ENDROOT
BRANCH   5   9
ATOM      9  C   UNL A   1     -31.121   1.858  29.303  0.00  0.00    +0.419 C 
ATOM     10  F   UNL A   1     -31.564   2.017  30.408  0.00  0.00    -0.166 F 
ATOM     11  F   UNL A   1     -30.688   3.091  28.818  0.00  0.00    -0.166 F 
ATOM     12  F   UNL A   1     -32.083   1.419  28.377  0.00  0.00    -0.166 F 
ENDBRANCH   5   9
BRANCH   7  13
ATOM     13  O   UNL A   1     -27.499  -0.027  26.641  0.00  0.00    -0.455 OA
BRANCH  13  14
ATOM     14  C   UNL A   1     -27.798   0.649  25.565  0.00  0.00    +0.123 C 
ATOM     15  C   UNL A   1     -26.977   1.326  25.232  0.00  0.00    +0.033 C 
ATOM     16  C   UNL A   1     -28.977   0.377  24.831  0.00  0.00    +0.072 C 
BRANCH  15  17
ATOM     17  C   UNL A   1     -25.715   1.661  25.918  0.00  0.00    +0.003 A 
ATOM     18  C   UNL A   1     -25.216   2.747  26.542  0.00  0.00    +0.000 A 
ATOM     19  C   UNL A   1     -23.984   2.910  27.099  0.00  0.00    +0.000 A 
ATOM     20  C   UNL A   1     -23.049   1.873  27.054  0.00  0.00    +0.000 A 
ATOM     21  C   UNL A   1     -23.486   0.651  26.549  0.00  0.00    +0.000 A 
ATOM     22  C   UNL A   1     -24.710   0.552  25.956  0.00  0.00    +0.000 A 
ENDBRANCH  15  17
ENDBRANCH  13  14
ENDBRANCH   7  13
TORSDOF 4
