MODEL 4098
MODEL 1
REMARK VINA RESULT:    -4.686      0.000      0.000
REMARK INTER + INTRA:          -5.177
REMARK INTER:                  -4.960
REMARK INTRA:                  -0.217
REMARK UNBOUND:                -0.217
REMARK  Name = No_4098-gen_results/8p0m/2024-11-27-11-27-31/
REMARK  1 active torsions:
REMARK  status: ('A' for Active; 'I' for Inactive)
REMARK    1  A    between atoms: C_3  and  C_8
REMARK                            x       y       z     vdW  Elec       q    Type
REMARK                         _______ _______ _______ _____ _____    ______ ____
ROOT
ATOM      1  C   UNL A   1     -22.532  -0.290  29.109  0.00  0.00    +0.042 A 
ATOM      2  C   UNL A   1     -23.195  -1.184  29.582  0.00  0.00    +0.003 A 
ATOM      3  C   UNL A   1     -24.414  -1.604  29.051  0.00  0.00    -0.000 A 
ATOM      4  C   UNL A   1     -24.962  -0.905  27.904  0.00  0.00    +0.003 A 
ATOM      5  C   UNL A   1     -24.138   0.132  27.413  0.00  0.00    +0.042 A 
ATOM      6  C   UNL A   1     -23.007   0.460  27.985  0.00  0.00    +0.196 A 
ATOM      7  O   UNL A   1     -22.319   1.514  27.456  0.00  0.00    -0.287 OA
ENDROOT
BRANCH   3   8
ATOM      8  C   UNL A   1     -25.289  -2.701  29.578  0.00  0.00    -0.005 C 
ATOM      9  C   UNL A   1     -25.062  -3.962  29.237  0.00  0.00    -0.026 C 
ATOM     10  C   UNL A   1     -24.034  -4.459  28.488  0.00  0.00    +0.031 C 
ENDBRANCH   3   8
TORSDOF 1
ENDMDL
ENDMDL
