MODEL 4099
MODEL 1
REMARK VINA RESULT:    -6.477      0.000      0.000
REMARK INTER + INTRA:          -8.659
REMARK INTER:                  -7.991
REMARK INTRA:                  -0.668
REMARK UNBOUND:                -0.668
REMARK  Name = No_4099-gen_results/8p0m/2024-11-27-11-27-31/
REMARK  4 active torsions:
REMARK  status: ('A' for Active; 'I' for Inactive)
REMARK    1  A    between atoms: C_1  and  O_12
REMARK    2  A    between atoms: C_5  and  C_7
REMARK    3  A    between atoms: N_8  and  C_10
REMARK    4  A    between atoms: C_10  and  C_14
REMARK                            x       y       z     vdW  Elec       q    Type
REMARK                         _______ _______ _______ _____ _____    ______ ____
ROOT
ATOM      1  C   UNL A   1     -22.999  -1.150  29.062  0.00  0.00    +0.265 C 
ATOM      2  N   UNL A   1     -23.253   0.004  29.294  0.00  0.00    -0.197 NA
ATOM      3  O   UNL A   1     -21.813  -1.527  28.942  0.00  0.00    -0.268 OA
ENDROOT
BRANCH   1   8
ATOM      4  C   UNL A   1     -26.249  -2.763  29.959  0.00  0.00    +0.166 A 
ATOM      5  C   UNL A   1     -26.027  -3.916  29.672  0.00  0.00    +0.174 A 
ATOM      6  C   UNL A   1     -24.858  -4.343  29.073  0.00  0.00    +0.033 A 
ATOM      7  C   UNL A   1     -23.847  -3.375  28.818  0.00  0.00    +0.007 A 
ATOM      8  C   UNL A   1     -24.072  -2.134  29.310  0.00  0.00    +0.058 A 
ATOM      9  C   UNL A   1     -25.207  -1.825  29.908  0.00  0.00    +0.044 A 
ATOM     10  F   UNL A   1     -27.026  -4.911  29.811  0.00  0.00    -0.201 F 
BRANCH   4  11
ATOM     11  O   UNL A   1     -27.452  -2.384  30.624  0.00  0.00    -0.469 OA
ATOM     12  C   UNL A   1     -28.225  -1.514  30.563  0.00  0.00    +0.253 C 
ENDBRANCH   4  11
ENDBRANCH   1   8
BRANCH   2  13
ATOM     13  C   UNL A   1     -22.742   0.983  28.966  0.00  0.00    +0.142 C 
BRANCH  13  14
ATOM     14  C   UNL A   1     -23.195   1.770  27.933  0.00  0.00    -0.001 A 
ATOM     15  C   UNL A   1     -24.416   2.308  27.985  0.00  0.00    -0.003 A 
ATOM     16  C   UNL A   1     -25.033   2.974  26.939  0.00  0.00    -0.000 A 
ATOM     17  C   UNL A   1     -24.343   3.076  25.798  0.00  0.00    -0.000 A 
ATOM     18  C   UNL A   1     -23.093   2.552  25.552  0.00  0.00    -0.000 A 
ATOM     19  C   UNL A   1     -22.566   1.866  26.624  0.00  0.00    -0.003 A 
ENDBRANCH  13  14
ENDBRANCH   2  13
TORSDOF 4
ENDMDL
ENDMDL
