MODEL 409
MODEL 1
REMARK VINA RESULT:    -4.947      0.000      0.000
REMARK INTER + INTRA:          -5.872
REMARK INTER:                  -5.525
REMARK INTRA:                  -0.347
REMARK UNBOUND:                -0.347
REMARK  Name = No_409-gen_results/8p0m/2024-11-27-11-27-31/
REMARK  2 active torsions:
REMARK  status: ('A' for Active; 'I' for Inactive)
REMARK    1  A    between atoms: C_3  and  C_7
REMARK    2  A    between atoms: C_8  and  C_9
REMARK                            x       y       z     vdW  Elec       q    Type
REMARK                         _______ _______ _______ _____ _____    ______ ____
ROOT
ATOM      1  C   UNL A   1     -25.866  -2.530  29.367  0.00  0.00    +0.023 C 
ATOM      2  C   UNL A   1     -26.424  -3.176  29.985  0.00  0.00    +0.089 C 
ATOM      3  C   UNL A   1     -24.472  -2.941  29.198  0.00  0.00    +0.025 C 
ATOM      4  C   UNL A   1     -24.187  -3.957  28.565  0.00  0.00    +0.023 C 
ATOM      5  C   UNL A   1     -24.849  -5.234  29.179  0.00  0.00    +0.089 C 
ATOM      6  N   UNL A   1     -26.512  -4.685  29.776  0.00  0.00    -0.218 NA
ENDROOT
BRANCH   3   7
ATOM      7  C   UNL A   1     -23.371  -1.957  29.395  0.00  0.00    -0.031 C 
ATOM      8  C   UNL A   1     -23.320  -1.207  30.270  0.00  0.00    -0.031 C 
BRANCH   8   9
ATOM      9  C   UNL A   1     -23.009  -0.787  31.129  0.00  0.00    +0.026 C 
ATOM     10  C   UNL A   1     -23.047  -1.176  32.446  0.00  0.00    +0.005 C 
ENDBRANCH   8   9
ENDBRANCH   3   7
TORSDOF 2
ENDMDL
ENDMDL
