MODEL 4100
MODEL 1
REMARK VINA RESULT:    -6.181      0.000      0.000
REMARK INTER + INTRA:          -6.674
REMARK INTER:                  -6.542
REMARK INTRA:                  -0.132
REMARK UNBOUND:                -0.132
REMARK  Name = No_4100-gen_results/8p0m/2024-11-27-11-27-31/
REMARK  1 active torsions:
REMARK  status: ('A' for Active; 'I' for Inactive)
REMARK    1  A    between atoms: C_9  and  C_11
REMARK                            x       y       z     vdW  Elec       q    Type
REMARK                         _______ _______ _______ _____ _____    ______ ____
ROOT
ATOM      1  C   UNL A   1     -26.500  -3.142  30.054  0.00  0.00    -0.000 A 
ATOM      2  C   UNL A   1     -25.545  -2.411  29.926  0.00  0.00    -0.000 A 
ATOM      3  C   UNL A   1     -24.359  -2.871  29.365  0.00  0.00    -0.000 A 
ATOM      4  C   UNL A   1     -24.214  -4.246  28.960  0.00  0.00    -0.000 A 
ATOM      5  C   UNL A   1     -25.359  -5.027  29.166  0.00  0.00    -0.000 A 
ATOM      6  C   UNL A   1     -26.451  -4.548  29.716  0.00  0.00    -0.000 A 
ATOM      7  C   UNL A   1     -25.342  -0.919  30.183  0.00  0.00    -0.000 A 
ATOM      8  C   UNL A   1     -24.464  -0.196  29.725  0.00  0.00    +0.001 A 
ATOM      9  C   UNL A   1     -23.215  -0.810  29.184  0.00  0.00    +0.044 A 
ATOM     10  C   UNL A   1     -23.192  -2.134  28.911  0.00  0.00    +0.001 A 
ENDROOT
BRANCH   9  11
ATOM     11  C   UNL A   1     -22.053   0.077  28.807  0.00  0.00    +0.341 C 
ATOM     12  F   UNL A   1     -22.431   1.208  28.488  0.00  0.00    -0.193 F 
ATOM     13  F   UNL A   1     -20.924  -0.345  28.660  0.00  0.00    -0.193 F 
ENDBRANCH   9  11
TORSDOF 1
ENDMDL
ENDMDL
