REMARK  Name = outputs/IAG933/test6/raw/output_4101_IAG933_linker_design_.xyz
REMARK  12 active torsions:
REMARK  status: ('A' for Active; 'I' for Inactive)
REMARK    1  A    between atoms: C_1  and  C_2
REMARK    2  A    between atoms: C_1  and  C_8
REMARK    3  A    between atoms: C_1  and  C_33
REMARK    4  A    between atoms: C_13  and  C_41
REMARK    5  A    between atoms: C_14  and  C_15
REMARK    6  A    between atoms: C_21  and  O_22
REMARK    7  A    between atoms: O_22  and  C_23
REMARK    8  A    between atoms: C_23  and  C_24
REMARK    9  A    between atoms: C_31  and  C_34
REMARK   10  A    between atoms: C_31  and  C_40
REMARK   11  A    between atoms: N_32  and  C_33
REMARK   12  A    between atoms: C_33  and  C_36
REMARK                            x       y       z     vdW  Elec       q    Type
REMARK                         _______ _______ _______ _____ _____    ______ ____
ROOT
ATOM      1  C   UNL A   1     -25.280  -0.062  28.919  0.00  0.00    +0.108 C 
ENDROOT
BRANCH   1   5
ATOM      2  C   UNL A   1     -27.768   0.122  29.233  0.00  0.00    -0.106 C 
ATOM      3  C   UNL A   1     -30.095  -0.204  28.238  0.00  0.00    +0.169 C 
ATOM      4  O   UNL A   1     -32.172  -1.099  27.450  0.00  0.00    -0.084 OA
ATOM      5  C   UNL A   1     -26.598   0.633  29.090  0.00  0.00    +0.035 C 
ATOM      6  C   UNL A   1     -29.172  -0.535  29.227  0.00  0.00    +0.038 C 
ATOM      7  C   UNL A   1     -30.893  -1.883  29.387  0.00  0.00    +0.063 C 
ATOM      8  C   UNL A   1     -29.648  -1.610  29.963  0.00  0.00    +0.020 C 
ATOM      9  N   UNL A   1     -31.073  -1.044  28.331  0.00  0.00    -0.206 N 
BRANCH   7  10
ATOM     10  C   UNL A   1     -31.948  -2.998  29.779  0.00  0.00    +0.046 C 
BRANCH  10  11
ATOM     11  C   UNL A   1     -31.410  -4.327  30.435  0.00  0.00    +0.006 C 
ATOM     12  C   UNL A   1     -30.136  -3.926  31.242  0.00  0.00    +0.000 C 
ENDBRANCH  10  11
ENDBRANCH   7  10
ENDBRANCH   1   5
BRANCH   1  14
ATOM     13  C   UNL A   1     -21.846   1.255  28.046  0.00  0.00    +0.015 C 
ATOM     14  N   UNL A   1     -24.202   0.685  28.237  0.00  0.00    -0.298 N 
ATOM     15  C   UNL A   1     -23.296   1.880  26.317  0.00  0.00    -0.002 C 
ATOM     16  C   UNL A   1     -21.990   1.831  26.796  0.00  0.00    -0.001 C 
ATOM     17  C   UNL A   1     -24.393   1.305  27.061  0.00  0.00    +0.121 C 
ATOM     18  C   UNL A   1     -22.906   0.609  28.692  0.00  0.00    +0.062 C 
BRANCH  17  19
ATOM     19  C   UNL A   1     -25.688   1.614  26.461  0.00  0.00    +0.038 C 
ATOM     20  C   UNL A   1     -26.250   2.920  26.395  0.00  0.00    +0.074 C 
ATOM     21  C   UNL A   1     -27.438   3.091  25.645  0.00  0.00    +0.106 C 
ATOM     22  N   UNL A   1     -28.075   2.089  25.003  0.00  0.00    -0.208 NA
ATOM     23  C   UNL A   1     -27.543   0.849  25.079  0.00  0.00    +0.253 C 
ATOM     24  C   UNL A   1     -26.354   0.576  25.777  0.00  0.00    +0.191 C 
ATOM     25  F   UNL A   1     -25.860  -0.681  25.795  0.00  0.00    -0.200 F 
BRANCH  20  26
ATOM     26  C   UNL A   1     -25.642   4.093  27.123  0.00  0.00    +0.266 C 
ATOM     27  N   UNL A   1     -25.614   5.252  26.449  0.00  0.00    -0.200 NA
ATOM     28  C   UNL A   1     -25.026   6.479  26.963  0.00  0.00    +0.139 C 
ATOM     29  O   UNL A   1     -25.143   3.966  28.243  0.00  0.00    -0.268 OA
ENDBRANCH  20  26
BRANCH  23  30
ATOM     30  O   UNL A   1     -28.193  -0.208  24.477  0.00  0.00    -0.456 OA
BRANCH  30  31
ATOM     31  C   UNL A   1     -29.460   0.005  23.866  0.00  0.00    +0.243 C 
BRANCH  31  32
ATOM     32  C   UNL A   1     -30.065  -1.377  23.573  0.00  0.00    +0.229 C 
ATOM     33  O   UNL A   1     -30.729  -1.878  24.721  0.00  0.00    -0.216 OA
ENDBRANCH  31  32
ENDBRANCH  30  31
ENDBRANCH  23  30
ENDBRANCH  17  19
ENDBRANCH   1  14
BRANCH   1  34
ATOM     34  C   UNL A   1     -24.855  -1.012  30.143  0.00  0.00    +0.061 C 
BRANCH  34  35
ATOM     35  C   UNL A   1     -24.973  -2.505  29.788  0.00  0.00    -0.019 C 
ATOM     36  C   UNL A   1     -23.906  -3.173  29.146  0.00  0.00    -0.004 C 
ATOM     37  C   UNL A   1     -23.989  -4.549  28.853  0.00  0.00    -0.000 C 
ATOM     38  C   UNL A   1     -25.137  -5.280  29.205  0.00  0.00    -0.000 C 
ATOM     39  C   UNL A   1     -26.232  -4.611  29.784  0.00  0.00    -0.000 C 
ATOM     40  C   UNL A   1     -26.155  -3.232  30.065  0.00  0.00    -0.004 C 
ENDBRANCH  34  35
BRANCH  34  41
ATOM     41  C   UNL A   1     -25.387  -0.679  31.571  0.00  0.00    +0.079 C 
ATOM     42  C   UNL A   1     -25.189   0.773  32.028  0.00  0.00    +0.019 C 
ATOM     43  C   UNL A   1     -25.336   0.684  33.544  0.00  0.00    +0.020 C 
ATOM     44  C   UNL A   1     -24.829  -0.715  33.905  0.00  0.00    +0.089 C 
ATOM     45  N   UNL A   1     -24.758  -1.481  32.646  0.00  0.00    -0.219 NA
ENDBRANCH  34  41
ENDBRANCH   1  34
TORSDOF 12
