MODEL 4102
MODEL 1
REMARK VINA RESULT:    -5.807      0.000      0.000
REMARK INTER + INTRA:          -6.806
REMARK INTER:                  -6.486
REMARK INTRA:                  -0.320
REMARK UNBOUND:                -0.320
REMARK  Name = No_4102-gen_results/8p0m/2024-11-27-11-27-31/
REMARK  2 active torsions:
REMARK  status: ('A' for Active; 'I' for Inactive)
REMARK    1  A    between atoms: C_1  and  C_2
REMARK    2  A    between atoms: C_5  and  C_11
REMARK                            x       y       z     vdW  Elec       q    Type
REMARK                         _______ _______ _______ _____ _____    ______ ____
ROOT
ATOM      1  C   UNL A   1     -22.963   0.785  27.800  0.00  0.00    +0.071 A 
ATOM      2  C   UNL A   1     -24.163   0.184  27.437  0.00  0.00    +0.004 A 
ATOM      3  C   UNL A   1     -24.709  -1.091  27.982  0.00  0.00    +0.001 A 
ATOM      4  C   UNL A   1     -23.838  -1.828  28.838  0.00  0.00    +0.015 A 
ATOM      5  C   UNL A   1     -22.600  -1.228  29.146  0.00  0.00    +0.001 A 
ATOM      6  C   UNL A   1     -22.186  -0.048  28.664  0.00  0.00    +0.004 A 
ENDROOT
BRANCH   1   7
ATOM      7  C   UNL A   1     -22.612   1.830  27.303  0.00  0.00    +0.419 C 
ATOM      8  F   UNL A   1     -21.516   2.194  27.694  0.00  0.00    -0.166 F 
ATOM      9  F   UNL A   1     -22.708   1.932  25.943  0.00  0.00    -0.166 F 
ATOM     10  F   UNL A   1     -23.559   2.802  27.722  0.00  0.00    -0.166 F 
ENDBRANCH   1   7
BRANCH   4  11
ATOM     11  C   UNL A   1     -24.334  -3.103  28.981  0.00  0.00    +0.081 C 
ATOM     12  N   UNL A   1     -23.762  -4.278  28.671  0.00  0.00    -0.153 NA
ATOM     13  C   UNL A   1     -25.720  -3.234  29.601  0.00  0.00    +0.054 C 
ENDBRANCH   4  11
TORSDOF 2
ENDMDL
ENDMDL
