MODEL 4103
MODEL 1
REMARK VINA RESULT:    -6.884      0.000      0.000
REMARK INTER + INTRA:         -10.330
REMARK INTER:                  -9.299
REMARK INTRA:                  -1.032
REMARK UNBOUND:                -1.032
REMARK  Name = No_4103-gen_results/8p0m/2024-11-27-11-27-31/
REMARK  6 active torsions:
REMARK  status: ('A' for Active; 'I' for Inactive)
REMARK    1  A    between atoms: C_2  and  C_12
REMARK    2  A    between atoms: C_4  and  C_7
REMARK    3  A    between atoms: C_7  and  C_10
REMARK    4  A    between atoms: C_8  and  C_9
REMARK    5  A    between atoms: C_9  and  C_15
REMARK    6  A    between atoms: C_15  and  C_16
REMARK                            x       y       z     vdW  Elec       q    Type
REMARK                         _______ _______ _______ _____ _____    ______ ____
ROOT
ATOM      1  C   UNL A   1     -23.829   1.269  26.359  0.00  0.00    -0.026 C 
ATOM      2  C   UNL A   1     -23.551   1.099  27.584  0.00  0.00    -0.030 C 
ENDROOT
BRANCH   1   6
ATOM      3  C   UNL A   1     -26.673  -0.547  24.509  0.00  0.00    -0.000 A 
ATOM      4  C   UNL A   1     -27.345   0.265  24.518  0.00  0.00    +0.025 A 
ATOM      5  C   UNL A   1     -25.318  -0.276  25.123  0.00  0.00    -0.001 A 
ATOM      6  C   UNL A   1     -25.089   0.952  25.779  0.00  0.00    -0.004 A 
ATOM      7  C   UNL A   1     -27.370   1.603  25.150  0.00  0.00    -0.000 A 
ATOM      8  C   UNL A   1     -26.142   1.886  25.731  0.00  0.00    -0.001 A 
BRANCH   4   9
ATOM      9  C   UNL A   1     -28.668  -0.134  23.671  0.00  0.00    +0.262 C 
ATOM     10 CL   UNL A   1     -29.141  -1.468  23.424  0.00  0.00    -0.072 Cl
ATOM     11  F   UNL A   1     -29.335   0.946  23.147  0.00  0.00    -0.214 F 
ENDBRANCH   4   9
ENDBRANCH   1   6
BRANCH   1  12
ATOM     12  C   UNL A   1     -23.370   2.621  25.771  0.00  0.00    +0.026 C 
ATOM     13  C   UNL A   1     -22.422   2.430  24.760  0.00  0.00    +0.005 C 
ENDBRANCH   1  12
BRANCH   2  14
ATOM     14  C   UNL A   1     -22.202   1.302  28.141  0.00  0.00    +0.032 C 
BRANCH  14  15
ATOM     15  C   UNL A   1     -21.555   0.113  28.778  0.00  0.00    +0.051 C 
BRANCH  15  16
ATOM     16  C   UNL A   1     -22.348  -0.661  29.665  0.00  0.00    +0.059 A 
ATOM     17  N   UNL A   1     -22.783  -0.099  30.811  0.00  0.00    -0.248 NA
ATOM     18  C   UNL A   1     -23.967  -0.511  31.431  0.00  0.00    +0.098 A 
ATOM     19  C   UNL A   1     -24.446  -1.700  31.103  0.00  0.00    +0.021 A 
ATOM     20  C   UNL A   1     -24.186  -2.234  29.813  0.00  0.00    +0.003 A 
ATOM     21  C   UNL A   1     -23.105  -1.731  29.067  0.00  0.00    +0.015 A 
ENDBRANCH  15  16
ENDBRANCH  14  15
ENDBRANCH   2  14
TORSDOF 6
ENDMDL
ENDMDL
