MODEL 4104
MODEL 1
REMARK VINA RESULT:    -4.272      0.000      0.000
REMARK INTER + INTRA:          -4.272
REMARK INTER:                  -4.272
REMARK INTRA:                   0.000
REMARK UNBOUND:                 0.000
REMARK  Name = No_4104-gen_results/8p0m/2024-11-27-11-27-31/
REMARK  0 active torsions:
REMARK  status: ('A' for Active; 'I' for Inactive)
REMARK                            x       y       z     vdW  Elec       q    Type
REMARK                         _______ _______ _______ _____ _____    ______ ____
ROOT
ATOM      1  C   UNL A   1     -24.017  -3.340  28.744  0.00  0.00    +0.000 A 
ATOM      2  C   UNL A   1     -24.004  -4.536  28.568  0.00  0.00    +0.000 A 
ATOM      3  C   UNL A   1     -25.003  -5.385  29.004  0.00  0.00    +0.000 A 
ATOM      4  C   UNL A   1     -26.126  -4.809  29.662  0.00  0.00    +0.000 A 
ATOM      5  C   UNL A   1     -26.175  -3.457  29.683  0.00  0.00    +0.000 A 
ATOM      6  C   UNL A   1     -25.190  -2.722  29.204  0.00  0.00    +0.000 A 
ENDROOT
TORSDOF 0
ENDMDL
ENDMDL
