MODEL 4105
MODEL 1
REMARK VINA RESULT:    -5.905      0.000      0.000
REMARK INTER + INTRA:          -7.915
REMARK INTER:                  -7.631
REMARK INTRA:                  -0.284
REMARK UNBOUND:                -0.284
REMARK  Name = No_4105-gen_results/8p0m/2024-11-27-11-27-31/
REMARK  5 active torsions:
REMARK  status: ('A' for Active; 'I' for Inactive)
REMARK    1  A    between atoms: C_1  and  C_2
REMARK    2  A    between atoms: C_1  and  N_8
REMARK    3  A    between atoms: C_5  and  C_12
REMARK    4  A    between atoms: C_9  and  C_10
REMARK    5  A    between atoms: N_11  and  C_16
REMARK                            x       y       z     vdW  Elec       q    Type
REMARK                         _______ _______ _______ _____ _____    ______ ____
ROOT
ATOM      1  C   UNL A   1      -8.347   0.178  35.122  0.00  0.00    +0.142 C 
ENDROOT
BRANCH   1   2
ATOM      2  C   UNL A   1      -7.281  -0.376  34.990  0.00  0.00    -0.001 A 
ATOM      3  C   UNL A   1      -7.121  -1.578  34.380  0.00  0.00    -0.002 A 
ATOM      4  C   UNL A   1      -5.824  -2.269  34.209  0.00  0.00    +0.006 A 
ATOM      5  C   UNL A   1      -4.660  -1.597  34.709  0.00  0.00    +0.080 A 
ATOM      6  C   UNL A   1      -4.859  -0.316  35.272  0.00  0.00    +0.006 A 
ATOM      7  C   UNL A   1      -6.095   0.263  35.398  0.00  0.00    -0.002 A 
BRANCH   5   8
ATOM      8  C   UNL A   1      -3.360  -2.160  34.595  0.00  0.00    +0.388 C 
ATOM      9  O   UNL A   1      -2.633  -2.121  33.730  0.00  0.00    -0.241 OA
ATOM     10  O   UNL A   1      -2.792  -2.347  35.848  0.00  0.00    -0.241 OA
ENDBRANCH   5   8
ENDBRANCH   1   2
BRANCH   1  11
ATOM     11  N   UNL A   1      -8.833   1.025  34.131  0.00  0.00    -0.196 NA
ATOM     12  C   UNL A   1      -9.872   1.933  34.259  0.00  0.00    +0.284 C 
ATOM     13  O   UNL A   1      -9.681   2.986  33.515  0.00  0.00    -0.267 OA
BRANCH  12  14
ATOM     14  C   UNL A   1     -10.574   1.965  35.296  0.00  0.00    +0.153 C 
ATOM     15  N   UNL A   1     -11.771   1.482  35.187  0.00  0.00    -0.266 NA
BRANCH  15  16
ATOM     16  C   UNL A   1     -12.722   1.910  34.363  0.00  0.00    +0.104 C 
ATOM     17  C   UNL A   1     -13.573   2.894  34.757  0.00  0.00    +0.026 C 
ATOM     18  C   UNL A   1     -12.983   1.082  33.078  0.00  0.00    +0.026 C 
ENDBRANCH  15  16
ENDBRANCH  12  14
ENDBRANCH   1  11
TORSDOF 5
ENDMDL
ENDMDL
