MODEL 4106
MODEL 1
REMARK VINA RESULT:    -6.540      0.000      0.000
REMARK INTER + INTRA:          -8.854
REMARK INTER:                  -8.069
REMARK INTRA:                  -0.785
REMARK UNBOUND:                -0.785
REMARK  Name = No_4106-gen_results/8p0m/2024-11-27-11-27-31/
REMARK  4 active torsions:
REMARK  status: ('A' for Active; 'I' for Inactive)
REMARK    1  A    between atoms: C_1  and  C_2
REMARK    2  A    between atoms: C_1  and  N_8
REMARK    3  A    between atoms: C_5  and  C_10
REMARK    4  A    between atoms: C_9  and  C_17
REMARK                            x       y       z     vdW  Elec       q    Type
REMARK                         _______ _______ _______ _____ _____    ______ ____
ROOT
ATOM      1  C   UNL A   1     -24.987   2.032  26.190  0.00  0.00    +0.079 C 
ATOM      2  N   UNL A   1     -26.174   2.615  25.972  0.00  0.00    -0.271 NA
ATOM      3  C   UNL A   1     -27.286   2.060  25.361  0.00  0.00    +0.076 C 
ATOM      4  C   UNL A   1     -27.182   1.135  24.480  0.00  0.00    +0.038 C 
ATOM      5  C   UNL A   1     -24.865   0.721  25.547  0.00  0.00    +0.018 C 
ATOM      6  C   UNL A   1     -25.996   0.247  24.741  0.00  0.00    +0.007 C 
ATOM      7  C   UNL A   1     -26.384   3.961  26.607  0.00  0.00    +0.090 C 
ENDROOT
BRANCH   4   8
ATOM      8  C   UNL A   1     -28.319   0.510  23.836  0.00  0.00    -0.021 A 
ATOM      9  C   UNL A   1     -28.636  -0.635  23.373  0.00  0.00    -0.004 A 
ATOM     10  C   UNL A   1     -29.372   1.610  23.442  0.00  0.00    -0.004 A 
ATOM     11  C   UNL A   1     -30.665   1.216  23.083  0.00  0.00    -0.000 A 
ATOM     12  C   UNL A   1     -29.556  -1.120  24.023  0.00  0.00    -0.000 A 
ATOM     13  C   UNL A   1     -30.914  -0.122  23.474  0.00  0.00    -0.000 A 
ENDBRANCH   4   8
BRANCH   1  14
ATOM     14  C   UNL A   1     -24.040   2.586  26.697  0.00  0.00    +0.131 C 
BRANCH  14  15
ATOM     15  N   UNL A   1     -23.534   2.048  27.865  0.00  0.00    -0.198 NA
ATOM     16  C   UNL A   1     -22.269   1.589  27.935  0.00  0.00    +0.318 C 
ATOM     17  O   UNL A   1     -21.602   1.927  26.831  0.00  0.00    -0.266 OA
BRANCH  16  18
ATOM     18  C   UNL A   1     -22.091   0.416  28.578  0.00  0.00    +0.399 C 
ATOM     19 CL   UNL A   1     -20.934  -0.259  28.699  0.00  0.00    -0.038 Cl
ATOM     20  F   UNL A   1     -23.175  -0.418  28.238  0.00  0.00    -0.177 F 
ATOM     21  F   UNL A   1     -22.603   0.801  29.878  0.00  0.00    -0.177 F 
ENDBRANCH  16  18
ENDBRANCH  14  15
ENDBRANCH   1  14
TORSDOF 4
ENDMDL
ENDMDL
