MODEL 4107
MODEL 1
REMARK VINA RESULT:    -5.586      0.000      0.000
REMARK INTER + INTRA:          -5.586
REMARK INTER:                  -5.586
REMARK INTRA:                   0.000
REMARK UNBOUND:                 0.000
REMARK  Name = No_4107-gen_results/8p0m/2024-11-27-11-27-31/
REMARK  0 active torsions:
REMARK  status: ('A' for Active; 'I' for Inactive)
REMARK                            x       y       z     vdW  Elec       q    Type
REMARK                         _______ _______ _______ _____ _____    ______ ____
ROOT
ATOM      1  C   UNL A   1     -26.478  -3.961  29.747  0.00  0.00    +0.026 C 
ATOM      2  C   UNL A   1     -26.045  -4.921  29.715  0.00  0.00    +0.005 C 
ATOM      3  C   UNL A   1     -25.507  -2.807  29.638  0.00  0.00    -0.026 A 
ATOM      4  C   UNL A   1     -25.604  -1.653  30.434  0.00  0.00    -0.005 A 
ATOM      5  C   UNL A   1     -24.891  -5.362  28.833  0.00  0.00    +0.005 C 
ATOM      6  C   UNL A   1     -23.990  -4.342  28.590  0.00  0.00    +0.026 C 
ATOM      7  C   UNL A   1     -24.242  -3.038  28.975  0.00  0.00    -0.026 A 
ATOM      8  C   UNL A   1     -24.611  -0.720  30.603  0.00  0.00    -0.000 A 
ATOM      9  C   UNL A   1     -23.478  -0.794  29.692  0.00  0.00    -0.000 A 
ATOM     10  C   UNL A   1     -23.240  -1.971  29.054  0.00  0.00    -0.005 A 
ENDROOT
TORSDOF 0
ENDMDL
ENDMDL
