MODEL 4108
MODEL 1
REMARK VINA RESULT:    -5.071      0.000      0.000
REMARK INTER + INTRA:          -5.071
REMARK INTER:                  -5.071
REMARK INTRA:                   0.000
REMARK UNBOUND:                 0.000
REMARK  Name = No_4108-gen_results/8p0m/2024-11-27-11-27-31/
REMARK  0 active torsions:
REMARK  status: ('A' for Active; 'I' for Inactive)
REMARK                            x       y       z     vdW  Elec       q    Type
REMARK                         _______ _______ _______ _____ _____    ______ ____
ROOT
ATOM      1  C   UNL A   1     -10.142  -9.819  18.222  0.00  0.00    +0.072 A 
ATOM      2  C   UNL A   1      -9.135 -10.430  17.951  0.00  0.00    +0.143 A 
ATOM      3  C   UNL A   1      -8.072 -10.498  18.845  0.00  0.00    +0.030 A 
ATOM      4  C   UNL A   1      -8.119  -9.803  20.106  0.00  0.00    +0.006 A 
ATOM      5  C   UNL A   1      -9.311  -9.101  20.329  0.00  0.00    +0.042 A 
ATOM      6  C   UNL A   1     -10.280  -9.055  19.443  0.00  0.00    +0.198 A 
ATOM      7  F   UNL A   1      -8.935 -11.065  16.795  0.00  0.00    -0.204 F 
ATOM      8  O   UNL A   1     -11.399  -8.314  19.745  0.00  0.00    -0.286 OA
ENDROOT
TORSDOF 0
ENDMDL
ENDMDL
