REMARK  Name = outputs/IAG933/test6/raw/output_4109_IAG933_linker_design_.xyz
REMARK  11 active torsions:
REMARK  status: ('A' for Active; 'I' for Inactive)
REMARK    1  A    between atoms: C_1  and  C_2
REMARK    2  A    between atoms: C_1  and  C_8
REMARK    3  A    between atoms: C_1  and  C_28
REMARK    4  A    between atoms: C_13  and  C_37
REMARK    5  A    between atoms: C_14  and  C_15
REMARK    6  A    between atoms: C_21  and  O_22
REMARK    7  A    between atoms: O_22  and  C_23
REMARK    8  A    between atoms: C_23  and  C_24
REMARK    9  A    between atoms: C_28  and  C_31
REMARK   10  A    between atoms: S_32  and  C_39
REMARK   11  A    between atoms: S_32  and  C_42
REMARK                            x       y       z     vdW  Elec       q    Type
REMARK                         _______ _______ _______ _____ _____    ______ ____
ROOT
ATOM      1  C   UNL A   1     -24.229   1.106  28.219  0.00  0.00    +0.037 C 
ATOM      2  C   UNL A   1     -22.003   1.926  26.691  0.00  0.00    +0.000 C 
ATOM      3  C   UNL A   1     -22.002   2.043  28.119  0.00  0.00    +0.006 C 
ATOM      4  C   UNL A   1     -23.229   1.702  26.004  0.00  0.00    -0.004 C 
ATOM      5  C   UNL A   1     -24.404   1.431  26.821  0.00  0.00    -0.012 C 
ATOM      6  C   UNL A   1     -23.290   1.843  28.895  0.00  0.00    +0.028 C 
ENDROOT
BRANCH   5   7
ATOM      7  C   UNL A   1     -25.688   1.614  26.461  0.00  0.00    +0.092 C 
ATOM      8  C   UNL A   1     -26.250   2.920  26.395  0.00  0.00    +0.059 C 
ATOM      9  C   UNL A   1     -27.438   3.091  25.645  0.00  0.00    +0.102 C 
ATOM     10  N   UNL A   1     -28.075   2.089  25.003  0.00  0.00    -0.212 NA
ATOM     11  C   UNL A   1     -27.543   0.849  25.079  0.00  0.00    +0.234 C 
ATOM     12  C   UNL A   1     -26.354   0.576  25.777  0.00  0.00    +0.244 C 
ATOM     13  F   UNL A   1     -25.860  -0.681  25.795  0.00  0.00    -0.227 F 
BRANCH   8  14
ATOM     14  C   UNL A   1     -25.642   4.093  27.123  0.00  0.00    +0.263 C 
ATOM     15  N   UNL A   1     -25.614   5.252  26.449  0.00  0.00    -0.200 NA
ATOM     16  C   UNL A   1     -25.026   6.479  26.963  0.00  0.00    +0.139 C 
ATOM     17  O   UNL A   1     -25.143   3.966  28.243  0.00  0.00    -0.269 OA
ENDBRANCH   8  14
BRANCH  11  18
ATOM     18  O   UNL A   1     -28.193  -0.208  24.477  0.00  0.00    -0.459 OA
BRANCH  18  19
ATOM     19  C   UNL A   1     -29.460   0.005  23.866  0.00  0.00    +0.242 C 
BRANCH  19  20
ATOM     20  C   UNL A   1     -30.065  -1.377  23.573  0.00  0.00    +0.229 C 
ATOM     21  O   UNL A   1     -30.729  -1.878  24.721  0.00  0.00    -0.216 OA
ENDBRANCH  19  20
ENDBRANCH  18  19
ENDBRANCH  11  18
ENDBRANCH   5   7
BRANCH   1  22
ATOM     22  C   UNL A   1     -25.094  -0.159  28.877  0.00  0.00    +0.178 C 
ATOM     23  O   UNL A   1     -25.982  -0.409  28.226  0.00  0.00    -0.291 OA
BRANCH  22  24
ATOM     24  C   UNL A   1     -24.855  -1.012  30.143  0.00  0.00    +0.100 C 
BRANCH  24  25
ATOM     25  C   UNL A   1     -24.973  -2.505  29.788  0.00  0.00    -0.014 C 
ATOM     26  C   UNL A   1     -23.906  -3.173  29.146  0.00  0.00    -0.004 C 
ATOM     27  C   UNL A   1     -23.989  -4.549  28.853  0.00  0.00    -0.000 C 
ATOM     28  C   UNL A   1     -25.137  -5.280  29.205  0.00  0.00    -0.000 C 
ATOM     29  C   UNL A   1     -26.232  -4.611  29.784  0.00  0.00    -0.000 C 
ATOM     30  C   UNL A   1     -26.155  -3.232  30.065  0.00  0.00    -0.004 C 
ENDBRANCH  24  25
BRANCH  24  31
ATOM     31  C   UNL A   1     -25.387  -0.679  31.571  0.00  0.00    +0.084 C 
ATOM     32  C   UNL A   1     -25.189   0.773  32.028  0.00  0.00    +0.020 C 
ATOM     33  C   UNL A   1     -25.336   0.684  33.544  0.00  0.00    +0.020 C 
ATOM     34  C   UNL A   1     -24.829  -0.715  33.905  0.00  0.00    +0.089 C 
ATOM     35  N   UNL A   1     -24.758  -1.481  32.646  0.00  0.00    -0.219 NA
ENDBRANCH  24  31
ENDBRANCH  22  24
ENDBRANCH   1  22
BRANCH   6  36
ATOM     36  S   UNL A   1     -23.860   2.587  30.524  0.00  0.00    -0.115 S 
BRANCH  36  42
ATOM     37  C   UNL A   1     -26.668   5.508  31.490  0.00  0.00    +0.000 C 
ATOM     38  C   UNL A   1     -26.416   3.125  31.624  0.00  0.00    +0.011 C 
ATOM     39  C   UNL A   1     -24.550   4.505  32.346  0.00  0.00    +0.011 C 
ATOM     40  C   UNL A   1     -27.308   4.182  31.044  0.00  0.00    +0.001 C 
ATOM     41  C   UNL A   1     -25.679   5.405  32.620  0.00  0.00    +0.001 C 
ATOM     42  C   UNL A   1     -25.067   3.700  31.148  0.00  0.00    +0.052 C 
ENDBRANCH  36  42
ENDBRANCH   6  36
TORSDOF 11
