MODEL 4109
MODEL 1
REMARK VINA RESULT:    -4.961      0.000      0.000
REMARK INTER + INTRA:          -5.386
REMARK INTER:                  -5.251
REMARK INTRA:                  -0.135
REMARK UNBOUND:                -0.135
REMARK  Name = No_4109-gen_results/8p0m/2024-11-27-11-27-31/
REMARK  1 active torsions:
REMARK  status: ('A' for Active; 'I' for Inactive)
REMARK    1  A    between atoms: C_4  and  C_8
REMARK                            x       y       z     vdW  Elec       q    Type
REMARK                         _______ _______ _______ _____ _____    ______ ____
ROOT
ATOM      1  C   UNL A   1     -24.955  -3.876  29.105  0.00  0.00    +0.011 A 
ATOM      2  C   UNL A   1     -25.746  -3.453  29.658  0.00  0.00    +0.058 A 
ATOM      3  C   UNL A   1     -23.779  -2.960  28.849  0.00  0.00    +0.005 A 
ATOM      4  C   UNL A   1     -23.745  -1.691  29.465  0.00  0.00    +0.071 A 
ATOM      5  C   UNL A   1     -25.944  -2.202  30.425  0.00  0.00    +0.011 A 
ATOM      6  C   UNL A   1     -24.879  -1.336  30.219  0.00  0.00    +0.005 A 
ATOM      7 CL   UNL A   1     -27.163  -4.559  29.978  0.00  0.00    -0.082 Cl
ENDROOT
BRANCH   4   8
ATOM      8  C   UNL A   1     -22.640  -0.793  29.243  0.00  0.00    +0.419 C 
ATOM      9  F   UNL A   1     -21.592  -1.322  28.975  0.00  0.00    -0.166 F 
ATOM     10  F   UNL A   1     -22.410  -0.040  30.405  0.00  0.00    -0.166 F 
ATOM     11  F   UNL A   1     -22.930   0.162  28.318  0.00  0.00    -0.166 F 
ENDBRANCH   4   8
TORSDOF 1
ENDMDL
ENDMDL
