MODEL 410
MODEL 1
REMARK VINA RESULT:    -5.248      0.000      0.000
REMARK INTER + INTRA:          -6.381
REMARK INTER:                  -6.168
REMARK INTRA:                  -0.213
REMARK UNBOUND:                -0.213
REMARK  Name = No_410-gen_results/8p0m/2024-11-27-11-27-31/
REMARK  3 active torsions:
REMARK  status: ('A' for Active; 'I' for Inactive)
REMARK    1  A    between atoms: C_2  and  C_3
REMARK    2  A    between atoms: C_3  and  C_4
REMARK    3  A    between atoms: C_4  and  C_5
REMARK                            x       y       z     vdW  Elec       q    Type
REMARK                         _______ _______ _______ _____ _____    ______ ____
ROOT
ATOM      1  C   UNL A   1     -23.175  -1.052  28.911  0.00  0.00    -0.022 A 
ATOM      2  C   UNL A   1     -23.957  -0.204  28.093  0.00  0.00    -0.004 A 
ATOM      3  C   UNL A   1     -23.358   0.942  27.581  0.00  0.00    -0.000 A 
ATOM      4  C   UNL A   1     -21.965   1.148  27.750  0.00  0.00    -0.000 A 
ATOM      5  C   UNL A   1     -21.182   0.342  28.529  0.00  0.00    -0.000 A 
ATOM      6  C   UNL A   1     -21.755  -0.788  29.086  0.00  0.00    -0.004 A 
ENDROOT
BRANCH   1   7
ATOM      7  C   UNL A   1     -23.645  -2.278  29.438  0.00  0.00    +0.031 C 
BRANCH   7   8
ATOM      8  C   UNL A   1     -24.281  -3.215  28.544  0.00  0.00    +0.031 C 
BRANCH   8  10
ATOM      9  C   UNL A   1     -24.915  -5.369  29.062  0.00  0.00    -0.005 C 
ATOM     10  C   UNL A   1     -24.136  -4.592  28.560  0.00  0.00    -0.026 C 
ENDBRANCH   8  10
ENDBRANCH   7   8
ENDBRANCH   1   7
TORSDOF 3
ENDMDL
ENDMDL
