MODEL 4110
MODEL 1
REMARK VINA RESULT:    -6.843      0.000      0.000
REMARK INTER + INTRA:          -7.596
REMARK INTER:                  -7.243
REMARK INTRA:                  -0.354
REMARK UNBOUND:                -0.354
REMARK  Name = No_4110-gen_results/8p0m/2024-11-27-11-27-31/
REMARK  1 active torsions:
REMARK  status: ('A' for Active; 'I' for Inactive)
REMARK    1  A    between atoms: C_6  and  C_8
REMARK                            x       y       z     vdW  Elec       q    Type
REMARK                         _______ _______ _______ _____ _____    ______ ____
ROOT
ATOM      1  C   UNL A   1     -23.809   0.679  27.622  0.00  0.00    +0.030 A 
ATOM      2  C   UNL A   1     -22.710   0.930  28.062  0.00  0.00    +0.140 A 
ATOM      3  C   UNL A   1     -22.002   0.089  28.857  0.00  0.00    +0.030 A 
ATOM      4  C   UNL A   1     -22.574  -1.151  29.196  0.00  0.00    +0.002 A 
ATOM      5  C   UNL A   1     -24.413  -0.609  27.849  0.00  0.00    +0.002 A 
ATOM      6  C   UNL A   1     -23.755  -1.478  28.667  0.00  0.00    +0.000 A 
ATOM      7  F   UNL A   1     -22.085   2.100  27.776  0.00  0.00    -0.204 F 
ENDROOT
BRANCH   6   8
ATOM      8  C   UNL A   1     -24.390  -2.792  28.950  0.00  0.00    +0.000 A 
ATOM      9  C   UNL A   1     -24.029  -3.870  28.736  0.00  0.00    +0.000 A 
ATOM     10  C   UNL A   1     -24.760  -5.098  29.020  0.00  0.00    +0.000 A 
ATOM     11  C   UNL A   1     -25.734  -2.607  29.629  0.00  0.00    +0.000 A 
ATOM     12  C   UNL A   1     -26.500  -3.734  29.924  0.00  0.00    +0.000 A 
ATOM     13  C   UNL A   1     -26.012  -4.966  29.612  0.00  0.00    +0.000 A 
ENDBRANCH   6   8
TORSDOF 1
ENDMDL
ENDMDL
