MODEL 4112
MODEL 1
REMARK VINA RESULT:    -6.749      0.000      0.000
REMARK INTER + INTRA:          -8.752
REMARK INTER:                  -7.932
REMARK INTRA:                  -0.819
REMARK UNBOUND:                -0.819
REMARK  Name = No_4112-gen_results/8p0m/2024-11-27-11-27-31/
REMARK  3 active torsions:
REMARK  status: ('A' for Active; 'I' for Inactive)
REMARK    1  A    between atoms: C_2  and  N_7
REMARK    2  A    between atoms: C_9  and  C_15
REMARK    3  A    between atoms: C_16  and  C_17
REMARK                            x       y       z     vdW  Elec       q    Type
REMARK                         _______ _______ _______ _____ _____    ______ ____
ROOT
ATOM      1  N   UNL A   1     -24.565  -1.050  29.364  0.00  0.00    -0.306 N 
ATOM      2  C   UNL A   1     -23.909  -0.605  28.371  0.00  0.00    +0.102 C 
ATOM      3  C   UNL A   1     -24.152   0.820  28.028  0.00  0.00    +0.099 C 
ATOM      4  C   UNL A   1     -25.031  -0.157  30.362  0.00  0.00    +0.099 C 
ATOM      5  C   UNL A   1     -25.157   1.198  30.065  0.00  0.00    +0.086 C 
ATOM      6  C   UNL A   1     -24.605   1.687  28.952  0.00  0.00    +0.158 C 
ATOM      7  O   UNL A   1     -24.628   2.983  28.715  0.00  0.00    -0.296 OA
ENDROOT
BRANCH   1   9
ATOM      8  C   UNL A   1     -25.876  -2.752  29.784  0.00  0.00    +0.026 A 
ATOM      9  C   UNL A   1     -24.968  -2.503  29.310  0.00  0.00    +0.049 A 
ATOM     10  C   UNL A   1     -26.259  -4.214  29.728  0.00  0.00    +0.059 A 
ATOM     11  C   UNL A   1     -25.346  -5.148  29.195  0.00  0.00    +0.011 A 
ATOM     12  C   UNL A   1     -23.842  -3.267  28.727  0.00  0.00    +0.015 A 
ATOM     13  C   UNL A   1     -24.155  -4.617  28.664  0.00  0.00    +0.002 A 
ATOM     14 CL   UNL A   1     -27.812  -4.650  30.290  0.00  0.00    -0.082 Cl
ENDBRANCH   1   9
BRANCH   3  15
ATOM     15  C   UNL A   1     -23.511   1.283  26.755  0.00  0.00    -0.017 C 
ATOM     16  C   UNL A   1     -24.276   1.243  25.656  0.00  0.00    -0.004 C 
BRANCH  16  17
ATOM     17  C   UNL A   1     -25.529   0.676  25.615  0.00  0.00    -0.005 C 
ATOM     18  C   UNL A   1     -26.670   1.596  25.510  0.00  0.00    -0.026 C 
ATOM     19  C   UNL A   1     -26.433   2.923  25.613  0.00  0.00    +0.031 C 
ENDBRANCH  16  17
ENDBRANCH   3  15
TORSDOF 3
ENDMDL
ENDMDL
