MODEL 4113
MODEL 1
REMARK VINA RESULT:    -6.952      0.000      0.000
REMARK INTER + INTRA:         -11.581
REMARK INTER:                  -9.391
REMARK INTRA:                  -2.190
REMARK UNBOUND:                -2.190
REMARK  Name = No_4113-gen_results/8p0m/2024-11-27-11-27-31/
REMARK  6 active torsions:
REMARK  status: ('A' for Active; 'I' for Inactive)
REMARK    1  A    between atoms: C_3  and  C_8
REMARK    2  A    between atoms: C_5  and  C_17
REMARK    3  A    between atoms: C_6  and  C_14
REMARK    4  A    between atoms: C_9  and  C_23
REMARK    5  A    between atoms: C_17  and  C_18
REMARK    6  A    between atoms: C_18  and  C_19
REMARK                            x       y       z     vdW  Elec       q    Type
REMARK                         _______ _______ _______ _____ _____    ______ ____
ROOT
ATOM      1  O   UNL A   1     -28.399   0.617  29.947  0.00  0.00    -0.273 OA
ATOM      2  C   UNL A   1     -27.725   0.444  28.925  0.00  0.00    +0.245 C 
ATOM      3  C   UNL A   1     -26.738   0.342  28.618  0.00  0.00    +0.101 C 
ATOM      4  N   UNL A   1     -28.678   0.365  27.714  0.00  0.00    -0.205 NA
ATOM      5  C   UNL A   1     -26.003   0.332  27.306  0.00  0.00    +0.025 C 
ATOM      6  C   UNL A   1     -26.980   0.219  26.236  0.00  0.00    +0.126 C 
ATOM      7  C   UNL A   1     -28.269   0.300  26.485  0.00  0.00    +0.126 C 
ENDROOT
BRANCH   3   8
ATOM      8  C   UNL A   1     -25.592   0.424  29.708  0.00  0.00    -0.014 A 
ATOM      9  C   UNL A   1     -25.292  -0.707  30.298  0.00  0.00    -0.003 A 
ATOM     10  C   UNL A   1     -25.086   1.678  30.034  0.00  0.00    -0.004 A 
ATOM     11  C   UNL A   1     -24.301   1.866  31.154  0.00  0.00    -0.000 A 
ATOM     12  C   UNL A   1     -24.328  -0.610  31.428  0.00  0.00    -0.000 A 
ATOM     13  C   UNL A   1     -23.846   0.668  31.852  0.00  0.00    -0.000 A 
BRANCH   9  14
ATOM     14  C   UNL A   1     -25.619  -2.098  29.969  0.00  0.00    +0.011 A 
ATOM     15  C   UNL A   1     -24.734  -2.772  29.377  0.00  0.00    +0.058 A 
ATOM     16  C   UNL A   1     -24.951  -4.177  29.137  0.00  0.00    +0.012 A 
ATOM     17  C   UNL A   1     -26.150  -4.756  29.530  0.00  0.00    +0.008 A 
ATOM     18  C   UNL A   1     -26.849  -2.622  30.365  0.00  0.00    +0.007 A 
ATOM     19  C   UNL A   1     -27.146  -3.963  30.112  0.00  0.00    +0.035 A 
ATOM     20 BR   UNL A   1     -28.772  -4.732  30.659  0.00  0.00    -0.049 Br
ATOM     21 CL   UNL A   1     -23.170  -2.285  28.881  0.00  0.00    -0.082 Cl
ENDBRANCH   9  14
ENDBRANCH   3   8
BRANCH   6  22
ATOM     22  C   UNL A   1     -26.482   0.063  24.830  0.00  0.00    +0.366 C 
ATOM     23  O   UNL A   1     -26.589   1.020  24.081  0.00  0.00    -0.246 OA
ATOM     24  O   UNL A   1     -25.973  -1.077  24.440  0.00  0.00    -0.246 OA
ENDBRANCH   6  22
BRANCH   5  25
ATOM     25  C   UNL A   1     -24.583   0.173  27.035  0.00  0.00    +0.010 C 
BRANCH  25  26
ATOM     26  C   UNL A   1     -23.977   1.375  26.613  0.00  0.00    +0.103 C 
BRANCH  26  27
ATOM     27  C   UNL A   1     -22.735   1.722  27.271  0.00  0.00    +0.398 C 
ATOM     28  F   UNL A   1     -22.609   2.511  28.012  0.00  0.00    -0.170 F 
ATOM     29  F   UNL A   1     -21.819   1.887  26.172  0.00  0.00    -0.170 F 
ATOM     30  F   UNL A   1     -22.227   0.487  27.792  0.00  0.00    -0.170 F 
ENDBRANCH  26  27
ENDBRANCH  25  26
ENDBRANCH   5  25
TORSDOF 6
ENDMDL
ENDMDL
