REMARK  Name = No_4114-gen_results/8p0m/2024-11-27-11-27-31/
REMARK  1 active torsions:
REMARK  status: ('A' for Active; 'I' for Inactive)
REMARK    1  A    between atoms: C_2  and  C_3
REMARK                            x       y       z     vdW  Elec       q    Type
REMARK                         _______ _______ _______ _____ _____    ______ ____
ROOT
ATOM      1  O   UNL A   1     -28.123  -1.335  28.487  0.00  0.00    -0.254 OA
ATOM      2  C   UNL A   1     -27.481  -0.404  28.709  0.00  0.00    +0.333 C 
ATOM      3  F   UNL A   1     -26.728  -0.124  27.407  0.00  0.00    -0.159 F 
ENDROOT
BRANCH   2   4
ATOM      4  C   UNL A   1     -27.190   0.246  29.527  0.00  0.00    +0.069 C 
ATOM      5  C   UNL A   1     -26.262   1.370  29.668  0.00  0.00    -0.020 C 
ATOM      6  C   UNL A   1     -25.629   1.598  28.331  0.00  0.00    +0.031 C 
ENDBRANCH   2   4
TORSDOF 1
