MODEL 4114
MODEL 1
REMARK VINA RESULT:    -3.536      0.000      0.000
REMARK INTER + INTRA:          -3.790
REMARK INTER:                  -3.743
REMARK INTRA:                  -0.047
REMARK UNBOUND:                -0.047
REMARK  Name = No_4114-gen_results/8p0m/2024-11-27-11-27-31/
REMARK  1 active torsions:
REMARK  status: ('A' for Active; 'I' for Inactive)
REMARK    1  A    between atoms: C_2  and  C_3
REMARK                            x       y       z     vdW  Elec       q    Type
REMARK                         _______ _______ _______ _____ _____    ______ ____
ROOT
ATOM      1  O   UNL A   1     -27.673 -12.477  34.626  0.00  0.00    -0.254 OA
ATOM      2  C   UNL A   1     -27.193 -12.154  33.629  0.00  0.00    +0.333 C 
ATOM      3  F   UNL A   1     -26.426 -10.872  33.958  0.00  0.00    -0.159 F 
ENDROOT
BRANCH   2   4
ATOM      4  C   UNL A   1     -27.186 -12.405  32.574  0.00  0.00    +0.069 C 
ATOM      5  C   UNL A   1     -27.954 -11.966  31.407  0.00  0.00    -0.020 C 
ATOM      6  C   UNL A   1     -28.935 -10.938  31.877  0.00  0.00    +0.031 C 
ENDBRANCH   2   4
TORSDOF 1
ENDMDL
ENDMDL
