MODEL 4115
MODEL 1
REMARK VINA RESULT:    -9.435      0.000      0.000
REMARK INTER + INTRA:         -13.931
REMARK INTER:                 -12.193
REMARK INTRA:                  -1.738
REMARK UNBOUND:                -1.738
REMARK  Name = No_4115-gen_results/8p0m/2024-11-27-11-27-31/
REMARK  5 active torsions:
REMARK  status: ('A' for Active; 'I' for Inactive)
REMARK    1  A    between atoms: C_2  and  C_3
REMARK    2  A    between atoms: C_5  and  C_16
REMARK    3  A    between atoms: C_6  and  C_13
REMARK    4  A    between atoms: C_16  and  C_17
REMARK    5  A    between atoms: C_16  and  C_23
REMARK                            x       y       z     vdW  Elec       q    Type
REMARK                         _______ _______ _______ _____ _____    ______ ____
ROOT
ATOM      1  C   UNL A   1     -23.862  -1.256  28.784  0.00  0.00    -0.000 A 
ATOM      2  C   UNL A   1     -24.341  -0.424  27.734  0.00  0.00    -0.004 A 
ATOM      3  C   UNL A   1     -23.674   0.664  27.318  0.00  0.00    -0.018 A 
ATOM      4  C   UNL A   1     -22.407   0.990  27.847  0.00  0.00    -0.004 A 
ATOM      5  C   UNL A   1     -21.848   0.189  28.817  0.00  0.00    -0.000 A 
ATOM      6  C   UNL A   1     -22.523  -0.929  29.256  0.00  0.00    -0.000 A 
ENDROOT
BRANCH   1   8
ATOM      7  C   UNL A   1     -25.735  -2.387  29.442  0.00  0.00    +0.007 A 
ATOM      8  C   UNL A   1     -24.580  -2.397  29.084  0.00  0.00    +0.000 A 
ATOM      9  C   UNL A   1     -26.361  -3.691  29.782  0.00  0.00    +0.080 A 
ATOM     10  C   UNL A   1     -25.720  -4.861  29.414  0.00  0.00    +0.007 A 
ATOM     11  C   UNL A   1     -24.484  -4.875  28.850  0.00  0.00    +0.000 A 
ATOM     12  C   UNL A   1     -23.858  -3.668  28.666  0.00  0.00    +0.000 A 
BRANCH   9  13
ATOM     13  C   UNL A   1     -27.736  -3.764  30.333  0.00  0.00    +0.388 C 
ATOM     14  O   UNL A   1     -28.131  -4.657  30.762  0.00  0.00    -0.241 OA
ATOM     15  O   UNL A   1     -28.408  -2.615  30.153  0.00  0.00    -0.241 OA
ENDBRANCH   9  13
ENDBRANCH   1   8
BRANCH   3  16
ATOM     16  C   UNL A   1     -24.204   1.588  26.309  0.00  0.00    +0.045 C 
ATOM     17  C   UNL A   1     -23.134   2.256  25.582  0.00  0.00    +0.009 C 
BRANCH  16  18
ATOM     18  C   UNL A   1     -24.839   2.786  27.293  0.00  0.00    -0.018 A 
ATOM     19  C   UNL A   1     -25.297   2.763  28.249  0.00  0.00    -0.004 A 
ATOM     20  C   UNL A   1     -25.861   3.810  29.097  0.00  0.00    -0.000 A 
ATOM     21  C   UNL A   1     -25.742   5.042  28.551  0.00  0.00    -0.000 A 
ATOM     22  C   UNL A   1     -25.144   5.244  27.295  0.00  0.00    -0.000 A 
ATOM     23  C   UNL A   1     -24.635   4.124  26.646  0.00  0.00    -0.004 A 
ENDBRANCH  16  18
BRANCH  16  24
ATOM     24  C   UNL A   1     -25.216   1.017  25.633  0.00  0.00    +0.051 C 
ATOM     25  C   UNL A   1     -26.413   1.265  25.691  0.00  0.00    -0.021 C 
ATOM     26  C   UNL A   1     -27.177   0.267  24.968  0.00  0.00    -0.005 C 
ATOM     27  C   UNL A   1     -24.921   0.009  24.714  0.00  0.00    -0.021 C 
ATOM     28  C   UNL A   1     -26.279  -0.531  24.333  0.00  0.00    -0.005 C 
ENDBRANCH  16  24
ENDBRANCH   3  16
TORSDOF 5
ENDMDL
ENDMDL
