MODEL 4116
MODEL 1
REMARK VINA RESULT:    -8.128      0.000      0.000
REMARK INTER + INTRA:         -12.286
REMARK INTER:                 -10.978
REMARK INTRA:                  -1.308
REMARK UNBOUND:                -1.308
REMARK  Name = No_4116-gen_results/8p0m/2024-11-27-11-27-31/
REMARK  6 active torsions:
REMARK  status: ('A' for Active; 'I' for Inactive)
REMARK    1  A    between atoms: C_2  and  C_19
REMARK    2  A    between atoms: C_4  and  C_11
REMARK    3  A    between atoms: C_11  and  C_12
REMARK    4  A    between atoms: C_12  and  C_13
REMARK    5  A    between atoms: C_19  and  N_20
REMARK    6  A    between atoms: C_23  and  C_24
REMARK                            x       y       z     vdW  Elec       q    Type
REMARK                         _______ _______ _______ _____ _____    ______ ____
ROOT
ATOM      1  C   UNL A   1     -24.954   1.112  27.633  0.00  0.00    -0.003 A 
ATOM      2  C   UNL A   1     -25.272   1.808  26.908  0.00  0.00    -0.006 A 
ATOM      3  C   UNL A   1     -23.502   1.115  27.849  0.00  0.00    -0.004 A 
ATOM      4  C   UNL A   1     -22.900   0.355  28.962  0.00  0.00    -0.022 A 
ATOM      5  C   UNL A   1     -21.660  -0.068  28.959  0.00  0.00    -0.004 A 
ATOM      6  C   UNL A   1     -24.561   2.562  25.913  0.00  0.00    -0.003 A 
ATOM      7  C   UNL A   1     -23.251   2.555  26.060  0.00  0.00    -0.000 A 
ATOM      8  C   UNL A   1     -22.655   1.854  27.084  0.00  0.00    -0.000 A 
ATOM      9  C   UNL A   1     -20.707   0.592  28.081  0.00  0.00    -0.000 A 
ATOM     10  C   UNL A   1     -21.250   1.552  27.174  0.00  0.00    -0.000 A 
ENDROOT
BRANCH   4  11
ATOM     11  C   UNL A   1     -23.736  -0.362  29.969  0.00  0.00    +0.031 C 
BRANCH  11  12
ATOM     12  C   UNL A   1     -23.519  -1.838  29.739  0.00  0.00    +0.031 C 
BRANCH  12  13
ATOM     13  C   UNL A   1     -24.554  -2.808  29.591  0.00  0.00    -0.022 A 
ATOM     14  C   UNL A   1     -25.815  -2.491  30.008  0.00  0.00    -0.004 A 
ATOM     15  C   UNL A   1     -26.814  -3.510  30.067  0.00  0.00    -0.000 A 
ATOM     16  C   UNL A   1     -26.495  -4.806  29.673  0.00  0.00    -0.000 A 
ATOM     17  C   UNL A   1     -25.278  -5.079  29.085  0.00  0.00    -0.000 A 
ATOM     18  C   UNL A   1     -24.251  -4.106  29.176  0.00  0.00    -0.004 A 
ENDBRANCH  12  13
ENDBRANCH  11  12
ENDBRANCH   4  11
BRANCH   2  19
ATOM     19  C   UNL A   1     -26.881   1.940  26.668  0.00  0.00    +0.100 C 
BRANCH  19  20
ATOM     20  N   UNL A   1     -27.400   1.592  25.566  0.00  0.00    -0.254 NA
ATOM     21  C   UNL A   1     -27.924   2.477  24.753  0.00  0.00    +0.164 C 
ATOM     22  C   UNL A   1     -27.637   0.277  25.182  0.00  0.00    +0.083 C 
ATOM     23  C   UNL A   1     -28.358   0.059  24.076  0.00  0.00    +0.098 C 
ATOM     24  C   UNL A   1     -28.873   1.196  23.318  0.00  0.00    +0.099 C 
ATOM     25  N   UNL A   1     -28.562   2.340  23.654  0.00  0.00    -0.200 NA
BRANCH  23  26
ATOM     26  C   UNL A   1     -28.730  -1.153  23.677  0.00  0.00    +0.210 C 
ATOM     27  O   UNL A   1     -29.963  -1.412  23.682  0.00  0.00    -0.288 OA
ENDBRANCH  23  26
ENDBRANCH  19  20
ENDBRANCH   2  19
TORSDOF 6
ENDMDL
ENDMDL
