MODEL 4117
MODEL 1
REMARK VINA RESULT:    -6.440      0.000      0.000
REMARK INTER + INTRA:          -9.327
REMARK INTER:                  -8.699
REMARK INTRA:                  -0.628
REMARK UNBOUND:                -0.628
REMARK  Name = No_4117-gen_results/8p0m/2024-11-27-11-27-31/
REMARK  6 active torsions:
REMARK  status: ('A' for Active; 'I' for Inactive)
REMARK    1  A    between atoms: C_3  and  C_8
REMARK    2  A    between atoms: C_6  and  O_7
REMARK    3  A    between atoms: O_7  and  C_14
REMARK    4  A    between atoms: C_14  and  C_15
REMARK    5  A    between atoms: C_15  and  O_16
REMARK    6  A    between atoms: O_16  and  C_19
REMARK                            x       y       z     vdW  Elec       q    Type
REMARK                         _______ _______ _______ _____ _____    ______ ____
ROOT
ATOM      1  C   UNL A   1     -28.689 -10.088  33.230  0.00  0.00    +0.037 A 
ATOM      2  C   UNL A   1     -29.103 -10.574  32.203  0.00  0.00    +0.003 A 
ATOM      3  C   UNL A   1     -28.619 -11.765  31.663  0.00  0.00    +0.000 A 
ATOM      4  C   UNL A   1     -27.521 -12.444  32.322  0.00  0.00    +0.003 A 
ATOM      5  C   UNL A   1     -27.084 -11.814  33.509  0.00  0.00    +0.037 A 
ATOM      6  C   UNL A   1     -27.598 -10.688  33.936  0.00  0.00    +0.139 A 
ENDROOT
BRANCH   3   7
ATOM      7  C   UNL A   1     -29.081 -12.427  30.400  0.00  0.00    +0.001 A 
ATOM      8  C   UNL A   1     -29.062 -11.767  29.250  0.00  0.00    +0.011 A 
ATOM      9  C   UNL A   1     -29.512 -12.226  28.161  0.00  0.00    +0.058 A 
ATOM     10  C   UNL A   1     -30.158 -13.483  28.040  0.00  0.00    +0.011 A 
ATOM     11  C   UNL A   1     -29.738 -13.668  30.415  0.00  0.00    +0.000 A 
ATOM     12  C   UNL A   1     -30.271 -14.220  29.204  0.00  0.00    +0.001 A 
ATOM     13 CL   UNL A   1     -29.399 -11.341  26.642  0.00  0.00    -0.082 Cl
ENDBRANCH   3   7
BRANCH   6  14
ATOM     14  O   UNL A   1     -27.060 -10.143  35.068  0.00  0.00    -0.464 OA
BRANCH  14  15
ATOM     15  C   UNL A   1     -26.794  -8.853  35.178  0.00  0.00    +0.315 C 
BRANCH  15  16
ATOM     16  C   UNL A   1     -27.421  -8.299  36.177  0.00  0.00    +0.367 C 
ATOM     17  O   UNL A   1     -28.416  -8.977  36.758  0.00  0.00    -0.245 OA
BRANCH  16  18
ATOM     18  O   UNL A   1     -26.923  -7.493  36.870  0.00  0.00    -0.406 OA
BRANCH  18  19
ATOM     19  C   UNL A   1     -27.259  -7.072  37.985  0.00  0.00    +0.267 C 
ATOM     20  C   UNL A   1     -26.344  -7.007  39.071  0.00  0.00    +0.175 C 
ATOM     21  O   UNL A   1     -25.226  -7.177  38.901  0.00  0.00    -0.228 OA
ENDBRANCH  18  19
ENDBRANCH  16  18
ENDBRANCH  15  16
ENDBRANCH  14  15
ENDBRANCH   6  14
TORSDOF 6
ENDMDL
ENDMDL
