REMARK  Name = No_4118-gen_results/8p0m/2024-11-27-11-27-31/
REMARK  1 active torsions:
REMARK  status: ('A' for Active; 'I' for Inactive)
REMARK    1  A    between atoms: C_4  and  C_5
REMARK                            x       y       z     vdW  Elec       q    Type
REMARK                         _______ _______ _______ _____ _____    ______ ____
ROOT
ATOM      1  C   UNL A   1     -28.016  -0.814  28.878  0.00  0.00    +0.011 A 
ATOM      2  C   UNL A   1     -27.064  -0.119  28.608  0.00  0.00    +0.057 A 
ATOM      3  C   UNL A   1     -25.792  -0.430  29.076  0.00  0.00    +0.007 A 
ATOM      4  C   UNL A   1     -25.576  -1.565  29.936  0.00  0.00    -0.021 A 
ATOM      5  C   UNL A   1     -27.961  -1.913  29.818  0.00  0.00    +0.001 A 
ATOM      6  C   UNL A   1     -26.739  -2.305  30.320  0.00  0.00    -0.004 A 
ATOM      7 CL   UNL A   1     -27.119   1.284  27.624  0.00  0.00    -0.082 Cl
ENDROOT
BRANCH   4   8
ATOM      8  C   UNL A   1     -24.372  -1.942  30.447  0.00  0.00    +0.026 C 
ATOM      9  C   UNL A   1     -23.706  -0.967  31.311  0.00  0.00    +0.005 C 
ENDBRANCH   4   8
TORSDOF 1
