MODEL 4118
MODEL 1
REMARK VINA RESULT:    -4.780      0.000      0.000
REMARK INTER + INTRA:          -5.140
REMARK INTER:                  -5.059
REMARK INTRA:                  -0.080
REMARK UNBOUND:                -0.080
REMARK  Name = No_4118-gen_results/8p0m/2024-11-27-11-27-31/
REMARK  1 active torsions:
REMARK  status: ('A' for Active; 'I' for Inactive)
REMARK    1  A    between atoms: C_4  and  C_5
REMARK                            x       y       z     vdW  Elec       q    Type
REMARK                         _______ _______ _______ _____ _____    ______ ____
ROOT
ATOM      1  C   UNL A   1     -25.701  -5.088  29.322  0.00  0.00    +0.011 A 
ATOM      2  C   UNL A   1     -26.380  -4.182  29.747  0.00  0.00    +0.057 A 
ATOM      3  C   UNL A   1     -25.970  -2.859  29.623  0.00  0.00    +0.007 A 
ATOM      4  C   UNL A   1     -24.703  -2.528  29.025  0.00  0.00    -0.021 A 
ATOM      5  C   UNL A   1     -24.362  -4.907  28.803  0.00  0.00    +0.001 A 
ATOM      6  C   UNL A   1     -23.879  -3.628  28.627  0.00  0.00    -0.004 A 
ATOM      7 CL   UNL A   1     -27.903  -4.370  30.511  0.00  0.00    -0.082 Cl
ENDROOT
BRANCH   4   8
ATOM      8  C   UNL A   1     -24.217  -1.266  28.868  0.00  0.00    +0.026 C 
ATOM      9  C   UNL A   1     -22.786  -1.092  29.120  0.00  0.00    +0.005 C 
ENDBRANCH   4   8
TORSDOF 1
ENDMDL
ENDMDL
