REMARK  Name = No_4119-gen_results/8p0m/2024-11-27-11-27-31/
REMARK  4 active torsions:
REMARK  status: ('A' for Active; 'I' for Inactive)
REMARK    1  A    between atoms: C_2  and  C_9
REMARK    2  A    between atoms: C_5  and  N_8
REMARK    3  A    between atoms: C_9  and  C_10
REMARK    4  A    between atoms: CA_14  and  C_15
REMARK                            x       y       z     vdW  Elec       q    Type
REMARK                         _______ _______ _______ _____ _____    ______ ____
ROOT
ATOM      1  C   UNL A   1     -28.016  -0.814  28.878  0.00  0.00    -0.002 A 
ATOM      2  C   UNL A   1     -27.064  -0.119  28.608  0.00  0.00    -0.007 A 
ATOM      3  C   UNL A   1     -26.972   0.714  27.506  0.00  0.00    +0.056 A 
ATOM      4  C   UNL A   1     -28.105   0.774  26.642  0.00  0.00    +0.030 A 
ATOM      5  C   UNL A   1     -29.204   0.118  27.048  0.00  0.00    +0.082 A 
ATOM      6  C   UNL A   1     -29.213  -0.609  28.128  0.00  0.00    +0.019 A 
ATOM      7 CL   UNL A   1     -25.707   1.712  26.984  0.00  0.00    -0.083 Cl
ENDROOT
BRANCH   5   8
ATOM      8  N   UNL A   1     -30.316   0.197  26.206  0.00  0.00    -0.248 NA
ATOM      9  C   UNL A   1     -31.487  -0.183  26.551  0.00  0.00    +0.073 C 
ATOM     10  C   UNL A   1     -32.487  -0.214  25.728  0.00  0.00    +0.053 C 
ENDBRANCH   5   8
BRANCH   2  11
ATOM     11  C   UNL A   1     -25.671  -0.148  29.402  0.00  0.00    +0.052 C 
BRANCH  11  12
ATOM     12  C   UNL A   1     -25.040  -1.302  29.507  0.00  0.00    -0.005 C 
ATOM     13  C   UNL A   1     -25.230  -2.332  29.294  0.00  0.00    +0.014 C 
ATOM     14  C   UNL A   1     -24.314  -3.487  29.378  0.00  0.00    +0.093 C 
ATOM     15  N   UNL A   1     -23.195  -2.838  29.805  0.00  0.00    -0.255 NA
ATOM     16  CA  UNL A   1     -23.639  -1.503  29.854  0.00  0.00    +0.224 C 
BRANCH  16  17
ATOM     17  C   UNL A   1     -22.734  -0.392  30.173  0.00  0.00    +0.391 C 
ATOM     18  O   UNL A   1     -21.774  -0.547  30.702  0.00  0.00    -0.243 OA
ATOM     19  OXT UNL A   1     -22.985   0.858  29.523  0.00  0.00    -0.243 OA
ENDBRANCH  16  17
ENDBRANCH  11  12
ENDBRANCH   2  11
TORSDOF 4
