MODEL 411
MODEL 1
REMARK VINA RESULT:    -4.504      0.000      0.000
REMARK INTER + INTRA:          -4.504
REMARK INTER:                  -4.504
REMARK INTRA:                   0.000
REMARK UNBOUND:                 0.000
REMARK  Name = No_411-gen_results/8p0m/2024-11-27-11-27-31/
REMARK  0 active torsions:
REMARK  status: ('A' for Active; 'I' for Inactive)
REMARK                            x       y       z     vdW  Elec       q    Type
REMARK                         _______ _______ _______ _____ _____    ______ ____
ROOT
ATOM      1  C   UNL A   1      -9.227  -9.207  20.019  0.00  0.00    +0.011 A 
ATOM      2  C   UNL A   1      -8.242  -9.902  19.927  0.00  0.00    +0.058 A 
ATOM      3  C   UNL A   1      -8.056 -10.744  18.837  0.00  0.00    +0.011 A 
ATOM      4  C   UNL A   1      -9.055 -10.850  17.804  0.00  0.00    +0.001 A 
ATOM      5  C   UNL A   1     -10.173 -10.030  18.001  0.00  0.00    +0.000 A 
ATOM      6  C   UNL A   1     -10.308  -9.263  19.059  0.00  0.00    +0.001 A 
ATOM      7 CL   UNL A   1      -6.979  -9.939  21.084  0.00  0.00    -0.082 Cl
ENDROOT
TORSDOF 0
ENDMDL
ENDMDL
