REMARK  Name = No_4120-gen_results/8p0m/2024-11-27-11-27-31/
REMARK  2 active torsions:
REMARK  status: ('A' for Active; 'I' for Inactive)
REMARK    1  A    between atoms: C_2  and  N_3
REMARK    2  A    between atoms: N_3  and  C_8
REMARK                            x       y       z     vdW  Elec       q    Type
REMARK                         _______ _______ _______ _____ _____    ______ ____
ROOT
ATOM      1  C   UNL A   1     -28.016  -0.814  28.878  0.00  0.00    +0.017 A 
ATOM      2  C   UNL A   1     -27.064  -0.119  28.608  0.00  0.00    +0.070 A 
ATOM      3  C   UNL A   1     -27.961  -1.542  30.166  0.00  0.00    +0.001 A 
ATOM      4  C   UNL A   1     -26.781  -1.620  30.884  0.00  0.00    +0.000 A 
ATOM      5  C   UNL A   1     -25.646  -0.970  30.463  0.00  0.00    +0.001 A 
ATOM      6  C   UNL A   1     -25.756  -0.177  29.286  0.00  0.00    +0.017 A 
ENDROOT
BRANCH   2   7
ATOM      7  N   UNL A   1     -26.985   0.597  27.522  0.00  0.00    -0.211 NA
BRANCH   7   8
ATOM      8  C   UNL A   1     -25.902   0.896  26.809  0.00  0.00    +0.086 C 
ATOM      9  C   UNL A   1     -24.658   0.971  27.480  0.00  0.00    +0.019 C 
ENDBRANCH   7   8
ENDBRANCH   2   7
TORSDOF 2
