MODEL 4120
MODEL 1
REMARK VINA RESULT:    -4.914      0.000      0.000
REMARK INTER + INTRA:          -5.605
REMARK INTER:                  -5.488
REMARK INTRA:                  -0.117
REMARK UNBOUND:                -0.117
REMARK  Name = No_4120-gen_results/8p0m/2024-11-27-11-27-31/
REMARK  2 active torsions:
REMARK  status: ('A' for Active; 'I' for Inactive)
REMARK    1  A    between atoms: C_2  and  N_3
REMARK    2  A    between atoms: N_3  and  C_8
REMARK                            x       y       z     vdW  Elec       q    Type
REMARK                         _______ _______ _______ _____ _____    ______ ____
ROOT
ATOM      1  C   UNL A   1     -25.193  -2.486  29.613  0.00  0.00    +0.017 A 
ATOM      2  C   UNL A   1     -24.148  -2.953  29.223  0.00  0.00    +0.070 A 
ATOM      3  C   UNL A   1     -26.267  -3.450  29.944  0.00  0.00    +0.001 A 
ATOM      4  C   UNL A   1     -26.160  -4.780  29.580  0.00  0.00    +0.000 A 
ATOM      5  C   UNL A   1     -25.030  -5.262  28.964  0.00  0.00    +0.001 A 
ATOM      6  C   UNL A   1     -23.962  -4.342  28.765  0.00  0.00    +0.017 A 
ENDROOT
BRANCH   2   7
ATOM      7  N   UNL A   1     -23.109  -2.228  28.918  0.00  0.00    -0.211 NA
BRANCH   7   8
ATOM      8  C   UNL A   1     -22.819  -0.993  29.321  0.00  0.00    +0.086 C 
ATOM      9  C   UNL A   1     -21.569  -0.443  28.949  0.00  0.00    +0.019 C 
ENDBRANCH   7   8
ENDBRANCH   2   7
TORSDOF 2
ENDMDL
ENDMDL
