REMARK  Name = No_4121-gen_results/8p0m/2024-11-27-11-27-31/
REMARK  0 active torsions:
REMARK  status: ('A' for Active; 'I' for Inactive)
REMARK                            x       y       z     vdW  Elec       q    Type
REMARK                         _______ _______ _______ _____ _____    ______ ____
ROOT
ATOM      1  I   UNL A   1     -28.195  -0.371  29.281  0.00  0.00    -0.043 I 
ATOM      2  C   UNL A   1     -26.906   0.835  28.771  0.00  0.00    +0.030 A 
ATOM      3  C   UNL A   1     -26.230   0.767  27.497  0.00  0.00    +0.006 A 
ATOM      4  C   UNL A   1     -25.166   1.561  27.054  0.00  0.00    +0.000 A 
ATOM      5  C   UNL A   1     -24.658   2.543  27.998  0.00  0.00    +0.000 A 
ATOM      6  C   UNL A   1     -25.200   2.596  29.212  0.00  0.00    +0.000 A 
ATOM      7  C   UNL A   1     -26.192   1.807  29.612  0.00  0.00    +0.006 A 
ENDROOT
TORSDOF 0
