MODEL 4121
MODEL 1
REMARK VINA RESULT:    -4.210      0.000      0.000
REMARK INTER + INTRA:          -4.210
REMARK INTER:                  -4.210
REMARK INTRA:                   0.000
REMARK UNBOUND:                 0.000
REMARK  Name = No_4121-gen_results/8p0m/2024-11-27-11-27-31/
REMARK  0 active torsions:
REMARK  status: ('A' for Active; 'I' for Inactive)
REMARK                            x       y       z     vdW  Elec       q    Type
REMARK                         _______ _______ _______ _____ _____    ______ ____
ROOT
ATOM      1  I   UNL A   1     -27.738  -2.159  30.699  0.00  0.00    -0.043 I 
ATOM      2  C   UNL A   1     -26.368  -3.022  29.829  0.00  0.00    +0.030 A 
ATOM      3  C   UNL A   1     -26.320  -4.457  29.674  0.00  0.00    +0.006 A 
ATOM      4  C   UNL A   1     -25.281  -5.220  29.129  0.00  0.00    +0.000 A 
ATOM      5  C   UNL A   1     -24.098  -4.489  28.705  0.00  0.00    +0.000 A 
ATOM      6  C   UNL A   1     -24.064  -3.172  28.895  0.00  0.00    +0.000 A 
ATOM      7  C   UNL A   1     -25.058  -2.480  29.442  0.00  0.00    +0.006 A 
ENDROOT
TORSDOF 0
ENDMDL
ENDMDL
