MODEL 4122
MODEL 1
REMARK VINA RESULT:    -7.289      0.000      0.000
REMARK INTER + INTRA:          -9.744
REMARK INTER:                  -8.567
REMARK INTRA:                  -1.177
REMARK UNBOUND:                -1.177
REMARK  Name = No_4122-gen_results/8p0m/2024-11-27-11-27-31/
REMARK  3 active torsions:
REMARK  status: ('A' for Active; 'I' for Inactive)
REMARK    1  A    between atoms: C_3  and  C_4
REMARK    2  A    between atoms: C_4  and  C_8
REMARK    3  A    between atoms: C_7  and  C_15
REMARK                            x       y       z     vdW  Elec       q    Type
REMARK                         _______ _______ _______ _____ _____    ______ ____
ROOT
ATOM      1  C   UNL A   1     -25.769  -0.320  26.829  0.00  0.00    -0.004 A 
ATOM      2  C   UNL A   1     -25.302   0.218  26.052  0.00  0.00    -0.000 A 
ATOM      3  C   UNL A   1     -25.026  -0.429  28.094  0.00  0.00    -0.022 A 
ATOM      4  C   UNL A   1     -24.098   1.083  26.041  0.00  0.00    -0.000 A 
ATOM      5  C   UNL A   1     -23.342   1.040  27.208  0.00  0.00    -0.005 A 
ATOM      6  C   UNL A   1     -23.775   0.310  28.295  0.00  0.00    -0.026 A 
ENDROOT
BRANCH   6   7
ATOM      7  C   UNL A   1     -23.038   0.331  29.495  0.00  0.00    +0.022 C 
ATOM      8  C   UNL A   1     -21.901  -0.416  29.620  0.00  0.00    +0.005 C 
ATOM      9  C   UNL A   1     -23.356   1.284  30.529  0.00  0.00    +0.005 C 
ENDBRANCH   6   7
BRANCH   3  10
ATOM     10  C   UNL A   1     -25.379  -1.232  29.256  0.00  0.00    +0.052 C 
BRANCH  10  11
ATOM     11  C   UNL A   1     -25.207  -2.687  29.109  0.00  0.00    -0.022 A 
ATOM     12  C   UNL A   1     -26.152  -3.490  29.670  0.00  0.00    -0.025 A 
ATOM     13  C   UNL A   1     -24.129  -3.272  28.464  0.00  0.00    -0.004 A 
ATOM     14  C   UNL A   1     -23.981  -4.655  28.457  0.00  0.00    -0.000 A 
ATOM     15  C   UNL A   1     -26.046  -4.889  29.660  0.00  0.00    -0.005 A 
ATOM     16  C   UNL A   1     -24.943  -5.469  29.065  0.00  0.00    -0.000 A 
ATOM     17  C   UNL A   1     -27.303  -2.964  30.354  0.00  0.00    +0.031 C 
ENDBRANCH  10  11
ENDBRANCH   3  10
TORSDOF 3
ENDMDL
ENDMDL
