REMARK  Name = outputs/IAG933/test6/raw/output_4122_IAG933_linker_design_.xyz
REMARK  10 active torsions:
REMARK  status: ('A' for Active; 'I' for Inactive)
REMARK    1  A    between atoms: C_1  and  C_2
REMARK    2  A    between atoms: C_1  and  C_8
REMARK    3  A    between atoms: C_1  and  C_37
REMARK    4  A    between atoms: C_13  and  C_33
REMARK    5  A    between atoms: C_14  and  C_15
REMARK    6  A    between atoms: C_21  and  O_22
REMARK    7  A    between atoms: O_22  and  C_23
REMARK    8  A    between atoms: C_23  and  C_24
REMARK    9  A    between atoms: N_31  and  C_34
REMARK   10  A    between atoms: CA_32  and  C_36
REMARK                            x       y       z     vdW  Elec       q    Type
REMARK                         _______ _______ _______ _____ _____    ______ ____
ROOT
ATOM      1  C   UNL A   1     -23.374   1.994  25.649  0.00  0.00    +0.018 C 
ATOM      2  C   UNL A   1     -22.026   2.005  25.995  0.00  0.00    +0.098 C 
ATOM      3  N   UNL A   1     -21.677   1.576  27.246  0.00  0.00    -0.244 NA
ATOM      4  CA  UNL A   1     -22.686   1.202  28.102  0.00  0.00    +0.107 C 
ATOM      5  C   UNL A   1     -24.365   1.560  26.625  0.00  0.00    +0.003 C 
ATOM      6  C   UNL A   1     -24.012   1.157  27.758  0.00  0.00    +0.086 C 
ENDROOT
BRANCH   5   7
ATOM      7  C   UNL A   1     -25.688   1.614  26.461  0.00  0.00    +0.094 C 
ATOM      8  C   UNL A   1     -26.250   2.920  26.395  0.00  0.00    +0.059 C 
ATOM      9  C   UNL A   1     -27.438   3.091  25.645  0.00  0.00    +0.102 C 
ATOM     10  N   UNL A   1     -28.075   2.089  25.003  0.00  0.00    -0.212 NA
ATOM     11  C   UNL A   1     -27.543   0.849  25.079  0.00  0.00    +0.234 C 
ATOM     12  C   UNL A   1     -26.354   0.576  25.777  0.00  0.00    +0.244 C 
ATOM     13  F   UNL A   1     -25.860  -0.681  25.795  0.00  0.00    -0.227 F 
BRANCH   8  14
ATOM     14  C   UNL A   1     -25.642   4.093  27.123  0.00  0.00    +0.263 C 
ATOM     15  N   UNL A   1     -25.614   5.252  26.449  0.00  0.00    -0.200 NA
ATOM     16  C   UNL A   1     -25.026   6.479  26.963  0.00  0.00    +0.139 C 
ATOM     17  O   UNL A   1     -25.143   3.966  28.243  0.00  0.00    -0.269 OA
ENDBRANCH   8  14
BRANCH  11  18
ATOM     18  O   UNL A   1     -28.193  -0.208  24.477  0.00  0.00    -0.459 OA
BRANCH  18  19
ATOM     19  C   UNL A   1     -29.460   0.005  23.866  0.00  0.00    +0.242 C 
BRANCH  19  20
ATOM     20  C   UNL A   1     -30.065  -1.377  23.573  0.00  0.00    +0.229 C 
ATOM     21  O   UNL A   1     -30.729  -1.878  24.721  0.00  0.00    -0.216 OA
ENDBRANCH  19  20
ENDBRANCH  18  19
ENDBRANCH  11  18
ENDBRANCH   5   7
BRANCH   6  22
ATOM     22  N   UNL A   1     -24.977   0.921  28.703  0.00  0.00    -0.178 NA
ATOM     23  C   UNL A   1     -25.585  -0.183  29.126  0.00  0.00    +0.251 C 
ATOM     24  O   UNL A   1     -26.692  -0.496  28.722  0.00  0.00    -0.273 OA
BRANCH  23  25
ATOM     25  C   UNL A   1     -24.855  -1.012  30.143  0.00  0.00    +0.117 C 
BRANCH  25  26
ATOM     26  C   UNL A   1     -24.973  -2.505  29.788  0.00  0.00    -0.013 C 
ATOM     27  C   UNL A   1     -23.906  -3.173  29.146  0.00  0.00    -0.004 C 
ATOM     28  C   UNL A   1     -23.989  -4.549  28.853  0.00  0.00    -0.000 C 
ATOM     29  C   UNL A   1     -25.137  -5.280  29.205  0.00  0.00    -0.000 C 
ATOM     30  C   UNL A   1     -26.232  -4.611  29.784  0.00  0.00    -0.000 C 
ATOM     31  C   UNL A   1     -26.155  -3.232  30.065  0.00  0.00    -0.004 C 
ENDBRANCH  25  26
BRANCH  25  32
ATOM     32  C   UNL A   1     -25.387  -0.679  31.571  0.00  0.00    +0.086 C 
ATOM     33  C   UNL A   1     -25.189   0.773  32.028  0.00  0.00    +0.020 C 
ATOM     34  C   UNL A   1     -25.336   0.684  33.544  0.00  0.00    +0.020 C 
ATOM     35  C   UNL A   1     -24.829  -0.715  33.905  0.00  0.00    +0.089 C 
ATOM     36  N   UNL A   1     -24.758  -1.481  32.646  0.00  0.00    -0.219 NA
ENDBRANCH  25  32
ENDBRANCH  23  25
ENDBRANCH   6  22
BRANCH   4  38
ATOM     37  O   UNL A   1     -23.338   2.080  30.115  0.00  0.00    -0.213 OA
ATOM     38  C   UNL A   1     -22.583   1.054  29.547  0.00  0.00    +0.229 C 
ENDBRANCH   4  38
TORSDOF 10
