REMARK  Name = outputs/IAG933/test6/raw/output_4123_IAG933_linker_design_.xyz
REMARK  14 active torsions:
REMARK  status: ('A' for Active; 'I' for Inactive)
REMARK    1  A    between atoms: C_1  and  C_2
REMARK    2  A    between atoms: C_1  and  C_8
REMARK    3  A    between atoms: C_1  and  N_32
REMARK    4  A    between atoms: C_13  and  C_43
REMARK    5  A    between atoms: C_14  and  C_15
REMARK    6  A    between atoms: C_21  and  O_22
REMARK    7  A    between atoms: O_22  and  C_23
REMARK    8  A    between atoms: C_23  and  C_24
REMARK    9  A    between atoms: N_28  and  C_38
REMARK   10  A    between atoms: C_29  and  C_31
REMARK   11  A    between atoms: C_31  and  N_32
REMARK   12  A    between atoms: N_32  and  C_44
REMARK   13  A    between atoms: C_35  and  C_43
REMARK   14  A    between atoms: C_43  and  C_44
REMARK                            x       y       z     vdW  Elec       q    Type
REMARK                         _______ _______ _______ _____ _____    ______ ____
ROOT
ATOM      1  N   UNL A   1     -26.032  -0.444  29.233  0.00  0.00    -0.264 NA
ENDROOT
BRANCH   1   2
ATOM      2  C   UNL A   1     -24.855  -1.012  30.143  0.00  0.00    +0.097 C 
BRANCH   2   3
ATOM      3  C   UNL A   1     -24.973  -2.505  29.788  0.00  0.00    -0.006 C 
ATOM      4  C   UNL A   1     -23.906  -3.173  29.146  0.00  0.00    -0.003 C 
ATOM      5  C   UNL A   1     -23.989  -4.549  28.853  0.00  0.00    -0.000 C 
ATOM      6  C   UNL A   1     -25.137  -5.280  29.205  0.00  0.00    -0.000 C 
ATOM      7  C   UNL A   1     -26.232  -4.611  29.784  0.00  0.00    -0.000 C 
ATOM      8  C   UNL A   1     -26.155  -3.232  30.065  0.00  0.00    -0.003 C 
ENDBRANCH   2   3
BRANCH   2   9
ATOM      9  C   UNL A   1     -25.387  -0.679  31.571  0.00  0.00    +0.092 C 
ATOM     10  C   UNL A   1     -25.189   0.773  32.028  0.00  0.00    +0.021 C 
ATOM     11  C   UNL A   1     -25.336   0.684  33.544  0.00  0.00    +0.020 C 
ATOM     12  C   UNL A   1     -24.829  -0.715  33.905  0.00  0.00    +0.089 C 
ATOM     13  N   UNL A   1     -24.758  -1.481  32.646  0.00  0.00    -0.218 NA
ENDBRANCH   2   9
ENDBRANCH   1   2
BRANCH   1  14
ATOM     14  C   UNL A   1     -27.539  -0.338  28.638  0.00  0.00    +0.123 C 
BRANCH  14  16
ATOM     15  N   UNL A   1     -29.182  -1.027  30.448  0.00  0.00    -0.261 N 
ATOM     16  C   UNL A   1     -28.605  -0.122  29.613  0.00  0.00    +0.088 C 
ATOM     17  O   UNL A   1     -29.051  -0.670  31.709  0.00  0.00    -0.416 OA
ATOM     18  O   UNL A   1     -29.037   1.133  29.653  0.00  0.00    -0.539 OA
BRANCH  15  24
ATOM     19  C   UNL A   1     -29.259  -3.462  30.989  0.00  0.00    +0.015 C 
ATOM     20  C   UNL A   1     -29.776  -4.713  30.627  0.00  0.00    +0.001 C 
ATOM     21  C   UNL A   1     -31.220  -2.438  30.139  0.00  0.00    -0.008 C 
ATOM     22  C   UNL A   1     -31.685  -3.667  29.607  0.00  0.00    -0.003 C 
ATOM     23  C   UNL A   1     -32.197  -1.308  30.426  0.00  0.00    +0.032 C 
ATOM     24  C   UNL A   1     -29.895  -2.326  30.512  0.00  0.00    +0.053 C 
ATOM     25  C   UNL A   1     -30.935  -4.813  29.851  0.00  0.00    -0.000 C 
ENDBRANCH  15  24
ENDBRANCH  14  16
ENDBRANCH   1  14
BRANCH   1  26
ATOM     26  C   UNL A   1     -25.287   0.779  28.786  0.00  0.00    +0.077 C 
BRANCH  26  27
ATOM     27  C   UNL A   1     -24.701   1.090  27.368  0.00  0.00    +0.041 C 
BRANCH  27  28
ATOM     28  C   UNL A   1     -25.688   1.614  26.461  0.00  0.00    +0.017 C 
ATOM     29  C   UNL A   1     -26.250   2.920  26.395  0.00  0.00    +0.073 C 
ATOM     30  C   UNL A   1     -27.438   3.091  25.645  0.00  0.00    +0.106 C 
ATOM     31  N   UNL A   1     -28.075   2.089  25.003  0.00  0.00    -0.208 NA
ATOM     32  C   UNL A   1     -27.543   0.849  25.079  0.00  0.00    +0.253 C 
ATOM     33  C   UNL A   1     -26.354   0.576  25.777  0.00  0.00    +0.189 C 
ATOM     34  F   UNL A   1     -25.860  -0.681  25.795  0.00  0.00    -0.200 F 
BRANCH  29  35
ATOM     35  C   UNL A   1     -25.642   4.093  27.123  0.00  0.00    +0.266 C 
ATOM     36  N   UNL A   1     -25.614   5.252  26.449  0.00  0.00    -0.200 NA
ATOM     37  C   UNL A   1     -25.026   6.479  26.963  0.00  0.00    +0.139 C 
ATOM     38  O   UNL A   1     -25.143   3.966  28.243  0.00  0.00    -0.268 OA
ENDBRANCH  29  35
BRANCH  32  39
ATOM     39  O   UNL A   1     -28.193  -0.208  24.477  0.00  0.00    -0.456 OA
BRANCH  39  40
ATOM     40  C   UNL A   1     -29.460   0.005  23.866  0.00  0.00    +0.243 C 
BRANCH  40  41
ATOM     41  C   UNL A   1     -30.065  -1.377  23.573  0.00  0.00    +0.229 C 
ATOM     42  O   UNL A   1     -30.729  -1.878  24.721  0.00  0.00    -0.216 OA
ENDBRANCH  40  41
ENDBRANCH  39  40
ENDBRANCH  32  39
ENDBRANCH  27  28
BRANCH  27  43
ATOM     43  C   UNL A   1     -23.175   0.902  27.215  0.00  0.00    +0.005 C 
ATOM     44  C   UNL A   1     -22.416   0.747  28.557  0.00  0.00    +0.000 C 
ATOM     45  C   UNL A   1     -22.437   1.946  26.360  0.00  0.00    +0.000 C 
ENDBRANCH  27  43
ENDBRANCH  26  27
ENDBRANCH   1  26
TORSDOF 14
