MODEL 4124
MODEL 1
REMARK VINA RESULT:    -7.280      0.000      0.000
REMARK INTER + INTRA:         -13.895
REMARK INTER:                 -10.685
REMARK INTRA:                  -3.210
REMARK UNBOUND:                -3.210
REMARK  Name = No_4124-gen_results/8p0m/2024-11-27-11-27-31/
REMARK  8 active torsions:
REMARK  status: ('A' for Active; 'I' for Inactive)
REMARK    1  A    between atoms: C_3  and  C_8
REMARK    2  A    between atoms: C_8  and  C_9
REMARK    3  A    between atoms: C_8  and  C_11
REMARK    4  A    between atoms: C_11  and  N_12
REMARK    5  A    between atoms: N_12  and  C_17
REMARK    6  A    between atoms: C_17  and  C_18
REMARK    7  A    between atoms: C_18  and  C_19
REMARK    8  A    between atoms: C_19  and  C_20
REMARK                            x       y       z     vdW  Elec       q    Type
REMARK                         _______ _______ _______ _____ _____    ______ ____
ROOT
ATOM      1  C   UNL A   1     -24.877  -1.406  28.911  0.00  0.00    +0.062 C 
ENDROOT
BRANCH   1   4
ATOM      2  C   UNL A   1     -27.269   0.793  27.247  0.00  0.00    +0.011 A 
ATOM      3  C   UNL A   1     -26.618   0.161  28.046  0.00  0.00    -0.003 A 
ATOM      4  C   UNL A   1     -25.573  -0.582  27.816  0.00  0.00    -0.017 A 
ATOM      5  C   UNL A   1     -25.116  -0.700  26.469  0.00  0.00    -0.003 A 
ATOM      6  C   UNL A   1     -26.797   0.815  25.875  0.00  0.00    +0.058 A 
ATOM      7  C   UNL A   1     -25.743   0.066  25.551  0.00  0.00    +0.011 A 
ATOM      8 CL   UNL A   1     -27.652   1.800  24.776  0.00  0.00    -0.082 Cl
ENDBRANCH   1   4
BRANCH   1   9
ATOM      9  C   UNL A   1     -24.891  -2.480  29.095  0.00  0.00    -0.017 A 
ATOM     10  C   UNL A   1     -24.009  -3.522  28.519  0.00  0.00    -0.004 A 
ATOM     11  C   UNL A   1     -24.207  -4.882  28.786  0.00  0.00    -0.000 A 
ATOM     12  C   UNL A   1     -25.998  -3.305  29.717  0.00  0.00    -0.004 A 
ATOM     13  C   UNL A   1     -26.337  -4.569  29.682  0.00  0.00    -0.000 A 
ATOM     14  C   UNL A   1     -25.362  -5.433  29.133  0.00  0.00    -0.000 A 
ENDBRANCH   1   9
BRANCH   1  15
ATOM     15  C   UNL A   1     -24.712  -0.773  30.269  0.00  0.00    +0.097 C 
BRANCH  15  16
ATOM     16  N   UNL A   1     -23.549   0.119  30.450  0.00  0.00    -0.217 NA
BRANCH  16  17
ATOM     17  C   UNL A   1     -22.310  -0.410  30.110  0.00  0.00    +0.089 C 
BRANCH  17  18
ATOM     18  C   UNL A   1     -21.890  -0.052  28.750  0.00  0.00    +0.024 C 
BRANCH  18  19
ATOM     19  C   UNL A   1     -21.949   1.263  28.399  0.00  0.00    +0.028 C 
BRANCH  19  20
ATOM     20  C   UNL A   1     -22.572   1.726  27.562  0.00  0.00    -0.022 A 
ATOM     21  C   UNL A   1     -22.123   1.936  26.136  0.00  0.00    -0.004 A 
ATOM     22  C   UNL A   1     -22.951   2.537  25.185  0.00  0.00    -0.000 A 
ATOM     23  C   UNL A   1     -24.118   3.230  25.622  0.00  0.00    -0.000 A 
ATOM     24  C   UNL A   1     -24.382   3.294  27.007  0.00  0.00    -0.000 A 
ATOM     25  C   UNL A   1     -23.680   2.594  27.855  0.00  0.00    -0.004 A 
ENDBRANCH  19  20
ENDBRANCH  18  19
ENDBRANCH  17  18
ENDBRANCH  16  17
ENDBRANCH  15  16
ENDBRANCH   1  15
TORSDOF 8
ENDMDL
ENDMDL
