MODEL 4125
MODEL 1
REMARK VINA RESULT:    -7.091      0.000      0.000
REMARK INTER + INTRA:          -7.559
REMARK INTER:                  -7.505
REMARK INTRA:                  -0.054
REMARK UNBOUND:                -0.054
REMARK  Name = No_4125-gen_results/8p0m/2024-11-27-11-27-31/
REMARK  1 active torsions:
REMARK  status: ('A' for Active; 'I' for Inactive)
REMARK    1  A    between atoms: C_2  and  N_7
REMARK                            x       y       z     vdW  Elec       q    Type
REMARK                         _______ _______ _______ _____ _____    ______ ____
ROOT
ATOM      1  N   UNL A   1     -24.872  -2.459  29.113  0.00  0.00    -0.287 N 
ATOM      2  C   UNL A   1     -25.886  -2.767  29.704  0.00  0.00    +0.043 A 
ATOM      3  C   UNL A   1     -26.350  -4.060  29.630  0.00  0.00    -0.009 A 
ATOM      4  C   UNL A   1     -27.578  -4.514  30.187  0.00  0.00    -0.003 A 
ATOM      5  C   UNL A   1     -28.287  -3.498  30.917  0.00  0.00    -0.001 A 
ATOM      6  C   UNL A   1     -27.837  -2.228  31.041  0.00  0.00    -0.003 A 
ATOM      7  C   UNL A   1     -26.696  -1.806  30.430  0.00  0.00    -0.009 A 
ATOM      8  C   UNL A   1     -23.815  -3.471  28.911  0.00  0.00    +0.096 C 
ATOM      9  C   UNL A   1     -24.258  -4.728  28.629  0.00  0.00    +0.026 C 
ATOM     10  C   UNL A   1     -25.460  -5.113  29.308  0.00  0.00    +0.029 C 
ATOM     11  C   UNL A   1     -26.239  -0.378  30.281  0.00  0.00    +0.032 C 
ENDROOT
BRANCH   1  13
ATOM     12  C   UNL A   1     -24.984  -0.771  27.582  0.00  0.00    +0.015 A 
ATOM     13  C   UNL A   1     -24.471  -1.160  28.416  0.00  0.00    +0.052 A 
ATOM     14  C   UNL A   1     -24.415   0.506  27.006  0.00  0.00    +0.001 A 
ATOM     15  C   UNL A   1     -23.194   1.006  27.506  0.00  0.00    +0.000 A 
ATOM     16  C   UNL A   1     -23.190  -0.863  29.096  0.00  0.00    +0.015 A 
ATOM     17  C   UNL A   1     -22.633   0.303  28.589  0.00  0.00    +0.001 A 
ENDBRANCH   1  13
TORSDOF 1
ENDMDL
ENDMDL
