REMARK  Name = No_4126-gen_results/8p0m/2024-11-27-11-27-31/
REMARK  1 active torsions:
REMARK  status: ('A' for Active; 'I' for Inactive)
REMARK    1  A    between atoms: C_3  and  C_15
REMARK                            x       y       z     vdW  Elec       q    Type
REMARK                         _______ _______ _______ _____ _____    ______ ____
ROOT
ATOM      1  C   UNL A   1     -28.016  -0.814  28.878  0.00  0.00    +0.017 A 
ATOM      2  C   UNL A   1     -27.064  -0.119  28.608  0.00  0.00    -0.011 A 
ATOM      3  C   UNL A   1     -26.972   0.714  27.506  0.00  0.00    +0.105 C 
ATOM      4  C   UNL A   1     -25.820   1.491  27.116  0.00  0.00    +0.040 C 
ATOM      5  C   UNL A   1     -24.656   1.424  27.918  0.00  0.00    -0.021 A 
ATOM      6  C   UNL A   1     -23.460   2.116  27.616  0.00  0.00    -0.004 A 
ATOM      7  C   UNL A   1     -22.363   1.915  28.448  0.00  0.00    -0.000 A 
ATOM      8  C   UNL A   1     -22.414   0.921  29.458  0.00  0.00    -0.000 A 
ATOM      9  C   UNL A   1     -23.553   0.232  29.768  0.00  0.00    -0.000 A 
ATOM     10  C   UNL A   1     -24.676   0.436  28.985  0.00  0.00    -0.003 A 
ATOM     11  C   UNL A   1     -25.781  -0.264  29.312  0.00  0.00    +0.015 A 
ATOM     12  C   UNL A   1     -28.038  -1.612  30.154  0.00  0.00    +0.099 A 
ATOM     13  N   UNL A   1     -26.885  -1.846  30.788  0.00  0.00    -0.242 NA
ATOM     14  C   UNL A   1     -25.834  -1.168  30.455  0.00  0.00    +0.099 A 
ENDROOT
BRANCH   3  15
ATOM     15  C   UNL A   1     -28.163   0.866  26.626  0.00  0.00    +0.245 C 
ATOM     16  O   UNL A   1     -29.140   0.981  26.913  0.00  0.00    -0.273 OA
ATOM     17  N   UNL A   1     -27.852   0.594  25.283  0.00  0.00    -0.203 NA
ATOM     18  C   UNL A   1     -28.825   0.487  24.271  0.00  0.00    +0.139 C 
ENDBRANCH   3  15
TORSDOF 1
