MODEL 4126
MODEL 1
REMARK VINA RESULT:    -6.801      0.000      0.000
REMARK INTER + INTRA:          -7.148
REMARK INTER:                  -7.199
REMARK INTRA:                   0.050
REMARK UNBOUND:                 0.050
REMARK  Name = No_4126-gen_results/8p0m/2024-11-27-11-27-31/
REMARK  1 active torsions:
REMARK  status: ('A' for Active; 'I' for Inactive)
REMARK    1  A    between atoms: C_3  and  C_15
REMARK                            x       y       z     vdW  Elec       q    Type
REMARK                         _______ _______ _______ _____ _____    ______ ____
ROOT
ATOM      1  C   UNL A   1     -24.667   0.771  30.344  0.00  0.00    +0.017 A 
ATOM      2  C   UNL A   1     -24.514  -0.388  30.035  0.00  0.00    -0.011 A 
ATOM      3  C   UNL A   1     -23.463  -0.880  29.279  0.00  0.00    +0.105 C 
ATOM      4  C   UNL A   1     -23.299  -2.241  28.828  0.00  0.00    +0.040 C 
ATOM      5  C   UNL A   1     -24.285  -3.193  29.178  0.00  0.00    -0.021 A 
ATOM      6  C   UNL A   1     -24.245  -4.545  28.765  0.00  0.00    -0.004 A 
ATOM      7  C   UNL A   1     -25.310  -5.367  29.120  0.00  0.00    -0.000 A 
ATOM      8  C   UNL A   1     -26.462  -4.808  29.729  0.00  0.00    -0.000 A 
ATOM      9  C   UNL A   1     -26.533  -3.504  30.133  0.00  0.00    -0.000 A 
ATOM     10  C   UNL A   1     -25.473  -2.666  29.831  0.00  0.00    -0.003 A 
ATOM     11  C   UNL A   1     -25.577  -1.385  30.236  0.00  0.00    +0.015 A 
ATOM     12  C   UNL A   1     -25.802   1.175  31.246  0.00  0.00    +0.099 A 
ATOM     13  N   UNL A   1     -26.835   0.340  31.396  0.00  0.00    -0.242 NA
ATOM     14  C   UNL A   1     -26.718  -0.885  30.994  0.00  0.00    +0.099 A 
ENDROOT
BRANCH   3  15
ATOM     15  C   UNL A   1     -22.366   0.050  28.894  0.00  0.00    +0.245 C 
ATOM     16  O   UNL A   1     -21.535   0.294  29.442  0.00  0.00    -0.273 OA
ATOM     17  N   UNL A   1     -22.693   0.788  27.744  0.00  0.00    -0.203 NA
ATOM     18  C   UNL A   1     -21.917   1.862  27.269  0.00  0.00    +0.139 C 
ENDBRANCH   3  15
TORSDOF 1
ENDMDL
ENDMDL
