MODEL 4127
MODEL 1
REMARK VINA RESULT:    -6.110      0.000      0.000
REMARK INTER + INTRA:          -8.108
REMARK INTER:                  -7.539
REMARK INTRA:                  -0.569
REMARK UNBOUND:                -0.569
REMARK  Name = No_4127-gen_results/8p0m/2024-11-27-11-27-31/
REMARK  4 active torsions:
REMARK  status: ('A' for Active; 'I' for Inactive)
REMARK    1  A    between atoms: C_2  and  C_10
REMARK    2  A    between atoms: C_5  and  C_7
REMARK    3  A    between atoms: C_10  and  C_12
REMARK    4  A    between atoms: C_13  and  C_14
REMARK                            x       y       z     vdW  Elec       q    Type
REMARK                         _______ _______ _______ _____ _____    ______ ____
ROOT
ATOM      1  C   UNL A   1     -29.730  -9.996  31.542  0.00  0.00    -0.003 A 
ATOM      2  C   UNL A   1     -29.582 -10.703  30.572  0.00  0.00    -0.008 A 
ATOM      3  C   UNL A   1     -28.649 -11.720  30.503  0.00  0.00    -0.003 A 
ATOM      4  C   UNL A   1     -27.849 -11.971  31.652  0.00  0.00    +0.004 A 
ATOM      5  C   UNL A   1     -28.168 -11.269  32.765  0.00  0.00    +0.057 A 
ATOM      6  C   UNL A   1     -29.106 -10.341  32.751  0.00  0.00    +0.004 A 
ENDROOT
BRANCH   5   7
ATOM      7  C   UNL A   1     -27.346 -11.564  33.957  0.00  0.00    +0.284 C 
ATOM      8  N   UNL A   1     -26.790 -10.694  34.631  0.00  0.00    -0.084 NA
ATOM      9  O   UNL A   1     -27.733 -12.633  34.570  0.00  0.00    -0.267 OA
ENDBRANCH   5   7
BRANCH   2  10
ATOM     10  C   UNL A   1     -30.331 -10.423  29.203  0.00  0.00    +0.101 C 
ATOM     11 BR   UNL A   1     -31.530  -9.454  28.616  0.00  0.00    -0.072 Br
BRANCH  10  12
ATOM     12  C   UNL A   1     -29.839 -11.367  28.070  0.00  0.00    -0.011 C 
ATOM     13  C   UNL A   1     -30.196 -11.149  26.958  0.00  0.00    -0.004 C 
BRANCH  13  14
ATOM     14  C   UNL A   1     -29.609 -11.986  25.893  0.00  0.00    -0.005 C 
ATOM     15  C   UNL A   1     -30.478 -12.643  24.977  0.00  0.00    -0.026 C 
ATOM     16  C   UNL A   1     -31.836 -12.508  25.172  0.00  0.00    +0.031 C 
ENDBRANCH  13  14
ENDBRANCH  10  12
ENDBRANCH   2  10
TORSDOF 4
ENDMDL
ENDMDL
