REMARK  Name = No_4128-gen_results/8p0m/2024-11-27-11-27-31/
REMARK  6 active torsions:
REMARK  status: ('A' for Active; 'I' for Inactive)
REMARK    1  A    between atoms: C_1  and  C_2
REMARK    2  A    between atoms: C_1  and  C_8
REMARK    3  A    between atoms: C_3  and  C_16
REMARK    4  A    between atoms: C_5  and  C_12
REMARK    5  A    between atoms: C_16  and  O_18
REMARK    6  A    between atoms: O_18  and  C_19
REMARK                            x       y       z     vdW  Elec       q    Type
REMARK                         _______ _______ _______ _____ _____    ______ ____
ROOT
ATOM      1  C   UNL A   1     -27.064  -0.119  28.608  0.00  0.00    -0.007 A 
ATOM      2  C   UNL A   1     -26.972   0.714  27.506  0.00  0.00    +0.072 A 
ATOM      3  C   UNL A   1     -25.820   1.491  27.116  0.00  0.00    +0.010 A 
ATOM      4  C   UNL A   1     -24.656   1.424  27.918  0.00  0.00    +0.072 A 
ATOM      5  C   UNL A   1     -24.711   0.542  29.051  0.00  0.00    +0.004 A 
ATOM      6  C   UNL A   1     -25.804  -0.206  29.388  0.00  0.00    -0.004 A 
ENDROOT
BRANCH   4   7
ATOM      7  C   UNL A   1     -23.482   2.220  27.642  0.00  0.00    +0.419 C 
ATOM      8  F   UNL A   1     -23.654   3.298  27.095  0.00  0.00    -0.166 F 
ATOM      9  F   UNL A   1     -22.495   1.563  26.924  0.00  0.00    -0.166 F 
ATOM     10  F   UNL A   1     -22.823   2.523  28.802  0.00  0.00    -0.166 F 
ENDBRANCH   4   7
BRANCH   2  11
ATOM     11  C   UNL A   1     -28.132   0.873  26.603  0.00  0.00    +0.345 C 
ATOM     12  O   UNL A   1     -29.177   1.340  26.916  0.00  0.00    -0.244 OA
BRANCH  11  13
ATOM     13  O   UNL A   1     -27.915   0.744  25.351  0.00  0.00    -0.421 OA
BRANCH  13  14
ATOM     14  C   UNL A   1     -28.914   0.367  24.506  0.00  0.00    +0.145 A 
ATOM     15  C   UNL A   1     -29.143  -1.016  24.447  0.00  0.00    +0.037 A 
ATOM     16  C   UNL A   1     -30.355  -1.470  23.747  0.00  0.00    +0.003 A 
ATOM     17  C   UNL A   1     -31.509  -0.836  24.277  0.00  0.00    -0.000 A 
ATOM     18  C   UNL A   1     -31.399   0.635  24.239  0.00  0.00    -0.001 A 
ATOM     19  C   UNL A   1     -30.178   1.082  24.999  0.00  0.00    +0.013 A 
ATOM     20  C   UNL A   1     -30.078   2.292  25.379  0.00  0.00    +0.034 C 
ENDBRANCH  13  14
ENDBRANCH  11  13
ENDBRANCH   2  11
BRANCH   1  21
ATOM     21  C   UNL A   1     -28.016  -0.814  28.878  0.00  0.00    +0.130 C 
BRANCH  21  22
ATOM     22  C   UNL A   1     -28.743  -0.442  30.140  0.00  0.00    +0.402 C 
ATOM     23  F   UNL A   1     -28.785   0.599  30.533  0.00  0.00    -0.170 F 
ATOM     24  F   UNL A   1     -30.057  -1.075  30.144  0.00  0.00    -0.170 F 
ATOM     25  F   UNL A   1     -28.161  -1.342  31.160  0.00  0.00    -0.170 F 
ENDBRANCH  21  22
ENDBRANCH   1  21
TORSDOF 6
