MODEL 4128
MODEL 1
REMARK VINA RESULT:    -7.492      0.000      0.000
REMARK INTER + INTRA:         -11.315
REMARK INTER:                 -10.120
REMARK INTRA:                  -1.195
REMARK UNBOUND:                -1.195
REMARK  Name = No_4128-gen_results/8p0m/2024-11-27-11-27-31/
REMARK  6 active torsions:
REMARK  status: ('A' for Active; 'I' for Inactive)
REMARK    1  A    between atoms: C_1  and  C_2
REMARK    2  A    between atoms: C_1  and  C_8
REMARK    3  A    between atoms: C_3  and  C_16
REMARK    4  A    between atoms: C_5  and  C_12
REMARK    5  A    between atoms: C_16  and  O_18
REMARK    6  A    between atoms: O_18  and  C_19
REMARK                            x       y       z     vdW  Elec       q    Type
REMARK                         _______ _______ _______ _____ _____    ______ ____
ROOT
ATOM      1  C   UNL A   1     -23.905   0.898  27.746  0.00  0.00    -0.007 A 
ATOM      2  C   UNL A   1     -25.108   0.274  28.029  0.00  0.00    +0.072 A 
ATOM      3  C   UNL A   1     -26.119  -0.108  27.071  0.00  0.00    +0.010 A 
ATOM      4  C   UNL A   1     -25.894   0.173  25.703  0.00  0.00    +0.072 A 
ATOM      5  C   UNL A   1     -24.639   0.791  25.375  0.00  0.00    +0.004 A 
ATOM      6  C   UNL A   1     -23.684   1.121  26.295  0.00  0.00    -0.004 A 
ENDROOT
BRANCH   4   7
ATOM      7  C   UNL A   1     -26.880  -0.111  24.685  0.00  0.00    +0.419 C 
ATOM      8  F   UNL A   1     -26.807  -1.193  24.123  0.00  0.00    -0.166 F 
ATOM      9  F   UNL A   1     -26.975   0.849  23.689  0.00  0.00    -0.166 F 
ATOM     10  F   UNL A   1     -28.141  -0.083  25.216  0.00  0.00    -0.166 F 
ENDBRANCH   4   7
BRANCH   2  11
ATOM     11  C   UNL A   1     -25.457  -0.056  29.427  0.00  0.00    +0.345 C 
ATOM     12  O   UNL A   1     -26.299   0.486  30.063  0.00  0.00    -0.244 OA
BRANCH  11  13
ATOM     13  O   UNL A   1     -25.009  -1.158  29.892  0.00  0.00    -0.421 OA
BRANCH  13  14
ATOM     14  C   UNL A   1     -25.167  -2.321  29.201  0.00  0.00    +0.145 A 
ATOM     15  C   UNL A   1     -23.981  -3.039  28.982  0.00  0.00    +0.037 A 
ATOM     16  C   UNL A   1     -24.109  -4.409  28.460  0.00  0.00    +0.003 A 
ATOM     17  C   UNL A   1     -24.968  -5.183  29.283  0.00  0.00    -0.000 A 
ATOM     18  C   UNL A   1     -26.294  -4.555  29.444  0.00  0.00    -0.001 A 
ATOM     19  C   UNL A   1     -26.145  -3.172  30.021  0.00  0.00    +0.013 A 
ATOM     20  C   UNL A   1     -27.148  -2.597  30.551  0.00  0.00    +0.034 C 
ENDBRANCH  13  14
ENDBRANCH  11  13
ENDBRANCH   2  11
BRANCH   1  21
ATOM     21  C   UNL A   1     -23.043   1.147  28.556  0.00  0.00    +0.130 C 
BRANCH  21  22
ATOM     22  C   UNL A   1     -21.946   0.124  28.659  0.00  0.00    +0.402 C 
ATOM     23  F   UNL A   1     -22.023  -0.895  28.218  0.00  0.00    -0.170 F 
ATOM     24  F   UNL A   1     -20.668   0.754  28.347  0.00  0.00    -0.170 F 
ATOM     25  F   UNL A   1     -21.692   0.026  30.113  0.00  0.00    -0.170 F 
ENDBRANCH  21  22
ENDBRANCH   1  21
TORSDOF 6
ENDMDL
ENDMDL
