MODEL 4129
MODEL 1
REMARK VINA RESULT:    -8.719      0.000      0.000
REMARK INTER + INTRA:         -13.820
REMARK INTER:                 -11.777
REMARK INTRA:                  -2.043
REMARK UNBOUND:                -2.043
REMARK  Name = No_4129-gen_results/8p0m/2024-11-27-11-27-31/
REMARK  6 active torsions:
REMARK  status: ('A' for Active; 'I' for Inactive)
REMARK    1  A    between atoms: C_2  and  C_14
REMARK    2  A    between atoms: C_3  and  C_4
REMARK    3  A    between atoms: C_4  and  C_8
REMARK    4  A    between atoms: C_9  and  C_17
REMARK    5  A    between atoms: C_17  and  C_18
REMARK    6  A    between atoms: C_21  and  C_25
REMARK                            x       y       z     vdW  Elec       q    Type
REMARK                         _______ _______ _______ _____ _____    ______ ____
ROOT
ATOM      1  C   UNL A   1     -24.072  -1.984  29.402  0.00  0.00    -0.015 A 
ATOM      2  C   UNL A   1     -25.172  -1.689  30.182  0.00  0.00    +0.035 A 
ATOM      3  C   UNL A   1     -26.205  -2.677  30.325  0.00  0.00    +0.003 A 
ATOM      4  C   UNL A   1     -26.032  -3.926  29.654  0.00  0.00    +0.000 A 
ATOM      5  C   UNL A   1     -24.004  -3.287  28.867  0.00  0.00    -0.004 A 
ATOM      6  C   UNL A   1     -24.949  -4.204  29.014  0.00  0.00    -0.000 A 
ENDROOT
BRANCH   2   7
ATOM      7  C   UNL A   1     -25.406  -0.491  30.859  0.00  0.00    +0.195 C 
ATOM      8  O   UNL A   1     -26.004   0.451  30.254  0.00  0.00    -0.287 OA
BRANCH   7   9
ATOM      9  C   UNL A   1     -25.449  -0.520  32.302  0.00  0.00    +0.039 A 
ATOM     10  C   UNL A   1     -26.568  -0.295  33.054  0.00  0.00    +0.003 A 
ATOM     11  C   UNL A   1     -26.536  -0.518  34.407  0.00  0.00    +0.000 A 
ATOM     12  C   UNL A   1     -25.357  -0.950  35.058  0.00  0.00    +0.000 A 
ATOM     13  C   UNL A   1     -24.197  -1.169  34.345  0.00  0.00    +0.000 A 
ATOM     14  C   UNL A   1     -24.192  -1.025  32.954  0.00  0.00    +0.003 A 
BRANCH  12  15
ATOM     15  C   UNL A   1     -25.378  -1.166  36.514  0.00  0.00    +0.000 A 
ATOM     16  C   UNL A   1     -24.601  -0.639  37.335  0.00  0.00    +0.000 A 
ATOM     17  C   UNL A   1     -24.539  -0.931  38.754  0.00  0.00    +0.000 A 
ATOM     18  C   UNL A   1     -25.353  -1.947  39.232  0.00  0.00    +0.000 A 
ATOM     19  C   UNL A   1     -26.184  -2.631  38.391  0.00  0.00    +0.000 A 
ATOM     20  C   UNL A   1     -26.180  -2.345  37.024  0.00  0.00    +0.000 A 
ENDBRANCH  12  15
ENDBRANCH   7   9
ENDBRANCH   2   7
BRANCH   1  21
ATOM     21  C   UNL A   1     -22.972  -1.037  29.415  0.00  0.00    +0.053 C 
BRANCH  21  24
ATOM     22  C   UNL A   1     -24.113   0.186  27.379  0.00  0.00    +0.003 A 
ATOM     23  C   UNL A   1     -23.909   0.894  26.625  0.00  0.00    +0.080 A 
ATOM     24  C   UNL A   1     -23.004  -0.031  28.384  0.00  0.00    -0.018 A 
ATOM     25  C   UNL A   1     -22.834   1.884  26.475  0.00  0.00    +0.007 A 
ATOM     26  C   UNL A   1     -21.796   1.768  27.375  0.00  0.00    -0.000 A 
ATOM     27  C   UNL A   1     -21.851   0.834  28.378  0.00  0.00    -0.004 A 
BRANCH  23  28
ATOM     28  C   UNL A   1     -25.055   1.123  25.547  0.00  0.00    +0.388 C 
ATOM     29  O   UNL A   1     -25.059   0.282  24.767  0.00  0.00    -0.241 OA
ATOM     30  O   UNL A   1     -26.038   1.924  25.800  0.00  0.00    -0.241 OA
ENDBRANCH  23  28
ENDBRANCH  21  24
ENDBRANCH   1  21
TORSDOF 6
ENDMDL
ENDMDL
