REMARK  Name = outputs/IAG933/test6/raw/output_4129_IAG933_linker_design_.xyz
REMARK  10 active torsions:
REMARK  status: ('A' for Active; 'I' for Inactive)
REMARK    1  A    between atoms: C_1  and  C_2
REMARK    2  A    between atoms: C_1  and  C_8
REMARK    3  A    between atoms: C_1  and  C_34
REMARK    4  A    between atoms: C_14  and  C_15
REMARK    5  A    between atoms: C_21  and  O_22
REMARK    6  A    between atoms: O_22  and  C_23
REMARK    7  A    between atoms: C_23  and  C_24
REMARK    8  A    between atoms: C_31  and  C_33
REMARK    9  A    between atoms: C_34  and  C_37
REMARK   10  A    between atoms: C_34  and  C_40
REMARK                            x       y       z     vdW  Elec       q    Type
REMARK                         _______ _______ _______ _____ _____    ______ ____
ROOT
ATOM      1  C   UNL A   1     -25.688   1.614  26.461  0.00  0.00    +0.059 C 
ATOM      2  C   UNL A   1     -26.250   2.920  26.395  0.00  0.00    +0.080 C 
ATOM      3  C   UNL A   1     -27.438   3.091  25.645  0.00  0.00    +0.107 C 
ATOM      4  N   UNL A   1     -28.075   2.089  25.003  0.00  0.00    -0.211 NA
ATOM      5  C   UNL A   1     -27.543   0.849  25.079  0.00  0.00    +0.239 C 
ATOM      6  C   UNL A   1     -26.354   0.576  25.777  0.00  0.00    +0.265 C 
ATOM      7  F   UNL A   1     -25.860  -0.681  25.795  0.00  0.00    -0.222 F 
ATOM      8  C   UNL A   1     -24.623   1.359  27.125  0.00  0.00    -0.103 C 
ATOM      9  C   UNL A   1     -22.465   1.491  27.017  0.00  0.00    +0.071 C 
ATOM     10  C   UNL A   1     -21.285   0.625  28.775  0.00  0.00    +0.052 C 
ATOM     11  C   UNL A   1     -21.258   1.235  27.576  0.00  0.00    -0.015 C 
ATOM     12  C   UNL A   1     -23.587   1.118  27.619  0.00  0.00    +0.035 C 
ATOM     13  C   UNL A   1     -23.686   0.487  28.768  0.00  0.00    -0.008 C 
ATOM     14  C   UNL A   1     -22.460   0.269  29.399  0.00  0.00    -0.025 C 
ENDROOT
BRANCH   2  15
ATOM     15  C   UNL A   1     -25.642   4.093  27.123  0.00  0.00    +0.267 C 
ATOM     16  N   UNL A   1     -25.614   5.252  26.449  0.00  0.00    -0.200 NA
ATOM     17  C   UNL A   1     -25.026   6.479  26.963  0.00  0.00    +0.139 C 
ATOM     18  O   UNL A   1     -25.143   3.966  28.243  0.00  0.00    -0.268 OA
ENDBRANCH   2  15
BRANCH   9  20
ATOM     19  F   UNL A   1     -21.497   2.624  25.077  0.00  0.00    -0.159 F 
ATOM     20  C   UNL A   1     -22.596   2.249  25.727  0.00  0.00    +0.334 C 
ATOM     21  O   UNL A   1     -23.576   2.671  25.140  0.00  0.00    -0.254 OA
ENDBRANCH   9  20
BRANCH   5  22
ATOM     22  O   UNL A   1     -28.193  -0.208  24.477  0.00  0.00    -0.458 OA
BRANCH  22  23
ATOM     23  C   UNL A   1     -29.460   0.005  23.866  0.00  0.00    +0.242 C 
BRANCH  23  24
ATOM     24  C   UNL A   1     -30.065  -1.377  23.573  0.00  0.00    +0.229 C 
ATOM     25  O   UNL A   1     -30.729  -1.878  24.721  0.00  0.00    -0.216 OA
ENDBRANCH  23  24
ENDBRANCH  22  23
ENDBRANCH   5  22
BRANCH  13  26
ATOM     26  C   UNL A   1     -25.002   0.034  29.227  0.00  0.00    +0.131 C 
BRANCH  26  29
ATOM     27  O   UNL A   1     -26.999  -0.605  28.214  0.00  0.00    -0.245 OA
ATOM     28  O   UNL A   1     -27.140   1.104  29.414  0.00  0.00    -0.245 OA
ATOM     29  C   UNL A   1     -26.477   0.214  28.923  0.00  0.00    +0.369 C 
ENDBRANCH  26  29
BRANCH  26  30
ATOM     30  C   UNL A   1     -24.855  -1.012  30.143  0.00  0.00    +0.053 C 
BRANCH  30  31
ATOM     31  C   UNL A   1     -24.973  -2.505  29.788  0.00  0.00    -0.020 C 
ATOM     32  C   UNL A   1     -23.906  -3.173  29.146  0.00  0.00    -0.004 C 
ATOM     33  C   UNL A   1     -23.989  -4.549  28.853  0.00  0.00    -0.000 C 
ATOM     34  C   UNL A   1     -25.137  -5.280  29.205  0.00  0.00    -0.000 C 
ATOM     35  C   UNL A   1     -26.232  -4.611  29.784  0.00  0.00    -0.000 C 
ATOM     36  C   UNL A   1     -26.155  -3.232  30.065  0.00  0.00    -0.004 C 
ENDBRANCH  30  31
BRANCH  30  37
ATOM     37  C   UNL A   1     -25.387  -0.679  31.571  0.00  0.00    +0.078 C 
ATOM     38  C   UNL A   1     -25.189   0.773  32.028  0.00  0.00    +0.019 C 
ATOM     39  C   UNL A   1     -25.336   0.684  33.544  0.00  0.00    +0.020 C 
ATOM     40  C   UNL A   1     -24.829  -0.715  33.905  0.00  0.00    +0.089 C 
ATOM     41  N   UNL A   1     -24.758  -1.481  32.646  0.00  0.00    -0.219 NA
ENDBRANCH  30  37
ENDBRANCH  26  30
ENDBRANCH  13  26
TORSDOF 10
