MODEL 412
MODEL 1
REMARK VINA RESULT:    -6.710      0.000      0.000
REMARK INTER + INTRA:          -8.150
REMARK INTER:                  -7.495
REMARK INTRA:                  -0.655
REMARK UNBOUND:                -0.655
REMARK  Name = No_412-gen_results/8p0m/2024-11-27-11-27-31/
REMARK  2 active torsions:
REMARK  status: ('A' for Active; 'I' for Inactive)
REMARK    1  A    between atoms: C_2  and  C_7
REMARK    2  A    between atoms: C_7  and  C_8
REMARK                            x       y       z     vdW  Elec       q    Type
REMARK                         _______ _______ _______ _____ _____    ______ ____
ROOT
ATOM      1  C   UNL A   1     -24.966  -1.097  29.318  0.00  0.00    +0.052 C 
ENDROOT
BRANCH   1   2
ATOM      2  C   UNL A   1     -24.658  -0.297  28.148  0.00  0.00    -0.022 A 
ATOM      3  C   UNL A   1     -23.791   0.401  27.814  0.00  0.00    -0.025 A 
ATOM      4  C   UNL A   1     -23.626   1.080  26.532  0.00  0.00    -0.005 A 
ATOM      5  C   UNL A   1     -24.625   0.733  25.583  0.00  0.00    -0.000 A 
ATOM      6  C   UNL A   1     -25.662  -0.456  26.988  0.00  0.00    -0.004 A 
ATOM      7  C   UNL A   1     -25.602   0.046  25.825  0.00  0.00    -0.000 A 
ATOM      8  C   UNL A   1     -22.651   0.745  28.769  0.00  0.00    +0.031 C 
ENDBRANCH   1   2
BRANCH   1  10
ATOM      9  C   UNL A   1     -24.007  -3.171  28.597  0.00  0.00    -0.004 A 
ATOM     10  C   UNL A   1     -24.923  -2.606  29.146  0.00  0.00    -0.018 A 
ATOM     11  C   UNL A   1     -26.000  -3.243  29.674  0.00  0.00    -0.004 A 
ATOM     12  C   UNL A   1     -26.059  -4.646  29.579  0.00  0.00    -0.000 A 
ATOM     13  C   UNL A   1     -23.955  -4.611  28.548  0.00  0.00    -0.000 A 
ATOM     14  C   UNL A   1     -25.026  -5.296  29.038  0.00  0.00    -0.000 A 
ENDBRANCH   1  10
TORSDOF 2
ENDMDL
ENDMDL
