MODEL 4130
MODEL 1
REMARK VINA RESULT:    -8.183      0.000      0.000
REMARK INTER + INTRA:         -12.184
REMARK INTER:                 -10.575
REMARK INTRA:                  -1.609
REMARK UNBOUND:                -1.609
REMARK  Name = No_4130-gen_results/8p0m/2024-11-27-11-27-31/
REMARK  5 active torsions:
REMARK  status: ('A' for Active; 'I' for Inactive)
REMARK    1  A    between atoms: C_3  and  C_7
REMARK    2  A    between atoms: C_7  and  C_8
REMARK    3  A    between atoms: C_7  and  C_16
REMARK    4  A    between atoms: C_9  and  C_10
REMARK    5  A    between atoms: C_16  and  C_17
REMARK                            x       y       z     vdW  Elec       q    Type
REMARK                         _______ _______ _______ _____ _____    ______ ____
ROOT
ATOM      1  C   UNL A   1     -25.136  -1.406  29.125  0.00  0.00    +0.049 C 
ENDROOT
BRANCH   1   4
ATOM      2  C   UNL A   1     -26.131  -3.671  29.710  0.00  0.00    -0.004 A 
ATOM      3  C   UNL A   1     -26.063  -4.714  29.579  0.00  0.00    -0.000 A 
ATOM      4  C   UNL A   1     -25.040  -2.928  29.066  0.00  0.00    -0.018 A 
ATOM      5  C   UNL A   1     -23.978  -3.534  28.532  0.00  0.00    -0.004 A 
ATOM      6  C   UNL A   1     -25.027  -5.580  29.070  0.00  0.00    -0.000 A 
ATOM      7  C   UNL A   1     -24.011  -4.872  28.498  0.00  0.00    -0.000 A 
ENDBRANCH   1   4
BRANCH   1   8
ATOM      8  C   UNL A   1     -25.450  -0.792  30.386  0.00  0.00    -0.022 C 
ATOM      9  C   UNL A   1     -24.642  -0.906  31.472  0.00  0.00    -0.004 C 
BRANCH   9  10
ATOM     10  C   UNL A   1     -25.000  -0.735  32.740  0.00  0.00    -0.000 A 
ATOM     11  C   UNL A   1     -26.138   0.079  33.152  0.00  0.00    -0.000 A 
ATOM     12  C   UNL A   1     -26.410   0.289  34.518  0.00  0.00    -0.000 A 
ATOM     13  C   UNL A   1     -25.643  -0.397  35.495  0.00  0.00    -0.000 A 
ATOM     14  C   UNL A   1     -24.430  -1.048  35.092  0.00  0.00    -0.000 A 
ATOM     15  C   UNL A   1     -24.117  -1.132  33.808  0.00  0.00    -0.000 A 
ENDBRANCH   9  10
ENDBRANCH   1   8
BRANCH   1  16
ATOM     16  C   UNL A   1     -24.814  -0.704  27.976  0.00  0.00    +0.035 C 
BRANCH  16  17
ATOM     17  C   UNL A   1     -23.842  -0.016  27.795  0.00  0.00    -0.021 A 
ATOM     18  C   UNL A   1     -22.601  -0.142  28.481  0.00  0.00    -0.004 A 
ATOM     19  C   UNL A   1     -21.487   0.770  28.151  0.00  0.00    -0.000 A 
ATOM     20  C   UNL A   1     -21.837   1.852  27.379  0.00  0.00    -0.000 A 
ATOM     21  C   UNL A   1     -23.068   2.072  26.786  0.00  0.00    -0.000 A 
ATOM     22  C   UNL A   1     -24.018   1.153  26.959  0.00  0.00    -0.004 A 
ENDBRANCH  16  17
ENDBRANCH   1  16
TORSDOF 5
ENDMDL
ENDMDL
