MODEL 4131
MODEL 1
REMARK VINA RESULT:    -5.912      0.000      0.000
REMARK INTER + INTRA:          -7.781
REMARK INTER:                  -6.949
REMARK INTRA:                  -0.833
REMARK UNBOUND:                -0.833
REMARK  Name = No_4131-gen_results/8p0m/2024-11-27-11-27-31/
REMARK  3 active torsions:
REMARK  status: ('A' for Active; 'I' for Inactive)
REMARK    1  A    between atoms: C_2  and  C_3
REMARK    2  A    between atoms: C_2  and  C_9
REMARK    3  A    between atoms: C_10  and  C_11
REMARK                            x       y       z     vdW  Elec       q    Type
REMARK                         _______ _______ _______ _____ _____    ______ ____
ROOT
ATOM      1 CL   UNL A   1     -25.272  -0.270  27.863  0.00  0.00    -0.105 Cl
ATOM      2  C   UNL A   1     -24.611  -1.148  28.796  0.00  0.00    +0.124 C 
ENDROOT
BRANCH   2   3
ATOM      3  C   UNL A   1     -24.920  -2.500  28.850  0.00  0.00    -0.003 A 
ATOM      4  C   UNL A   1     -23.861  -3.355  28.672  0.00  0.00    -0.003 A 
ATOM      5  C   UNL A   1     -24.104  -4.816  28.587  0.00  0.00    -0.000 A 
ATOM      6  C   UNL A   1     -25.265  -5.242  29.149  0.00  0.00    -0.000 A 
ATOM      7  C   UNL A   1     -26.116  -4.357  29.727  0.00  0.00    -0.000 A 
ATOM      8  C   UNL A   1     -26.004  -2.988  29.539  0.00  0.00    -0.003 A 
ENDBRANCH   2   3
BRANCH   2   9
ATOM      9  C   UNL A   1     -23.109  -0.918  28.942  0.00  0.00    -0.006 C 
ATOM     10  C   UNL A   1     -22.762  -0.229  30.035  0.00  0.00    -0.003 C 
BRANCH  10  11
ATOM     11  C   UNL A   1     -23.674   0.347  30.958  0.00  0.00    -0.005 C 
ATOM     12  C   UNL A   1     -23.888  -0.227  32.186  0.00  0.00    -0.026 C 
ATOM     13  C   UNL A   1     -23.028  -1.320  32.599  0.00  0.00    +0.031 C 
ENDBRANCH  10  11
ENDBRANCH   2   9
TORSDOF 3
ENDMDL
ENDMDL
