MODEL 4132
MODEL 1
REMARK VINA RESULT:    -5.650      0.000      0.000
REMARK INTER + INTRA:          -9.105
REMARK INTER:                  -7.302
REMARK INTRA:                  -1.804
REMARK UNBOUND:                -1.804
REMARK  Name = No_4132-gen_results/8p0m/2024-11-27-11-27-31/
REMARK  5 active torsions:
REMARK  status: ('A' for Active; 'I' for Inactive)
REMARK    1  A    between atoms: C_2  and  C_4
REMARK    2  A    between atoms: C_2  and  P_5
REMARK    3  A    between atoms: C_4  and  C_9
REMARK    4  A    between atoms: C_9  and  C_10
REMARK    5  A    between atoms: C_11  and  C_12
REMARK                            x       y       z     vdW  Elec       q    Type
REMARK                         _______ _______ _______ _____ _____    ______ ____
ROOT
ATOM      1  C   UNL A   1     -23.353   0.448  28.696  0.00  0.00    +0.061 C 
ATOM      2  C   UNL A   1     -23.315   1.131  29.940  0.00  0.00    +0.008 C 
ENDROOT
BRANCH   1   3
ATOM      3  C   UNL A   1     -23.516  -0.952  28.618  0.00  0.00    +0.232 C 
ATOM      4  F   UNL A   1     -22.691  -1.678  28.995  0.00  0.00    -0.231 F 
BRANCH   3   6
ATOM      5  F   UNL A   1     -25.632  -0.426  28.573  0.00  0.00    -0.194 F 
ATOM      6  C   UNL A   1     -24.956  -1.337  28.414  0.00  0.00    +0.336 C 
ATOM      7  F   UNL A   1     -25.096  -1.895  27.420  0.00  0.00    -0.194 F 
BRANCH   6   8
ATOM      8  P   UNL A   1     -25.308  -2.604  29.724  0.00  0.00    +0.182 P 
ATOM      9  O   UNL A   1     -24.750  -3.657  29.465  0.00  0.00    -0.455 OA
ATOM     10  O   UNL A   1     -26.844  -2.649  29.612  0.00  0.00    -0.353 OA
ATOM     11  O   UNL A   1     -25.015  -1.800  30.980  0.00  0.00    -0.353 OA
ENDBRANCH   6   8
ENDBRANCH   3   6
ENDBRANCH   1   3
BRANCH   1  12
ATOM     12  C   UNL A   1     -22.764   1.149  27.617  0.00  0.00    -0.024 C 
ATOM     13  C   UNL A   1     -23.474   2.288  27.029  0.00  0.00    -0.004 C 
BRANCH  13  14
ATOM     14  C   UNL A   1     -24.576   1.955  26.112  0.00  0.00    -0.000 A 
ATOM     15  C   UNL A   1     -25.918   2.024  26.615  0.00  0.00    -0.000 A 
ATOM     16  C   UNL A   1     -26.934   1.566  25.828  0.00  0.00    -0.000 A 
ATOM     17  C   UNL A   1     -26.505   0.331  25.196  0.00  0.00    -0.000 A 
ATOM     18  C   UNL A   1     -25.231   0.059  24.777  0.00  0.00    -0.000 A 
ATOM     19  C   UNL A   1     -24.231   0.858  25.289  0.00  0.00    -0.000 A 
ENDBRANCH  13  14
ENDBRANCH   1  12
TORSDOF 5
ENDMDL
ENDMDL
