REMARK  Name = outputs/IAG933/test6/raw/output_4132_IAG933_linker_design_.xyz
REMARK  13 active torsions:
REMARK  status: ('A' for Active; 'I' for Inactive)
REMARK    1  A    between atoms: C_1  and  C_2
REMARK    2  A    between atoms: C_1  and  C_8
REMARK    3  A    between atoms: C_1  and  C_35
REMARK    4  A    between atoms: C_13  and  C_34
REMARK    5  A    between atoms: C_14  and  C_15
REMARK    6  A    between atoms: C_21  and  O_22
REMARK    7  A    between atoms: O_22  and  C_23
REMARK    8  A    between atoms: C_23  and  C_24
REMARK    9  A    between atoms: C_29  and  C_35
REMARK   10  A    between atoms: O_31  and  C_39
REMARK   11  A    between atoms: O_31  and  C_40
REMARK   12  A    between atoms: C_37  and  C_39
REMARK   13  A    between atoms: C_38  and  C_39
REMARK                            x       y       z     vdW  Elec       q    Type
REMARK                         _______ _______ _______ _____ _____    ______ ____
ROOT
ATOM      1  C   UNL A   1     -24.147   0.455  27.968  0.00  0.00    +0.047 C 
ATOM      2  C   UNL A   1     -24.617   1.370  27.173  0.00  0.00    +0.032 C 
ATOM      3  C   UNL A   1     -23.297   1.300  27.440  0.00  0.00    +0.047 C 
ENDROOT
BRANCH   2   4
ATOM      4  C   UNL A   1     -25.688   1.614  26.461  0.00  0.00    +0.016 C 
ATOM      5  C   UNL A   1     -26.250   2.920  26.395  0.00  0.00    +0.073 C 
ATOM      6  C   UNL A   1     -27.438   3.091  25.645  0.00  0.00    +0.106 C 
ATOM      7  N   UNL A   1     -28.075   2.089  25.003  0.00  0.00    -0.208 NA
ATOM      8  C   UNL A   1     -27.543   0.849  25.079  0.00  0.00    +0.253 C 
ATOM      9  C   UNL A   1     -26.354   0.576  25.777  0.00  0.00    +0.189 C 
ATOM     10  F   UNL A   1     -25.860  -0.681  25.795  0.00  0.00    -0.200 F 
BRANCH   5  11
ATOM     11  C   UNL A   1     -25.642   4.093  27.123  0.00  0.00    +0.266 C 
ATOM     12  N   UNL A   1     -25.614   5.252  26.449  0.00  0.00    -0.200 NA
ATOM     13  C   UNL A   1     -25.026   6.479  26.963  0.00  0.00    +0.139 C 
ATOM     14  O   UNL A   1     -25.143   3.966  28.243  0.00  0.00    -0.268 OA
ENDBRANCH   5  11
BRANCH   8  15
ATOM     15  O   UNL A   1     -28.193  -0.208  24.477  0.00  0.00    -0.456 OA
BRANCH  15  16
ATOM     16  C   UNL A   1     -29.460   0.005  23.866  0.00  0.00    +0.243 C 
BRANCH  16  17
ATOM     17  C   UNL A   1     -30.065  -1.377  23.573  0.00  0.00    +0.229 C 
ATOM     18  O   UNL A   1     -30.729  -1.878  24.721  0.00  0.00    -0.216 OA
ENDBRANCH  16  17
ENDBRANCH  15  16
ENDBRANCH   8  15
ENDBRANCH   2   4
BRANCH   1  20
ATOM     19  N   UNL A   1     -26.544   0.054  28.520  0.00  0.00    -0.226 NA
ATOM     20  C   UNL A   1     -25.247   0.045  29.194  0.00  0.00    +0.149 C 
ATOM     21  O   UNL A   1     -25.441   1.162  29.590  0.00  0.00    -0.327 OA
ATOM     22  C   UNL A   1     -27.499  -0.973  28.130  0.00  0.00    +0.094 C 
ATOM     23  C   UNL A   1     -26.966   1.066  29.459  0.00  0.00    +0.223 C 
BRANCH  20  24
ATOM     24  C   UNL A   1     -24.855  -1.012  30.143  0.00  0.00    +0.078 C 
BRANCH  24  25
ATOM     25  C   UNL A   1     -24.973  -2.505  29.788  0.00  0.00    -0.018 C 
ATOM     26  C   UNL A   1     -23.906  -3.173  29.146  0.00  0.00    -0.004 C 
ATOM     27  C   UNL A   1     -23.989  -4.549  28.853  0.00  0.00    -0.000 C 
ATOM     28  C   UNL A   1     -25.137  -5.280  29.205  0.00  0.00    -0.000 C 
ATOM     29  C   UNL A   1     -26.232  -4.611  29.784  0.00  0.00    -0.000 C 
ATOM     30  C   UNL A   1     -26.155  -3.232  30.065  0.00  0.00    -0.004 C 
ENDBRANCH  24  25
BRANCH  24  31
ATOM     31  C   UNL A   1     -25.387  -0.679  31.571  0.00  0.00    +0.080 C 
ATOM     32  C   UNL A   1     -25.189   0.773  32.028  0.00  0.00    +0.019 C 
ATOM     33  C   UNL A   1     -25.336   0.684  33.544  0.00  0.00    +0.020 C 
ATOM     34  C   UNL A   1     -24.829  -0.715  33.905  0.00  0.00    +0.089 C 
ATOM     35  N   UNL A   1     -24.758  -1.481  32.646  0.00  0.00    -0.219 NA
ENDBRANCH  24  31
ENDBRANCH  20  24
ENDBRANCH   1  20
BRANCH   3  36
ATOM     36  C   UNL A   1     -22.025   1.352  27.365  0.00  0.00    +0.221 C 
BRANCH  36  39
ATOM     37  O   UNL A   1     -21.883  -0.350  28.990  0.00  0.00    -0.243 OA
ATOM     38  O   UNL A   1     -20.029   0.106  28.333  0.00  0.00    -0.243 OA
ATOM     39  C   UNL A   1     -21.411   0.422  28.216  0.00  0.00    +0.391 C 
ENDBRANCH  36  39
BRANCH  36  40
ATOM     40  O   UNL A   1     -21.292   1.983  26.407  0.00  0.00    -0.316 OA
BRANCH  40  42
ATOM     41  O   UNL A   1     -23.130   2.253  24.700  0.00  0.00    -0.184 OA
ATOM     42  C   UNL A   1     -22.071   2.575  25.463  0.00  0.00    +0.329 C 
ENDBRANCH  40  42
ENDBRANCH  36  40
ENDBRANCH   3  36
TORSDOF 13
