MODEL 4133
MODEL 1
REMARK VINA RESULT:    -6.910      0.000      0.000
REMARK INTER + INTRA:          -9.336
REMARK INTER:                  -9.334
REMARK INTRA:                  -0.002
REMARK UNBOUND:                -0.002
REMARK  Name = No_4133-gen_results/8p0m/2024-11-27-11-27-31/
REMARK  6 active torsions:
REMARK  status: ('A' for Active; 'I' for Inactive)
REMARK    1  A    between atoms: C_2  and  C_11
REMARK    2  A    between atoms: C_4  and  O_17
REMARK    3  A    between atoms: C_5  and  O_7
REMARK    4  A    between atoms: O_7  and  P_18
REMARK    5  A    between atoms: O_17  and  C_23
REMARK    6  A    between atoms: P_18  and  O_20
REMARK                            x       y       z     vdW  Elec       q    Type
REMARK                         _______ _______ _______ _____ _____    ______ ____
ROOT
ATOM      1  C   UNL A   1     -26.516  -0.904  29.225  0.00  0.00    +0.043 C 
ATOM      2  C   UNL A   1     -25.656  -1.213  28.701  0.00  0.00    +0.180 C 
ATOM      3  C   UNL A   1     -26.400  -0.921  30.732  0.00  0.00    +0.049 C 
ATOM      4  C   UNL A   1     -25.312  -0.284  31.309  0.00  0.00    +0.189 C 
ATOM      5  C   UNL A   1     -24.287  -0.468  28.898  0.00  0.00    +0.189 C 
ATOM      6  C   UNL A   1     -24.016  -0.422  30.383  0.00  0.00    +0.221 C 
ATOM      7  O   UNL A   1     -23.502  -1.694  30.827  0.00  0.00    -0.216 OA
ATOM      8 CL   UNL A   1     -24.930  -0.613  32.888  0.00  0.00    -0.083 Cl
ATOM      9  F   UNL A   1     -25.711  -1.021  27.236  0.00  0.00    -0.233 F 
ENDROOT
BRANCH   2  10
ATOM     10  C   UNL A   1     -25.242  -2.632  29.061  0.00  0.00    +0.009 A 
ATOM     11  C   UNL A   1     -24.339  -3.198  28.474  0.00  0.00    -0.002 A 
ATOM     12  C   UNL A   1     -24.132  -4.580  28.717  0.00  0.00    -0.000 A 
ATOM     13  C   UNL A   1     -24.765  -5.303  29.055  0.00  0.00    -0.000 A 
ATOM     14  C   UNL A   1     -26.066  -4.765  29.686  0.00  0.00    -0.000 A 
ATOM     15  C   UNL A   1     -26.297  -3.438  29.642  0.00  0.00    -0.002 A 
ENDBRANCH   2  10
BRANCH   5  16
ATOM     16  O   UNL A   1     -24.339   0.861  28.452  0.00  0.00    -0.309 OA
BRANCH  16  17
ATOM     17  P   UNL A   1     -23.194   1.536  27.580  0.00  0.00    +0.254 P 
ATOM     18  O   UNL A   1     -21.980   1.168  27.874  0.00  0.00    -0.435 OA
ATOM     19  O   UNL A   1     -23.575   3.012  27.768  0.00  0.00    -0.515 OA
BRANCH  17  20
ATOM     20  O   UNL A   1     -23.669   1.138  26.142  0.00  0.00    -0.134 OA
ATOM     21  F   UNL A   1     -23.524   1.666  25.211  0.00  0.00    -0.041 F 
ENDBRANCH  17  20
ENDBRANCH  16  17
ENDBRANCH   5  16
BRANCH   4  22
ATOM     22  O   UNL A   1     -25.518   1.234  31.271  0.00  0.00    -0.342 OA
BRANCH  22  23
ATOM     23  C   UNL A   1     -24.364   1.967  31.664  0.00  0.00    +0.144 C 
ATOM     24  C   UNL A   1     -24.768   3.288  32.247  0.00  0.00    +0.035 C 
ENDBRANCH  22  23
ENDBRANCH   4  22
TORSDOF 6
ENDMDL
ENDMDL
