REMARK  Name = outputs/IAG933/test6/raw/output_4134_IAG933_linker_design_.xyz
REMARK  7 active torsions:
REMARK  status: ('A' for Active; 'I' for Inactive)
REMARK    1  A    between atoms: C_1  and  C_2
REMARK    2  A    between atoms: C_13  and  N_43
REMARK    3  A    between atoms: C_14  and  C_15
REMARK    4  A    between atoms: C_21  and  O_22
REMARK    5  A    between atoms: O_22  and  C_23
REMARK    6  A    between atoms: C_23  and  C_24
REMARK    7  A    between atoms: C_31  and  C_36
REMARK                            x       y       z     vdW  Elec       q    Type
REMARK                         _______ _______ _______ _____ _____    ______ ____
ROOT
ATOM      1  C   UNL A   1     -24.855  -1.012  30.143  0.00  0.00    +0.040 C 
ATOM      2  C   UNL A   1     -25.387  -0.679  31.571  0.00  0.00    +0.079 C 
ATOM      3  C   UNL A   1     -25.189   0.773  32.028  0.00  0.00    +0.045 C 
ATOM      4  C   UNL A   1     -25.336   0.684  33.544  0.00  0.00    +0.023 C 
ATOM      5  C   UNL A   1     -24.829  -0.715  33.905  0.00  0.00    +0.089 C 
ATOM      6  N   UNL A   1     -24.758  -1.481  32.646  0.00  0.00    -0.219 NA
ATOM      7  C   UNL A   1     -23.256   1.429  29.326  0.00  0.00    +0.144 C 
ATOM      8  O   UNL A   1     -24.441   1.923  29.879  0.00  0.00    -0.356 OA
ATOM      9  C   UNL A   1     -23.328   1.676  26.675  0.00  0.00    +0.093 C 
ATOM     10  C   UNL A   1     -24.973   1.952  31.150  0.00  0.00    +0.122 C 
ATOM     11  C   UNL A   1     -22.398   1.302  27.956  0.00  0.00    +0.049 C 
ATOM     12  C   UNL A   1     -24.637  -0.178  27.804  0.00  0.00    +0.091 C 
ATOM     13  C   UNL A   1     -25.529  -0.216  29.019  0.00  0.00    +0.027 C 
ATOM     14  C   UNL A   1     -21.090   1.494  27.167  0.00  0.00    +0.004 C 
ATOM     15  N   UNL A   1     -24.628   1.103  27.105  0.00  0.00    -0.305 N 
ENDROOT
BRANCH  15  16
ATOM     16  C   UNL A   1     -25.688   1.614  26.461  0.00  0.00    +0.086 C 
ATOM     17  C   UNL A   1     -26.250   2.920  26.395  0.00  0.00    +0.090 C 
ATOM     18  C   UNL A   1     -27.438   3.091  25.645  0.00  0.00    +0.108 C 
ATOM     19  N   UNL A   1     -28.075   2.089  25.003  0.00  0.00    -0.208 NA
ATOM     20  C   UNL A   1     -27.543   0.849  25.079  0.00  0.00    +0.255 C 
ATOM     21  C   UNL A   1     -26.354   0.576  25.777  0.00  0.00    +0.206 C 
ATOM     22  F   UNL A   1     -25.860  -0.681  25.795  0.00  0.00    -0.198 F 
BRANCH  17  23
ATOM     23  C   UNL A   1     -25.642   4.093  27.123  0.00  0.00    +0.268 C 
ATOM     24  N   UNL A   1     -25.614   5.252  26.449  0.00  0.00    -0.200 NA
ATOM     25  C   UNL A   1     -25.026   6.479  26.963  0.00  0.00    +0.139 C 
ATOM     26  O   UNL A   1     -25.143   3.966  28.243  0.00  0.00    -0.268 OA
ENDBRANCH  17  23
BRANCH  20  27
ATOM     27  O   UNL A   1     -28.193  -0.208  24.477  0.00  0.00    -0.456 OA
BRANCH  27  28
ATOM     28  C   UNL A   1     -29.460   0.005  23.866  0.00  0.00    +0.243 C 
BRANCH  28  29
ATOM     29  C   UNL A   1     -30.065  -1.377  23.573  0.00  0.00    +0.229 C 
ATOM     30  O   UNL A   1     -30.729  -1.878  24.721  0.00  0.00    -0.216 OA
ENDBRANCH  28  29
ENDBRANCH  27  28
ENDBRANCH  20  27
ENDBRANCH  15  16
BRANCH  10  32
ATOM     31  C   UNL A   1     -26.163   4.517  31.510  0.00  0.00    +0.099 C 
ATOM     32  C   UNL A   1     -25.381   3.308  31.732  0.00  0.00    +0.067 C 
ATOM     33  C   UNL A   1     -24.632   3.611  32.833  0.00  0.00    -0.027 C 
ATOM     34  N   UNL A   1     -27.491   4.616  31.971  0.00  0.00    -0.133 NA
ATOM     35  C   UNL A   1     -25.481   5.702  31.270  0.00  0.00    +0.024 C 
ATOM     36  C   UNL A   1     -24.410   5.869  32.145  0.00  0.00    +0.027 C 
ATOM     37  C   UNL A   1     -24.079   4.865  33.017  0.00  0.00    -0.030 C 
ENDBRANCH  10  32
BRANCH   1  38
ATOM     38  C   UNL A   1     -24.973  -2.505  29.788  0.00  0.00    -0.021 C 
ATOM     39  C   UNL A   1     -23.906  -3.173  29.146  0.00  0.00    -0.004 C 
ATOM     40  C   UNL A   1     -23.989  -4.549  28.853  0.00  0.00    -0.000 C 
ATOM     41  C   UNL A   1     -25.137  -5.280  29.205  0.00  0.00    -0.000 C 
ATOM     42  C   UNL A   1     -26.232  -4.611  29.784  0.00  0.00    -0.000 C 
ATOM     43  C   UNL A   1     -26.155  -3.232  30.065  0.00  0.00    -0.004 C 
ENDBRANCH   1  38
TORSDOF 7
