MODEL 4134
MODEL 1
REMARK VINA RESULT:    -7.790      0.000      0.000
REMARK INTER + INTRA:         -14.675
REMARK INTER:                 -11.433
REMARK INTRA:                  -3.242
REMARK UNBOUND:                -3.242
REMARK  Name = No_4134-gen_results/8p0m/2024-11-27-11-27-31/
REMARK  8 active torsions:
REMARK  status: ('A' for Active; 'I' for Inactive)
REMARK    1  A    between atoms: C_2  and  C_15
REMARK    2  A    between atoms: C_3  and  C_7
REMARK    3  A    between atoms: C_15  and  O_17
REMARK    4  A    between atoms: O_17  and  C_18
REMARK    5  A    between atoms: C_20  and  N_22
REMARK    6  A    between atoms: N_22  and  C_25
REMARK    7  A    between atoms: N_22  and  C_31
REMARK    8  A    between atoms: C_31  and  C_32
REMARK                            x       y       z     vdW  Elec       q    Type
REMARK                         _______ _______ _______ _____ _____    ______ ____
ROOT
ATOM      1  C   UNL A   1     -25.647   0.107  30.983  0.00  0.00    +0.162 A 
ATOM      2  C   UNL A   1     -25.790   0.213  31.969  0.00  0.00    +0.039 A 
ATOM      3  C   UNL A   1     -24.297  -0.507  30.489  0.00  0.00    +0.087 A 
ATOM      4  C   UNL A   1     -24.921  -0.096  33.114  0.00  0.00    +0.003 A 
ATOM      5  C   UNL A   1     -23.719  -0.680  32.721  0.00  0.00    +0.002 A 
ATOM      6  C   UNL A   1     -23.421  -0.862  31.416  0.00  0.00    +0.018 A 
ENDROOT
BRANCH   1   7
ATOM      7  O   UNL A   1     -26.418   0.378  29.870  0.00  0.00    -0.420 OA
BRANCH   7   8
ATOM      8  C   UNL A   1     -27.218   1.378  29.917  0.00  0.00    +0.346 C 
ATOM      9  O   UNL A   1     -28.001   1.512  30.690  0.00  0.00    -0.244 OA
BRANCH   8  11
ATOM     10  C   UNL A   1     -27.849   2.123  27.829  0.00  0.00    +0.006 A 
ATOM     11  C   UNL A   1     -27.099   2.247  28.558  0.00  0.00    +0.076 A 
ATOM     12  C   UNL A   1     -27.641   2.936  26.631  0.00  0.00    +0.002 A 
ATOM     13  C   UNL A   1     -26.552   3.759  26.487  0.00  0.00    +0.000 A 
ATOM     14  C   UNL A   1     -25.864   3.021  28.676  0.00  0.00    +0.006 A 
ATOM     15  C   UNL A   1     -25.653   3.812  27.521  0.00  0.00    +0.000 A 
BRANCH  12  16
ATOM     16  C   UNL A   1     -28.575   2.867  25.469  0.00  0.00    +0.021 A 
ATOM     17  C   UNL A   1     -28.334   2.005  24.558  0.00  0.00    +0.059 A 
ATOM     18  C   UNL A   1     -29.204   2.029  23.372  0.00  0.00    +0.011 A 
ATOM     19  C   UNL A   1     -30.386   2.827  23.423  0.00  0.00    +0.002 A 
ATOM     20  C   UNL A   1     -29.586   3.723  25.360  0.00  0.00    +0.059 A 
ATOM     21  C   UNL A   1     -30.508   3.693  24.425  0.00  0.00    +0.011 A 
ATOM     22 CL   UNL A   1     -29.898   4.879  26.690  0.00  0.00    -0.082 Cl
ATOM     23 CL   UNL A   1     -26.979   0.968  24.429  0.00  0.00    -0.082 Cl
ENDBRANCH  12  16
ENDBRANCH   8  11
ENDBRANCH   7   8
ENDBRANCH   1   7
BRANCH   3  24
ATOM     24  N   UNL A   1     -23.943  -0.690  29.141  0.00  0.00    -0.280 N 
BRANCH  24  25
ATOM     25  C   UNL A   1     -23.491   0.140  28.332  0.00  0.00    +0.048 A 
ATOM     26  C   UNL A   1     -22.655   0.917  28.484  0.00  0.00    +0.015 A 
ATOM     27  C   UNL A   1     -22.131   1.902  27.568  0.00  0.00    +0.001 A 
ATOM     28  C   UNL A   1     -22.741   1.993  26.358  0.00  0.00    -0.000 A 
ATOM     29  C   UNL A   1     -24.260   0.171  27.083  0.00  0.00    -0.008 A 
ATOM     30  C   UNL A   1     -23.817   1.112  26.084  0.00  0.00    -0.003 A 
ATOM     31  C   UNL A   1     -25.414  -0.510  26.893  0.00  0.00    +0.032 C 
ENDBRANCH  24  25
BRANCH  24  32
ATOM     32  C   UNL A   1     -23.503  -2.197  28.937  0.00  0.00    +0.122 C 
BRANCH  32  33
ATOM     33  C   UNL A   1     -24.263  -3.189  29.296  0.00  0.00    -0.009 C 
ATOM     34  C   UNL A   1     -24.139  -4.415  28.558  0.00  0.00    -0.029 C 
ATOM     35  C   UNL A   1     -24.836  -5.610  28.929  0.00  0.00    +0.030 C 
ENDBRANCH  32  33
ENDBRANCH  24  32
ENDBRANCH   3  24
TORSDOF 8
ENDMDL
ENDMDL
