MODEL 4135
MODEL 1
REMARK VINA RESULT:    -6.512      0.000      0.000
REMARK INTER + INTRA:          -7.480
REMARK INTER:                  -7.273
REMARK INTRA:                  -0.207
REMARK UNBOUND:                -0.207
REMARK  Name = No_4135-gen_results/8p0m/2024-11-27-11-27-31/
REMARK  2 active torsions:
REMARK  status: ('A' for Active; 'I' for Inactive)
REMARK    1  A    between atoms: C_1  and  C_8
REMARK    2  A    between atoms: C_5  and  C_14
REMARK                            x       y       z     vdW  Elec       q    Type
REMARK                         _______ _______ _______ _____ _____    ______ ____
ROOT
ATOM      1  C   UNL A   1     -23.298  -1.459  29.290  0.00  0.00    -0.009 C 
ATOM      2  C   UNL A   1     -24.359  -1.989  29.523  0.00  0.00    -0.044 C 
ATOM      3  C   UNL A   1     -25.381  -1.433  30.272  0.00  0.00    +0.023 C 
ATOM      4  C   UNL A   1     -26.623  -2.073  30.633  0.00  0.00    +0.016 C 
ATOM      5  C   UNL A   1     -26.855  -3.397  30.189  0.00  0.00    +0.104 C 
ATOM      6  C   UNL A   1     -25.848  -4.025  29.412  0.00  0.00    +0.016 C 
ATOM      7  C   UNL A   1     -24.697  -3.348  29.149  0.00  0.00    +0.023 C 
ENDROOT
BRANCH   1   8
ATOM      8  C   UNL A   1     -23.399  -0.296  28.359  0.00  0.00    -0.000 A 
ATOM      9  C   UNL A   1     -24.318  -0.280  27.490  0.00  0.00    +0.003 A 
ATOM     10  C   UNL A   1     -22.247   0.535  28.392  0.00  0.00    +0.003 A 
ATOM     11  C   UNL A   1     -22.166   1.572  27.432  0.00  0.00    +0.042 A 
ATOM     12  C   UNL A   1     -24.302   0.866  26.544  0.00  0.00    +0.042 A 
ATOM     13  C   UNL A   1     -23.230   1.746  26.548  0.00  0.00    +0.196 A 
ATOM     14  O   UNL A   1     -23.165   2.774  25.679  0.00  0.00    -0.287 OA
ENDBRANCH   1   8
BRANCH   5  15
ATOM     15  C   UNL A   1     -28.076  -4.104  30.505  0.00  0.00    +0.364 C 
ATOM     16  O   UNL A   1     -28.687  -4.744  29.707  0.00  0.00    -0.246 OA
ATOM     17  O   UNL A   1     -28.655  -3.898  31.708  0.00  0.00    -0.246 OA
ENDBRANCH   5  15
TORSDOF 2
ENDMDL
ENDMDL
