REMARK  Name = No_4135-gen_results/8p0m/2024-11-27-11-27-31/
REMARK  2 active torsions:
REMARK  status: ('A' for Active; 'I' for Inactive)
REMARK    1  A    between atoms: C_1  and  C_8
REMARK    2  A    between atoms: C_5  and  C_14
REMARK                            x       y       z     vdW  Elec       q    Type
REMARK                         _______ _______ _______ _____ _____    ______ ____
ROOT
ATOM      1  C   UNL A   1     -28.016  -0.814  28.878  0.00  0.00    -0.009 C 
ATOM      2  C   UNL A   1     -27.064  -0.119  28.608  0.00  0.00    -0.044 C 
ATOM      3  C   UNL A   1     -26.972   0.714  27.506  0.00  0.00    +0.023 C 
ATOM      4  C   UNL A   1     -25.820   1.491  27.116  0.00  0.00    +0.016 C 
ATOM      5  C   UNL A   1     -24.656   1.424  27.918  0.00  0.00    +0.104 C 
ATOM      6  C   UNL A   1     -24.685   0.590  29.066  0.00  0.00    +0.016 C 
ATOM      7  C   UNL A   1     -25.810  -0.127  29.334  0.00  0.00    +0.023 C 
ENDROOT
BRANCH   1   8
ATOM      8  C   UNL A   1     -29.218  -0.042  29.313  0.00  0.00    -0.000 A 
ATOM      9  C   UNL A   1     -29.490   0.033  30.546  0.00  0.00    +0.003 A 
ATOM     10  C   UNL A   1     -30.080   0.285  28.232  0.00  0.00    +0.003 A 
ATOM     11  C   UNL A   1     -31.328   0.872  28.551  0.00  0.00    +0.042 A 
ATOM     12  C   UNL A   1     -30.748   0.743  30.895  0.00  0.00    +0.042 A 
ATOM     13  C   UNL A   1     -31.619   1.134  29.889  0.00  0.00    +0.196 A 
ATOM     14  O   UNL A   1     -32.785   1.746  30.172  0.00  0.00    -0.287 OA
ENDBRANCH   1   8
BRANCH   5  15
ATOM     15  C   UNL A   1     -23.464   2.176  27.595  0.00  0.00    +0.364 C 
ATOM     16  O   UNL A   1     -23.442   3.050  26.785  0.00  0.00    -0.246 OA
ATOM     17  O   UNL A   1     -22.280   1.768  28.099  0.00  0.00    -0.246 OA
ENDBRANCH   5  15
TORSDOF 2
