MODEL 4136
MODEL 1
REMARK VINA RESULT:    -4.447      0.000      0.000
REMARK INTER + INTRA:          -4.447
REMARK INTER:                  -4.447
REMARK INTRA:                   0.000
REMARK UNBOUND:                 0.000
REMARK  Name = No_4136-gen_results/8p0m/2024-11-27-11-27-31/
REMARK  0 active torsions:
REMARK  status: ('A' for Active; 'I' for Inactive)
REMARK                            x       y       z     vdW  Elec       q    Type
REMARK                         _______ _______ _______ _____ _____    ______ ____
ROOT
ATOM      1  C   UNL A   1      -9.160  -9.277  20.011  0.00  0.00    +0.011 A 
ATOM      2  C   UNL A   1      -8.323  -9.832  19.694  0.00  0.00    +0.058 A 
ATOM      3  C   UNL A   1     -10.313  -9.242  19.097  0.00  0.00    +0.001 A 
ATOM      4  C   UNL A   1     -10.326 -10.041  17.917  0.00  0.00    +0.000 A 
ATOM      5  C   UNL A   1      -8.104 -10.779  18.566  0.00  0.00    +0.011 A 
ATOM      6  C   UNL A   1      -9.149 -10.766  17.690  0.00  0.00    +0.001 A 
ATOM      7 CL   UNL A   1      -6.976  -9.721  20.871  0.00  0.00    -0.082 Cl
ENDROOT
TORSDOF 0
ENDMDL
ENDMDL
