REMARK  Name = No_4138-gen_results/8p0m/2024-11-27-11-27-31/
REMARK  4 active torsions:
REMARK  status: ('A' for Active; 'I' for Inactive)
REMARK    1  A    between atoms: C_3  and  C_4
REMARK    2  A    between atoms: C_6  and  O_15
REMARK    3  A    between atoms: O_15  and  C_16
REMARK    4  A    between atoms: C_17  and  C_23
REMARK                            x       y       z     vdW  Elec       q    Type
REMARK                         _______ _______ _______ _____ _____    ______ ____
ROOT
ATOM      1  C   UNL A   1     -28.016  -0.814  28.878  0.00  0.00    +0.015 A 
ATOM      2  C   UNL A   1     -28.469  -0.785  29.829  0.00  0.00    +0.094 A 
ATOM      3  C   UNL A   1     -28.182   0.428  28.113  0.00  0.00    +0.003 A 
ATOM      4  C   UNL A   1     -29.426   0.110  30.418  0.00  0.00    +0.183 A 
ATOM      5  C   UNL A   1     -29.623   1.220  29.735  0.00  0.00    +0.175 A 
ATOM      6  C   UNL A   1     -28.961   1.453  28.551  0.00  0.00    +0.033 A 
ATOM      7  F   UNL A   1     -30.442   2.190  30.216  0.00  0.00    -0.201 F 
ATOM      8 CL   UNL A   1     -28.248  -2.345  30.817  0.00  0.00    -0.079 Cl
ENDROOT
BRANCH   3   9
ATOM      9  C   UNL A   1     -27.450   0.643  26.850  0.00  0.00    +0.000 A 
ATOM     10  C   UNL A   1     -27.860   1.457  25.908  0.00  0.00    +0.000 A 
ATOM     11  C   UNL A   1     -27.173   1.574  24.703  0.00  0.00    +0.000 A 
ATOM     12  C   UNL A   1     -26.089   0.747  24.413  0.00  0.00    +0.000 A 
ATOM     13  C   UNL A   1     -25.636  -0.119  25.397  0.00  0.00    +0.000 A 
ATOM     14  C   UNL A   1     -26.281  -0.206  26.582  0.00  0.00    +0.000 A 
ENDBRANCH   3   9
BRANCH   4  15
ATOM     15  O   UNL A   1     -29.972  -0.196  31.680  0.00  0.00    -0.450 OA
BRANCH  15  16
ATOM     16  C   UNL A   1     -29.277  -0.090  32.726  0.00  0.00    +0.146 A 
ATOM     17  C   UNL A   1     -29.666  -1.044  33.741  0.00  0.00    +0.035 A 
ATOM     18  C   UNL A   1     -28.768  -1.197  34.799  0.00  0.00    +0.004 A 
ATOM     19  C   UNL A   1     -27.555  -0.458  34.912  0.00  0.00    +0.012 A 
ATOM     20  C   UNL A   1     -27.255   0.407  33.813  0.00  0.00    +0.061 A 
ATOM     21  C   UNL A   1     -28.100   0.475  32.785  0.00  0.00    +0.049 A 
ATOM     22 CL   UNL A   1     -25.771   1.310  33.969  0.00  0.00    -0.082 Cl
BRANCH  17  23
ATOM     23  C   UNL A   1     -30.845  -1.818  33.687  0.00  0.00    +0.003 A 
ATOM     24  C   UNL A   1     -30.845  -3.080  33.893  0.00  0.00    +0.000 A 
ATOM     25  C   UNL A   1     -32.021  -3.892  33.814  0.00  0.00    +0.000 A 
ATOM     26  C   UNL A   1     -33.154  -3.255  33.322  0.00  0.00    +0.000 A 
ATOM     27  C   UNL A   1     -33.157  -1.901  33.008  0.00  0.00    +0.000 A 
ATOM     28  C   UNL A   1     -32.026  -1.168  33.207  0.00  0.00    +0.000 A 
ENDBRANCH  17  23
ENDBRANCH  15  16
ENDBRANCH   4  15
TORSDOF 4
