MODEL 4138
MODEL 1
REMARK VINA RESULT:    -8.757      0.000      0.000
REMARK INTER + INTRA:         -11.845
REMARK INTER:                 -10.805
REMARK INTRA:                  -1.040
REMARK UNBOUND:                -1.040
REMARK  Name = No_4138-gen_results/8p0m/2024-11-27-11-27-31/
REMARK  4 active torsions:
REMARK  status: ('A' for Active; 'I' for Inactive)
REMARK    1  A    between atoms: C_3  and  C_4
REMARK    2  A    between atoms: C_6  and  O_15
REMARK    3  A    between atoms: O_15  and  C_16
REMARK    4  A    between atoms: C_17  and  C_23
REMARK                            x       y       z     vdW  Elec       q    Type
REMARK                         _______ _______ _______ _____ _____    ______ ____
ROOT
ATOM      1  C   UNL A   1     -28.160   1.005  26.697  0.00  0.00    +0.015 A 
ATOM      2  C   UNL A   1     -27.446   0.293  27.004  0.00  0.00    +0.094 A 
ATOM      3  C   UNL A   1     -28.087   1.327  25.267  0.00  0.00    +0.003 A 
ATOM      4  C   UNL A   1     -26.262  -0.224  26.375  0.00  0.00    +0.183 A 
ATOM      5  C   UNL A   1     -26.151   0.079  25.097  0.00  0.00    +0.175 A 
ATOM      6  C   UNL A   1     -27.102   0.845  24.462  0.00  0.00    +0.033 A 
ATOM      7  F   UNL A   1     -25.122  -0.410  24.359  0.00  0.00    -0.201 F 
ATOM      8 CL   UNL A   1     -27.541  -0.140  28.810  0.00  0.00    -0.079 Cl
ENDROOT
BRANCH   3   9
ATOM      9  C   UNL A   1     -29.130   2.148  24.621  0.00  0.00    +0.000 A 
ATOM     10  C   UNL A   1     -29.604   3.252  25.143  0.00  0.00    +0.000 A 
ATOM     11  C   UNL A   1     -30.639   3.955  24.532  0.00  0.00    +0.000 A 
ATOM     12  C   UNL A   1     -31.280   3.449  23.403  0.00  0.00    +0.000 A 
ATOM     13  C   UNL A   1     -30.791   2.283  22.831  0.00  0.00    +0.000 A 
ATOM     14  C   UNL A   1     -29.762   1.620  23.405  0.00  0.00    +0.000 A 
ENDBRANCH   3   9
BRANCH   4  15
ATOM     15  O   UNL A   1     -25.407  -1.072  27.105  0.00  0.00    -0.450 OA
BRANCH  15  16
ATOM     16  C   UNL A   1     -24.432  -0.603  27.752  0.00  0.00    +0.146 A 
ATOM     17  C   UNL A   1     -23.877  -1.565  28.679  0.00  0.00    +0.035 A 
ATOM     18  C   UNL A   1     -22.628  -1.236  29.210  0.00  0.00    +0.004 A 
ATOM     19  C   UNL A   1     -21.936  -0.030  28.901  0.00  0.00    +0.012 A 
ATOM     20  C   UNL A   1     -22.562   0.807  27.924  0.00  0.00    +0.061 A 
ATOM     21  C   UNL A   1     -23.719   0.428  27.383  0.00  0.00    +0.049 A 
ATOM     22 CL   UNL A   1     -21.707   2.283  27.561  0.00  0.00    -0.082 Cl
BRANCH  17  23
ATOM     23  C   UNL A   1     -24.501  -2.783  29.021  0.00  0.00    +0.003 A 
ATOM     24  C   UNL A   1     -24.088  -3.911  28.582  0.00  0.00    +0.000 A 
ATOM     25  C   UNL A   1     -24.721  -5.157  28.889  0.00  0.00    +0.000 A 
ATOM     26  C   UNL A   1     -25.934  -5.060  29.561  0.00  0.00    +0.000 A 
ATOM     27  C   UNL A   1     -26.449  -3.837  29.975  0.00  0.00    +0.000 A 
ATOM     28  C   UNL A   1     -25.738  -2.700  29.737  0.00  0.00    +0.000 A 
ENDBRANCH  17  23
ENDBRANCH  15  16
ENDBRANCH   4  15
TORSDOF 4
ENDMDL
ENDMDL
