MODEL 4139
MODEL 1
REMARK VINA RESULT:    -5.021      0.000      0.000
REMARK INTER + INTRA:          -5.400
REMARK INTER:                  -5.314
REMARK INTRA:                  -0.085
REMARK UNBOUND:                -0.085
REMARK  Name = No_4139-gen_results/8p0m/2024-11-27-11-27-31/
REMARK  1 active torsions:
REMARK  status: ('A' for Active; 'I' for Inactive)
REMARK    1  A    between atoms: C_3  and  C_4
REMARK                            x       y       z     vdW  Elec       q    Type
REMARK                         _______ _______ _______ _____ _____    ______ ____
ROOT
ATOM      1  C   UNL A   1     -25.789  -2.579  29.739  0.00  0.00    -0.000 A 
ATOM      2  C   UNL A   1     -26.409  -3.422  29.864  0.00  0.00    -0.000 A 
ATOM      3  C   UNL A   1     -24.493  -2.786  29.216  0.00  0.00    -0.000 A 
ATOM      4  C   UNL A   1     -26.171  -4.852  29.600  0.00  0.00    -0.000 A 
ATOM      5  C   UNL A   1     -24.907  -5.133  29.083  0.00  0.00    -0.000 A 
ATOM      6  C   UNL A   1     -24.051  -4.109  28.832  0.00  0.00    -0.000 A 
ENDROOT
BRANCH   3   7
ATOM      7  C   UNL A   1     -23.537  -1.700  28.876  0.00  0.00    -0.005 C 
ATOM      8  C   UNL A   1     -22.859  -1.006  29.462  0.00  0.00    -0.026 C 
ATOM      9  C   UNL A   1     -23.122  -1.069  30.977  0.00  0.00    +0.031 C 
ENDBRANCH   3   7
TORSDOF 1
ENDMDL
ENDMDL
