MODEL 413
MODEL 1
REMARK VINA RESULT:    -5.777      0.000      0.000
REMARK INTER + INTRA:          -6.718
REMARK INTER:                  -6.452
REMARK INTRA:                  -0.266
REMARK UNBOUND:                -0.266
REMARK  Name = No_413-gen_results/8p0m/2024-11-27-11-27-31/
REMARK  2 active torsions:
REMARK  status: ('A' for Active; 'I' for Inactive)
REMARK    1  A    between atoms: C_2  and  C_11
REMARK    2  A    between atoms: C_3  and  C_7
REMARK                            x       y       z     vdW  Elec       q    Type
REMARK                         _______ _______ _______ _____ _____    ______ ____
ROOT
ATOM      1  C   UNL A   1     -28.265 -11.777  31.639  0.00  0.00    +0.010 A 
ATOM      2  C   UNL A   1     -28.248 -11.269  32.562  0.00  0.00    +0.080 A 
ATOM      3  C   UNL A   1     -29.124 -11.285  30.631  0.00  0.00    +0.072 A 
ATOM      4  C   UNL A   1     -29.932 -10.184  30.833  0.00  0.00    +0.004 A 
ATOM      5  C   UNL A   1     -28.996 -10.086  33.030  0.00  0.00    +0.007 A 
ATOM      6  C   UNL A   1     -29.832  -9.583  32.095  0.00  0.00    +0.000 A 
ENDROOT
BRANCH   3   7
ATOM      7  C   UNL A   1     -29.215 -11.895  29.262  0.00  0.00    +0.419 C 
ATOM      8  F   UNL A   1     -28.346 -11.692  28.536  0.00  0.00    -0.166 F 
ATOM      9  F   UNL A   1     -30.459 -11.493  28.709  0.00  0.00    -0.166 F 
ATOM     10  F   UNL A   1     -29.459 -13.303  29.268  0.00  0.00    -0.166 F 
ENDBRANCH   3   7
BRANCH   2  11
ATOM     11  C   UNL A   1     -27.220 -11.711  33.719  0.00  0.00    +0.388 C 
ATOM     12  O   UNL A   1     -26.709 -12.798  33.741  0.00  0.00    -0.241 OA
ATOM     13  O   UNL A   1     -26.814 -10.915  34.597  0.00  0.00    -0.241 OA
ENDBRANCH   2  11
TORSDOF 2
ENDMDL
ENDMDL
