MODEL 4140
MODEL 1
REMARK VINA RESULT:    -7.574      0.000      0.000
REMARK INTER + INTRA:         -14.838
REMARK INTER:                 -11.559
REMARK INTRA:                  -3.278
REMARK UNBOUND:                -3.278
REMARK  Name = No_4140-gen_results/8p0m/2024-11-27-11-27-31/
REMARK  9 active torsions:
REMARK  status: ('A' for Active; 'I' for Inactive)
REMARK    1  A    between atoms: C_2  and  C_7
REMARK    2  A    between atoms: C_7  and  C_8
REMARK    3  A    between atoms: C_7  and  C_14
REMARK    4  A    between atoms: C_11  and  O_25
REMARK    5  A    between atoms: C_14  and  C_16
REMARK    6  A    between atoms: C_17  and  C_18
REMARK    7  A    between atoms: O_25  and  C_26
REMARK    8  A    between atoms: C_26  and  C_28
REMARK    9  A    between atoms: C_27  and  C_29
REMARK                            x       y       z     vdW  Elec       q    Type
REMARK                         _______ _______ _______ _____ _____    ______ ____
ROOT
ATOM      1  C   UNL A   1     -29.354   1.428  24.997  0.00  0.00    +0.059 C 
ENDROOT
BRANCH   1   3
ATOM      2  C   UNL A   1     -30.509   2.043  22.987  0.00  0.00    +0.007 A 
ATOM      3  C   UNL A   1     -30.364   1.281  23.915  0.00  0.00    -0.016 A 
ATOM      4  C   UNL A   1     -31.155   0.144  24.040  0.00  0.00    -0.004 A 
ATOM      5  C   UNL A   1     -32.203  -0.138  23.093  0.00  0.00    +0.001 A 
ATOM      6  C   UNL A   1     -32.316   0.807  22.066  0.00  0.00    +0.011 A 
ATOM      7  C   UNL A   1     -31.554   1.875  22.001  0.00  0.00    +0.057 A 
ATOM      8 CL   UNL A   1     -31.794   3.013  20.766  0.00  0.00    -0.082 Cl
ENDBRANCH   1   3
BRANCH   1   9
ATOM      9  C   UNL A   1     -28.380   0.741  25.260  0.00  0.00    -0.017 A 
ATOM     10  C   UNL A   1     -28.182   0.348  26.723  0.00  0.00    -0.001 A 
ATOM     11  C   UNL A   1     -27.114   0.355  27.345  0.00  0.00    +0.037 A 
ATOM     12  C   UNL A   1     -25.900   0.101  26.519  0.00  0.00    +0.145 A 
ATOM     13  C   UNL A   1     -25.997   0.266  25.163  0.00  0.00    +0.037 A 
ATOM     14  C   UNL A   1     -27.179   0.687  24.549  0.00  0.00    -0.001 A 
BRANCH  12  15
ATOM     15  O   UNL A   1     -24.736  -0.281  27.108  0.00  0.00    -0.454 OA
BRANCH  15  16
ATOM     16  C   UNL A   1     -24.094  -0.028  27.882  0.00  0.00    +0.145 C 
ATOM     17  C   UNL A   1     -23.782  -0.889  28.741  0.00  0.00    +0.037 C 
BRANCH  17  18
ATOM     18  C   UNL A   1     -24.445  -2.131  29.002  0.00  0.00    +0.003 A 
ATOM     19  C   UNL A   1     -25.760  -2.321  29.506  0.00  0.00    +0.000 A 
ATOM     20  C   UNL A   1     -26.311  -3.610  29.816  0.00  0.00    +0.000 A 
ATOM     21  C   UNL A   1     -25.565  -4.738  29.363  0.00  0.00    +0.000 A 
ATOM     22  C   UNL A   1     -24.317  -4.572  28.754  0.00  0.00    +0.000 A 
ATOM     23  C   UNL A   1     -23.816  -3.344  28.593  0.00  0.00    +0.000 A 
ENDBRANCH  17  18
BRANCH  16  24
ATOM     24  C   UNL A   1     -23.500   1.268  27.940  0.00  0.00    +0.037 C 
ATOM     25  C   UNL A   1     -22.161   1.381  27.623  0.00  0.00    +0.003 C 
ENDBRANCH  16  24
ENDBRANCH  15  16
ENDBRANCH  12  15
ENDBRANCH   1   9
BRANCH   1  26
ATOM     26  C   UNL A   1     -29.510   2.710  25.743  0.00  0.00    +0.087 C 
ATOM     27 BR   UNL A   1     -30.937   3.234  26.511  0.00  0.00    -0.076 Br
BRANCH  26  28
ATOM     28  C   UNL A   1     -28.320   3.615  25.774  0.00  0.00    -0.014 C 
ATOM     29  C   UNL A   1     -27.870   3.907  26.940  0.00  0.00    -0.004 C 
BRANCH  29  30
ATOM     30  C   UNL A   1     -26.710   4.729  27.125  0.00  0.00    -0.000 A 
ATOM     31  C   UNL A   1     -26.807   6.092  27.283  0.00  0.00    -0.000 A 
ATOM     32  C   UNL A   1     -26.204   6.920  27.011  0.00  0.00    -0.000 A 
ATOM     33  C   UNL A   1     -24.707   6.617  26.717  0.00  0.00    -0.000 A 
ATOM     34  C   UNL A   1     -24.431   5.281  26.648  0.00  0.00    -0.000 A 
ATOM     35  C   UNL A   1     -25.427   4.410  26.666  0.00  0.00    -0.000 A 
ENDBRANCH  29  30
ENDBRANCH  26  28
ENDBRANCH   1  26
TORSDOF 9
ENDMDL
ENDMDL
