MODEL 4141
MODEL 1
REMARK VINA RESULT:    -4.376      0.000      0.000
REMARK INTER + INTRA:          -4.376
REMARK INTER:                  -4.376
REMARK INTRA:                   0.000
REMARK UNBOUND:                 0.000
REMARK  Name = No_4141-gen_results/8p0m/2024-11-27-11-27-31/
REMARK  0 active torsions:
REMARK  status: ('A' for Active; 'I' for Inactive)
REMARK                            x       y       z     vdW  Elec       q    Type
REMARK                         _______ _______ _______ _____ _____    ______ ____
ROOT
ATOM      1  C   UNL A   1     -25.311  -2.631  29.820  0.00  0.00    +0.011 A 
ATOM      2  C   UNL A   1     -24.296  -2.967  29.256  0.00  0.00    +0.058 A 
ATOM      3  C   UNL A   1     -23.985  -4.148  28.803  0.00  0.00    +0.011 A 
ATOM      4  C   UNL A   1     -24.927  -5.205  28.986  0.00  0.00    +0.001 A 
ATOM      5  C   UNL A   1     -26.363  -3.623  29.939  0.00  0.00    +0.001 A 
ATOM      6  C   UNL A   1     -26.120  -4.864  29.517  0.00  0.00    +0.000 A 
ATOM      7 CL   UNL A   1     -23.031  -1.757  28.975  0.00  0.00    -0.082 Cl
ENDROOT
TORSDOF 0
ENDMDL
ENDMDL
