REMARK  Name = outputs/IAG933/test6/raw/output_4142_IAG933_linker_design_.xyz
REMARK  11 active torsions:
REMARK  status: ('A' for Active; 'I' for Inactive)
REMARK    1  A    between atoms: C_1  and  C_2
REMARK    2  A    between atoms: C_1  and  C_8
REMARK    3  A    between atoms: C_1  and  C_33
REMARK    4  A    between atoms: C_13  and  C_37
REMARK    5  A    between atoms: C_14  and  C_15
REMARK    6  A    between atoms: C_21  and  O_22
REMARK    7  A    between atoms: O_22  and  C_23
REMARK    8  A    between atoms: C_23  and  C_24
REMARK    9  A    between atoms: N_29  and  C_33
REMARK   10  A    between atoms: C_31  and  C_43
REMARK   11  A    between atoms: C_33  and  C_43
REMARK                            x       y       z     vdW  Elec       q    Type
REMARK                         _______ _______ _______ _____ _____    ______ ____
ROOT
ATOM      1  C   UNL A   1     -23.269   1.568  26.946  0.00  0.00    +0.239 C 
ATOM      2  N   UNL A   1     -24.516   0.603  28.514  0.00  0.00    -0.281 N 
ATOM      3  C   UNL A   1     -22.321   1.155  27.951  0.00  0.00    +0.240 C 
ATOM      4  O   UNL A   1     -21.370   2.015  26.048  0.00  0.00    +0.043 OA
ATOM      5  C   UNL A   1     -24.599   1.228  27.327  0.00  0.00    +0.096 C 
ATOM      6  O   UNL A   1     -21.069   1.712  27.369  0.00  0.00    -0.292 OA
ATOM      7  C   UNL A   1     -23.105   0.490  28.990  0.00  0.00    +0.110 C 
ATOM      8  O   UNL A   1     -22.777   2.215  25.880  0.00  0.00    -0.292 OA
ENDROOT
BRANCH   5   9
ATOM      9  C   UNL A   1     -25.688   1.614  26.461  0.00  0.00    +0.055 C 
ATOM     10  C   UNL A   1     -26.250   2.920  26.395  0.00  0.00    +0.078 C 
ATOM     11  C   UNL A   1     -27.438   3.091  25.645  0.00  0.00    +0.107 C 
ATOM     12  N   UNL A   1     -28.075   2.089  25.003  0.00  0.00    -0.208 NA
ATOM     13  C   UNL A   1     -27.543   0.849  25.079  0.00  0.00    +0.253 C 
ATOM     14  C   UNL A   1     -26.354   0.576  25.777  0.00  0.00    +0.194 C 
ATOM     15  F   UNL A   1     -25.860  -0.681  25.795  0.00  0.00    -0.199 F 
BRANCH  10  16
ATOM     16  C   UNL A   1     -25.642   4.093  27.123  0.00  0.00    +0.267 C 
ATOM     17  N   UNL A   1     -25.614   5.252  26.449  0.00  0.00    -0.200 NA
ATOM     18  C   UNL A   1     -25.026   6.479  26.963  0.00  0.00    +0.139 C 
ATOM     19  O   UNL A   1     -25.143   3.966  28.243  0.00  0.00    -0.268 OA
ENDBRANCH  10  16
BRANCH  13  20
ATOM     20  O   UNL A   1     -28.193  -0.208  24.477  0.00  0.00    -0.456 OA
BRANCH  20  21
ATOM     21  C   UNL A   1     -29.460   0.005  23.866  0.00  0.00    +0.243 C 
BRANCH  21  22
ATOM     22  C   UNL A   1     -30.065  -1.377  23.573  0.00  0.00    +0.229 C 
ATOM     23  O   UNL A   1     -30.729  -1.878  24.721  0.00  0.00    -0.216 OA
ENDBRANCH  21  22
ENDBRANCH  20  21
ENDBRANCH  13  20
ENDBRANCH   5   9
BRANCH   2  24
ATOM     24  C   UNL A   1     -25.664  -0.130  29.078  0.00  0.00    +0.092 C 
BRANCH  24  25
ATOM     25  C   UNL A   1     -24.855  -1.012  30.143  0.00  0.00    +0.057 C 
BRANCH  25  26
ATOM     26  C   UNL A   1     -24.973  -2.505  29.788  0.00  0.00    -0.019 C 
ATOM     27  C   UNL A   1     -23.906  -3.173  29.146  0.00  0.00    -0.004 C 
ATOM     28  C   UNL A   1     -23.989  -4.549  28.853  0.00  0.00    -0.000 C 
ATOM     29  C   UNL A   1     -25.137  -5.280  29.205  0.00  0.00    -0.000 C 
ATOM     30  C   UNL A   1     -26.232  -4.611  29.784  0.00  0.00    -0.000 C 
ATOM     31  C   UNL A   1     -26.155  -3.232  30.065  0.00  0.00    -0.004 C 
ENDBRANCH  25  26
BRANCH  25  32
ATOM     32  C   UNL A   1     -25.387  -0.679  31.571  0.00  0.00    +0.078 C 
ATOM     33  C   UNL A   1     -25.189   0.773  32.028  0.00  0.00    +0.019 C 
ATOM     34  C   UNL A   1     -25.336   0.684  33.544  0.00  0.00    +0.020 C 
ATOM     35  C   UNL A   1     -24.829  -0.715  33.905  0.00  0.00    +0.089 C 
ATOM     36  N   UNL A   1     -24.758  -1.481  32.646  0.00  0.00    -0.219 NA
ENDBRANCH  25  32
ENDBRANCH  24  25
BRANCH  24  37
ATOM     37  C   UNL A   1     -27.087  -0.090  28.420  0.00  0.00    +0.108 C 
BRANCH  37  39
ATOM     38  O   UNL A   1     -28.115   0.085  30.571  0.00  0.00    -0.273 OA
ATOM     39  C   UNL A   1     -28.150  -0.095  29.285  0.00  0.00    +0.250 C 
ATOM     40  C   UNL A   1     -30.405  -0.003  28.211  0.00  0.00    +0.248 C 
ATOM     41  N   UNL A   1     -29.273  -0.430  28.737  0.00  0.00    -0.145 NA
ATOM     42  O   UNL A   1     -30.838  -0.622  27.206  0.00  0.00    -0.273 OA
ATOM     43  C   UNL A   1     -31.290   1.052  28.844  0.00  0.00    +0.097 C 
ENDBRANCH  37  39
ENDBRANCH  24  37
ENDBRANCH   2  24
TORSDOF 11
