MODEL 4142
MODEL 1
REMARK VINA RESULT:    -5.849      0.000      0.000
REMARK INTER + INTRA:          -6.221
REMARK INTER:                  -6.191
REMARK INTRA:                  -0.030
REMARK UNBOUND:                -0.030
REMARK  Name = No_4142-gen_results/8p0m/2024-11-27-11-27-31/
REMARK  1 active torsions:
REMARK  status: ('A' for Active; 'I' for Inactive)
REMARK    1  A    between atoms: C_2  and  C_8
REMARK                            x       y       z     vdW  Elec       q    Type
REMARK                         _______ _______ _______ _____ _____    ______ ____
ROOT
ATOM      1  C   UNL A   1      -9.390  -9.279  19.801  0.00  0.00    +0.010 A 
ATOM      2  C   UNL A   1      -8.308  -9.759  19.552  0.00  0.00    +0.080 A 
ATOM      3  C   UNL A   1      -8.076 -10.614  18.493  0.00  0.00    +0.010 A 
ATOM      4  C   UNL A   1      -9.165 -10.912  17.626  0.00  0.00    +0.042 A 
ATOM      5  C   UNL A   1     -10.307 -10.220  17.844  0.00  0.00    +0.196 A 
ATOM      6  C   UNL A   1     -10.427  -9.388  18.862  0.00  0.00    +0.042 A 
ATOM      7  O   UNL A   1     -11.334 -10.463  16.983  0.00  0.00    -0.287 OA
ENDROOT
BRANCH   2   8
ATOM      8  C   UNL A   1      -7.097  -9.606  20.514  0.00  0.00    +0.388 C 
ATOM      9  O   UNL A   1      -6.203  -8.901  20.285  0.00  0.00    -0.241 OA
ATOM     10  O   UNL A   1      -6.929 -10.634  21.377  0.00  0.00    -0.241 OA
ENDBRANCH   2   8
TORSDOF 1
ENDMDL
ENDMDL
