MODEL 4143
MODEL 1
REMARK VINA RESULT:    -6.150      0.000      0.000
REMARK INTER + INTRA:          -6.150
REMARK INTER:                  -6.150
REMARK INTRA:                   0.000
REMARK UNBOUND:                 0.000
REMARK  Name = No_4143-gen_results/8p0m/2024-11-27-11-27-31/
REMARK  0 active torsions:
REMARK  status: ('A' for Active; 'I' for Inactive)
REMARK                            x       y       z     vdW  Elec       q    Type
REMARK                         _______ _______ _______ _____ _____    ______ ____
ROOT
ATOM      1  C   UNL A   1     -24.835   0.817  31.742  0.00  0.00    +0.019 A 
ATOM      2  C   UNL A   1     -24.298   0.917  30.663  0.00  0.00    +0.081 A 
ATOM      3  N   UNL A   1     -24.768   1.663  29.654  0.00  0.00    -0.245 NA
ATOM      4  C   UNL A   1     -24.178   1.821  28.354  0.00  0.00    +0.081 A 
ATOM      5  C   UNL A   1     -22.878   1.449  28.202  0.00  0.00    +0.014 A 
ATOM      6  C   UNL A   1     -22.223   1.601  26.978  0.00  0.00    +0.001 A 
ATOM      7  C   UNL A   1     -22.872   2.364  25.976  0.00  0.00    +0.000 A 
ATOM      8  C   UNL A   1     -24.168   2.807  26.143  0.00  0.00    +0.002 A 
ATOM      9  C   UNL A   1     -24.836   2.576  27.395  0.00  0.00    +0.019 A 
ATOM     10  C   UNL A   1     -24.585  -0.303  32.567  0.00  0.00    +0.002 A 
ATOM     11  C   UNL A   1     -23.401  -1.010  32.327  0.00  0.00    +0.000 A 
ATOM     12  C   UNL A   1     -22.674  -0.808  31.212  0.00  0.00    +0.001 A 
ATOM     13  C   UNL A   1     -23.128   0.104  30.240  0.00  0.00    +0.014 A 
ATOM     14  C   UNL A   1     -22.420   0.390  29.056  0.00  0.00    -0.019 A 
ATOM     15  C   UNL A   1     -21.152  -0.260  28.790  0.00  0.00    +0.031 C 
ENDROOT
TORSDOF 0
ENDMDL
ENDMDL
