REMARK  Name = outputs/IAG933/test6/raw/output_4143_IAG933_linker_design_.xyz
REMARK  9 active torsions:
REMARK  status: ('A' for Active; 'I' for Inactive)
REMARK    1  A    between atoms: C_1  and  C_2
REMARK    2  A    between atoms: C_1  and  C_8
REMARK    3  A    between atoms: C_1  and  N_32
REMARK    4  A    between atoms: C_13  and  N_29
REMARK    5  A    between atoms: C_14  and  C_15
REMARK    6  A    between atoms: C_21  and  O_22
REMARK    7  A    between atoms: O_22  and  C_23
REMARK    8  A    between atoms: C_23  and  C_24
REMARK    9  A    between atoms: C_28  and  N_32
REMARK                            x       y       z     vdW  Elec       q    Type
REMARK                         _______ _______ _______ _____ _____    ______ ____
ROOT
ATOM      1  C   UNL A   1     -24.379   0.983  28.948  0.00  0.00    +0.162 C 
ATOM      2  N   UNL A   1     -24.671   1.305  27.369  0.00  0.00    -0.268 N 
ATOM      3  C   UNL A   1     -22.782   0.615  29.114  0.00  0.00    +0.069 C 
ATOM      4  C   UNL A   1     -21.081   1.820  27.488  0.00  0.00    +0.037 C 
ATOM      5  C   UNL A   1     -23.140   1.644  25.562  0.00  0.00    +0.365 C 
ATOM      6  C   UNL A   1     -23.445   1.468  26.882  0.00  0.00    +0.102 C 
ATOM      7  F   UNL A   1     -23.921   1.150  24.627  0.00  0.00    -0.182 F 
ATOM      8  C   UNL A   1     -22.317   1.315  27.836  0.00  0.00    +0.000 C 
ATOM      9  C   UNL A   1     -20.929   2.269  26.163  0.00  0.00    +0.175 C 
ATOM     10  O   UNL A   1     -21.943   2.210  25.212  0.00  0.00    -0.442 OA
ENDROOT
BRANCH   2  11
ATOM     11  C   UNL A   1     -25.688   1.614  26.461  0.00  0.00    +0.091 C 
ATOM     12  C   UNL A   1     -26.250   2.920  26.395  0.00  0.00    +0.090 C 
ATOM     13  C   UNL A   1     -27.438   3.091  25.645  0.00  0.00    +0.108 C 
ATOM     14  N   UNL A   1     -28.075   2.089  25.003  0.00  0.00    -0.208 NA
ATOM     15  C   UNL A   1     -27.543   0.849  25.079  0.00  0.00    +0.255 C 
ATOM     16  C   UNL A   1     -26.354   0.576  25.777  0.00  0.00    +0.207 C 
ATOM     17  F   UNL A   1     -25.860  -0.681  25.795  0.00  0.00    -0.198 F 
BRANCH  12  18
ATOM     18  C   UNL A   1     -25.642   4.093  27.123  0.00  0.00    +0.268 C 
ATOM     19  N   UNL A   1     -25.614   5.252  26.449  0.00  0.00    -0.200 NA
ATOM     20  C   UNL A   1     -25.026   6.479  26.963  0.00  0.00    +0.139 C 
ATOM     21  O   UNL A   1     -25.143   3.966  28.243  0.00  0.00    -0.268 OA
ENDBRANCH  12  18
BRANCH  15  22
ATOM     22  O   UNL A   1     -28.193  -0.208  24.477  0.00  0.00    -0.456 OA
BRANCH  22  23
ATOM     23  C   UNL A   1     -29.460   0.005  23.866  0.00  0.00    +0.243 C 
BRANCH  23  24
ATOM     24  C   UNL A   1     -30.065  -1.377  23.573  0.00  0.00    +0.229 C 
ATOM     25  O   UNL A   1     -30.729  -1.878  24.721  0.00  0.00    -0.216 OA
ENDBRANCH  23  24
ENDBRANCH  22  23
ENDBRANCH  15  22
ENDBRANCH   2  11
BRANCH   1  26
ATOM     26  N   UNL A   1     -25.356   0.113  29.287  0.00  0.00    -0.243 N 
ATOM     27  C   UNL A   1     -26.668   0.373  29.221  0.00  0.00    +0.344 C 
ATOM     28  N   UNL A   1     -27.537  -0.550  28.853  0.00  0.00    -0.069 NA
ATOM     29  O   UNL A   1     -27.076   1.490  29.538  0.00  0.00    -0.249 OA
BRANCH  26  30
ATOM     30  C   UNL A   1     -24.855  -1.012  30.143  0.00  0.00    +0.117 C 
BRANCH  30  31
ATOM     31  C   UNL A   1     -24.973  -2.505  29.788  0.00  0.00    -0.003 C 
ATOM     32  C   UNL A   1     -23.906  -3.173  29.146  0.00  0.00    -0.003 C 
ATOM     33  C   UNL A   1     -23.989  -4.549  28.853  0.00  0.00    -0.000 C 
ATOM     34  C   UNL A   1     -25.137  -5.280  29.205  0.00  0.00    -0.000 C 
ATOM     35  C   UNL A   1     -26.232  -4.611  29.784  0.00  0.00    -0.000 C 
ATOM     36  C   UNL A   1     -26.155  -3.232  30.065  0.00  0.00    -0.003 C 
ENDBRANCH  30  31
BRANCH  30  37
ATOM     37  C   UNL A   1     -25.387  -0.679  31.571  0.00  0.00    +0.095 C 
ATOM     38  C   UNL A   1     -25.189   0.773  32.028  0.00  0.00    +0.021 C 
ATOM     39  C   UNL A   1     -25.336   0.684  33.544  0.00  0.00    +0.020 C 
ATOM     40  C   UNL A   1     -24.829  -0.715  33.905  0.00  0.00    +0.089 C 
ATOM     41  N   UNL A   1     -24.758  -1.481  32.646  0.00  0.00    -0.217 NA
ENDBRANCH  30  37
ENDBRANCH  26  30
ENDBRANCH   1  26
TORSDOF 9
