MODEL 4144
MODEL 1
REMARK VINA RESULT:    -6.887      0.000      0.000
REMARK INTER + INTRA:          -7.858
REMARK INTER:                  -8.095
REMARK INTRA:                   0.236
REMARK UNBOUND:                 0.236
REMARK  Name = No_4144-gen_results/8p0m/2024-11-27-11-27-31/
REMARK  3 active torsions:
REMARK  status: ('A' for Active; 'I' for Inactive)
REMARK    1  A    between atoms: C_9  and  C_10
REMARK    2  A    between atoms: C_11  and  C_13
REMARK    3  A    between atoms: C_11  and  C_14
REMARK                            x       y       z     vdW  Elec       q    Type
REMARK                         _______ _______ _______ _____ _____    ______ ____
ROOT
ATOM      1  C   UNL A   1     -27.500   1.081  27.826  0.00  0.00    -0.005 A 
ATOM      2  C   UNL A   1     -26.904   0.337  28.571  0.00  0.00    -0.025 A 
ATOM      3  C   UNL A   1     -25.819  -0.393  28.205  0.00  0.00    -0.015 A 
ATOM      4  C   UNL A   1     -25.355  -0.283  26.880  0.00  0.00    -0.004 A 
ATOM      5  C   UNL A   1     -27.024   1.315  26.487  0.00  0.00    -0.000 A 
ATOM      6  C   UNL A   1     -25.955   0.584  26.061  0.00  0.00    -0.000 A 
ATOM      7  C   UNL A   1     -27.305   0.143  30.023  0.00  0.00    +0.026 C 
ATOM      8  C   UNL A   1     -26.230   0.030  30.989  0.00  0.00    +0.007 C 
ATOM      9  C   UNL A   1     -25.253  -0.935  30.716  0.00  0.00    +0.035 C 
ATOM     10  C   UNL A   1     -24.931  -1.146  29.208  0.00  0.00    +0.105 C 
ENDROOT
BRANCH  10  11
ATOM     11  C   UNL A   1     -24.963  -2.717  29.061  0.00  0.00    -0.011 A 
ATOM     12  C   UNL A   1     -25.958  -3.376  29.546  0.00  0.00    -0.004 A 
ATOM     13  C   UNL A   1     -23.918  -3.419  28.498  0.00  0.00    -0.004 A 
ATOM     14  C   UNL A   1     -26.166  -4.663  29.751  0.00  0.00    -0.000 A 
ATOM     15  C   UNL A   1     -24.048  -4.890  28.534  0.00  0.00    -0.000 A 
ATOM     16  C   UNL A   1     -25.136  -5.480  29.072  0.00  0.00    -0.000 A 
ENDBRANCH  10  11
BRANCH  10  17
ATOM     17  C   UNL A   1     -23.369  -0.719  29.034  0.00  0.00    +0.237 C 
ATOM     18 CL   UNL A   1     -22.984   0.773  29.023  0.00  0.00    -0.042 Cl
ATOM     19  O   UNL A   1     -22.489  -1.646  28.871  0.00  0.00    -0.278 OA
ENDBRANCH  10  17
BRANCH   9  20
ATOM     20  C   UNL A   1     -24.277  -1.368  31.671  0.00  0.00    +0.110 C 
ATOM     21  N   UNL A   1     -23.885  -0.467  32.623  0.00  0.00    -0.131 NA
ENDBRANCH   9  20
TORSDOF 3
ENDMDL
ENDMDL
