REMARK  Name = No_4146-gen_results/8p0m/2024-11-27-11-27-31/
REMARK  2 active torsions:
REMARK  status: ('A' for Active; 'I' for Inactive)
REMARK    1  A    between atoms: C_3  and  C_7
REMARK    2  A    between atoms: C_6  and  N_10
REMARK                            x       y       z     vdW  Elec       q    Type
REMARK                         _______ _______ _______ _____ _____    ______ ____
ROOT
ATOM      1  C   UNL A   1     -28.016  -0.814  28.878  0.00  0.00    +0.107 A 
ATOM      2  N   UNL A   1     -27.188  -0.359  28.452  0.00  0.00    -0.229 NA
ATOM      3  C   UNL A   1     -28.106  -1.626  30.072  0.00  0.00    +0.099 A 
ATOM      4  C   UNL A   1     -26.794  -1.973  30.606  0.00  0.00    +0.011 A 
ATOM      5  C   UNL A   1     -25.639  -1.472  30.030  0.00  0.00    +0.035 A 
ATOM      6  C   UNL A   1     -25.838  -0.614  28.926  0.00  0.00    +0.132 A 
ENDROOT
BRANCH   6   7
ATOM      7  N   UNL A   1     -24.868   0.103  28.228  0.00  0.00    -0.293 N 
ATOM      8  C   UNL A   1     -23.588   0.059  28.775  0.00  0.00    +0.092 C 
ATOM      9  C   UNL A   1     -22.637   1.070  28.235  0.00  0.00    +0.021 C 
ATOM     10  C   UNL A   1     -23.045   1.803  27.110  0.00  0.00    +0.004 C 
ATOM     11  C   UNL A   1     -24.925   1.058  27.231  0.00  0.00    +0.092 C 
ATOM     12  C   UNL A   1     -24.149   1.854  26.704  0.00  0.00    +0.021 C 
ENDBRANCH   6   7
BRANCH   3  13
ATOM     13  C   UNL A   1     -29.256  -2.236  30.653  0.00  0.00    +0.389 C 
ATOM     14  O   UNL A   1     -29.476  -2.096  31.946  0.00  0.00    -0.240 OA
ATOM     15  O   UNL A   1     -29.792  -3.283  30.059  0.00  0.00    -0.240 OA
ENDBRANCH   3  13
TORSDOF 2
