MODEL 4146
MODEL 1
REMARK VINA RESULT:    -6.197      0.000      0.000
REMARK INTER + INTRA:          -7.174
REMARK INTER:                  -6.922
REMARK INTRA:                  -0.252
REMARK UNBOUND:                -0.252
REMARK  Name = No_4146-gen_results/8p0m/2024-11-27-11-27-31/
REMARK  2 active torsions:
REMARK  status: ('A' for Active; 'I' for Inactive)
REMARK    1  A    between atoms: C_3  and  C_7
REMARK    2  A    between atoms: C_6  and  N_10
REMARK                            x       y       z     vdW  Elec       q    Type
REMARK                         _______ _______ _______ _____ _____    ______ ____
ROOT
ATOM      1  C   UNL A   1     -24.323   0.086  27.692  0.00  0.00    +0.107 A 
ATOM      2  N   UNL A   1     -24.711  -0.810  28.042  0.00  0.00    -0.229 NA
ATOM      3  C   UNL A   1     -22.996   0.638  27.853  0.00  0.00    +0.099 A 
ATOM      4  C   UNL A   1     -22.191  -0.122  28.801  0.00  0.00    +0.011 A 
ATOM      5  C   UNL A   1     -22.681  -1.282  29.378  0.00  0.00    +0.035 A 
ATOM      6  C   UNL A   1     -23.979  -1.657  28.969  0.00  0.00    +0.132 A 
ENDROOT
BRANCH   6   7
ATOM      7  N   UNL A   1     -24.669  -2.819  29.309  0.00  0.00    -0.293 N 
ATOM      8  C   UNL A   1     -24.068  -4.008  28.900  0.00  0.00    +0.092 C 
ATOM      9  C   UNL A   1     -24.943  -5.211  28.965  0.00  0.00    +0.021 C 
ATOM     10  C   UNL A   1     -26.179  -5.075  29.615  0.00  0.00    +0.004 C 
ATOM     11  C   UNL A   1     -25.951  -3.067  29.760  0.00  0.00    +0.092 C 
ATOM     12  C   UNL A   1     -26.679  -4.049  29.903  0.00  0.00    +0.021 C 
ENDBRANCH   6   7
BRANCH   3  13
ATOM     13  C   UNL A   1     -22.474   1.867  27.354  0.00  0.00    +0.389 C 
ATOM     14  O   UNL A   1     -21.167   2.042  27.311  0.00  0.00    -0.240 OA
ATOM     15  O   UNL A   1     -23.226   2.948  27.404  0.00  0.00    -0.240 OA
ENDBRANCH   3  13
TORSDOF 2
ENDMDL
ENDMDL
