MODEL 4147
MODEL 1
REMARK VINA RESULT:    -5.523      0.000      0.000
REMARK INTER + INTRA:          -6.020
REMARK INTER:                  -6.169
REMARK INTRA:                   0.149
REMARK UNBOUND:                 0.149
REMARK  Name = No_4147-gen_results/8p0m/2024-11-27-11-27-31/
REMARK  2 active torsions:
REMARK  status: ('A' for Active; 'I' for Inactive)
REMARK    1  A    between atoms: C_3  and  C_11
REMARK    2  A    between atoms: C_6  and  C_7
REMARK                            x       y       z     vdW  Elec       q    Type
REMARK                         _______ _______ _______ _____ _____    ______ ____
ROOT
ATOM      1  O   UNL A   1     -28.734  -9.969  34.008  0.00  0.00    -0.273 OA
ATOM      2  C   UNL A   1     -28.651 -10.453  32.966  0.00  0.00    +0.253 C 
ATOM      3  C   UNL A   1     -28.216 -11.312  32.465  0.00  0.00    +0.182 C 
ATOM      4  N   UNL A   1     -29.640  -9.818  32.077  0.00  0.00    -0.187 NA
ATOM      5  C   UNL A   1     -29.805 -10.274  30.730  0.00  0.00    +0.196 C 
ATOM      6  C   UNL A   1     -29.094 -11.366  30.326  0.00  0.00    +0.142 C 
ATOM      7  C   UNL A   1     -28.268 -12.027  31.193  0.00  0.00    +0.035 C 
ATOM      8  N   UNL A   1     -30.678  -9.606  29.947  0.00  0.00    -0.108 NA
ENDROOT
BRANCH   6   9
ATOM      9  C   UNL A   1     -29.316 -11.935  28.965  0.00  0.00    +0.367 C 
ATOM     10  O   UNL A   1     -28.963 -11.657  28.043  0.00  0.00    -0.246 OA
ATOM     11  O   UNL A   1     -29.706 -13.312  29.113  0.00  0.00    -0.246 OA
ENDBRANCH   6   9
BRANCH   3  12
ATOM     12  C   UNL A   1     -27.218 -12.167  33.466  0.00  0.00    +0.373 C 
ATOM     13  O   UNL A   1     -27.383 -12.374  34.524  0.00  0.00    -0.245 OA
ATOM     14  O   UNL A   1     -26.401 -12.902  32.723  0.00  0.00    -0.245 OA
ENDBRANCH   3  12
TORSDOF 2
ENDMDL
ENDMDL
