REMARK  Name = No_4149-gen_results/8p0m/2024-11-27-11-27-31/
REMARK  1 active torsions:
REMARK  status: ('A' for Active; 'I' for Inactive)
REMARK    1  A    between atoms: C_3  and  C_7
REMARK                            x       y       z     vdW  Elec       q    Type
REMARK                         _______ _______ _______ _____ _____    ______ ____
ROOT
ATOM      1  C   UNL A   1     -28.016  -0.814  28.878  0.00  0.00    +0.064 A 
ATOM      2  C   UNL A   1     -27.064  -0.119  28.608  0.00  0.00    +0.012 A 
ATOM      3  C   UNL A   1     -25.765  -0.390  29.036  0.00  0.00    +0.001 A 
ATOM      4  C   UNL A   1     -25.530  -1.530  29.901  0.00  0.00    +0.001 A 
ATOM      5  C   UNL A   1     -26.689  -2.289  30.181  0.00  0.00    +0.007 A 
ATOM      6  C   UNL A   1     -27.873  -1.951  29.737  0.00  0.00    +0.045 A 
ATOM      7 BR   UNL A   1     -29.363  -2.992  30.246  0.00  0.00    -0.048 Br
ATOM      8 CL   UNL A   1     -29.610  -0.400  28.348  0.00  0.00    -0.082 Cl
ENDROOT
BRANCH   3   9
ATOM      9  C   UNL A   1     -24.549   0.410  28.734  0.00  0.00    +0.001 A 
ATOM     10  C   UNL A   1     -24.479   1.187  27.684  0.00  0.00    +0.011 A 
ATOM     11  C   UNL A   1     -23.283   1.836  27.352  0.00  0.00    +0.058 A 
ATOM     12  C   UNL A   1     -22.103   1.662  28.035  0.00  0.00    +0.011 A 
ATOM     13  C   UNL A   1     -23.324   0.153  29.473  0.00  0.00    +0.000 A 
ATOM     14  C   UNL A   1     -22.117   0.813  29.107  0.00  0.00    +0.001 A 
ATOM     15 CL   UNL A   1     -23.304   2.941  26.001  0.00  0.00    -0.082 Cl
ENDBRANCH   3   9
TORSDOF 1
