MODEL 414
MODEL 1
REMARK VINA RESULT:    -5.409      0.000      0.000
REMARK INTER + INTRA:          -8.369
REMARK INTER:                  -7.622
REMARK INTRA:                  -0.747
REMARK UNBOUND:                -0.747
REMARK  Name = No_414-gen_results/8p0m/2024-11-27-11-27-31/
REMARK  7 active torsions:
REMARK  status: ('A' for Active; 'I' for Inactive)
REMARK    1  A    between atoms: C_1  and  C_2
REMARK    2  A    between atoms: C_1  and  C_8
REMARK    3  A    between atoms: C_5  and  C_11
REMARK    4  A    between atoms: N_10  and  C_15
REMARK    5  A    between atoms: N_10  and  C_16
REMARK    6  A    between atoms: C_15  and  C_17
REMARK    7  A    between atoms: C_16  and  C_20
REMARK                            x       y       z     vdW  Elec       q    Type
REMARK                         _______ _______ _______ _____ _____    ______ ____
ROOT
ATOM      1  C   UNL A   1     -28.807 -11.847  29.744  0.00  0.00    +0.112 C 
ENDROOT
BRANCH   1   2
ATOM      2  C   UNL A   1     -29.602 -11.179  29.123  0.00  0.00    -0.013 A 
ATOM      3  C   UNL A   1     -30.289 -10.095  29.667  0.00  0.00    -0.004 A 
ATOM      4  C   UNL A   1     -31.280  -9.236  28.990  0.00  0.00    +0.004 A 
ATOM      5  C   UNL A   1     -31.393  -9.412  27.577  0.00  0.00    +0.071 A 
ATOM      6  C   UNL A   1     -30.634 -10.462  27.002  0.00  0.00    +0.004 A 
ATOM      7  C   UNL A   1     -29.815 -11.258  27.692  0.00  0.00    -0.004 A 
BRANCH   5   8
ATOM      8  C   UNL A   1     -32.330  -8.564  26.874  0.00  0.00    +0.419 C 
ATOM      9  F   UNL A   1     -32.998  -9.110  26.072  0.00  0.00    -0.166 F 
ATOM     10  F   UNL A   1     -31.693  -7.531  26.152  0.00  0.00    -0.166 F 
ATOM     11  F   UNL A   1     -33.134  -7.915  27.740  0.00  0.00    -0.166 F 
ENDBRANCH   5   8
ENDBRANCH   1   2
BRANCH   1  12
ATOM     12  C   UNL A   1     -29.470 -12.935  30.569  0.00  0.00    +0.231 C 
ATOM     13  O   UNL A   1     -30.074 -13.767  30.185  0.00  0.00    -0.275 OA
ATOM     14  N   UNL A   1     -29.252 -12.735  32.010  0.00  0.00    -0.265 N 
BRANCH  14  15
ATOM     15  C   UNL A   1     -28.523 -11.770  32.623  0.00  0.00    +0.209 C 
BRANCH  15  16
ATOM     16  C   UNL A   1     -27.473 -12.406  33.110  0.00  0.00    +0.385 C 
ATOM     17  O   UNL A   1     -26.448 -12.691  32.406  0.00  0.00    -0.244 OA
ATOM     18  O   UNL A   1     -27.176 -12.277  34.495  0.00  0.00    -0.244 OA
ENDBRANCH  15  16
ENDBRANCH  14  15
BRANCH  14  19
ATOM     19  C   UNL A   1     -29.921 -13.735  32.935  0.00  0.00    +0.120 C 
BRANCH  19  20
ATOM     20  C   UNL A   1     -30.653 -13.324  33.492  0.00  0.00    -0.005 C 
ATOM     21  C   UNL A   1     -30.925 -13.826  34.643  0.00  0.00    -0.003 C 
ENDBRANCH  19  20
ENDBRANCH  14  19
ENDBRANCH   1  12
TORSDOF 7
ENDMDL
ENDMDL
