REMARK  Name = No_415-gen_results/8p0m/2024-11-27-11-27-31/
REMARK  4 active torsions:
REMARK  status: ('A' for Active; 'I' for Inactive)
REMARK    1  A    between atoms: C_3  and  C_7
REMARK    2  A    between atoms: C_8  and  N_11
REMARK    3  A    between atoms: N_17  and  C_18
REMARK    4  A    between atoms: C_19  and  C_20
REMARK                            x       y       z     vdW  Elec       q    Type
REMARK                         _______ _______ _______ _____ _____    ______ ____
ROOT
ATOM      1  C   UNL A   1     -25.696   1.950  28.476  0.00  0.00    +0.011 A 
ATOM      2  C   UNL A   1     -24.939   2.540  29.069  0.00  0.00    +0.072 A 
ATOM      3  C   UNL A   1     -25.521   1.995  27.002  0.00  0.00    -0.021 A 
ATOM      4  C   UNL A   1     -26.323   1.303  26.081  0.00  0.00    +0.031 C 
ATOM      5  C   UNL A   1     -24.392   2.732  26.472  0.00  0.00    -0.004 A 
ATOM      6  C   UNL A   1     -23.452   3.348  27.192  0.00  0.00    +0.001 A 
ATOM      7  C   UNL A   1     -23.711   3.271  28.600  0.00  0.00    +0.017 A 
ENDROOT
BRANCH   1  10
ATOM      8  C   UNL A   1     -28.016  -0.814  28.878  0.00  0.00    +0.042 A 
ATOM      9  C   UNL A   1     -27.064  -0.119  28.608  0.00  0.00    +0.003 A 
ATOM     10  C   UNL A   1     -26.876   1.133  28.913  0.00  0.00    +0.001 A 
ATOM     11  C   UNL A   1     -27.901   1.807  29.644  0.00  0.00    +0.003 A 
ATOM     12  C   UNL A   1     -28.945   1.039  30.036  0.00  0.00    +0.042 A 
ATOM     13  C   UNL A   1     -29.027  -0.289  29.705  0.00  0.00    +0.196 A 
ATOM     14  O   UNL A   1     -30.038  -1.098  30.106  0.00  0.00    -0.287 OA
ENDBRANCH   1  10
BRANCH   2  15
ATOM     15  N   UNL A   1     -24.910   2.493  30.448  0.00  0.00    -0.192 NA
ATOM     16  C   UNL A   1     -24.744   2.460  31.555  0.00  0.00    +0.186 C 
ATOM     17  N   UNL A   1     -25.684   2.670  32.320  0.00  0.00    -0.225 NA
BRANCH  17  18
ATOM     18  C   UNL A   1     -26.315   1.680  33.136  0.00  0.00    +0.101 C 
ATOM     19  C   UNL A   1     -27.374   2.102  33.999  0.00  0.00    +0.021 C 
BRANCH  19  20
ATOM     20  C   UNL A   1     -27.700   3.458  33.990  0.00  0.00    +0.002 C 
ATOM     21  C   UNL A   1     -27.019   4.431  33.334  0.00  0.00    +0.000 C 
ENDBRANCH  19  20
ENDBRANCH  17  18
ENDBRANCH   2  15
TORSDOF 4
