MODEL 4151
MODEL 1
REMARK VINA RESULT:    -6.418      0.000      0.000
REMARK INTER + INTRA:          -6.923
REMARK INTER:                  -6.793
REMARK INTRA:                  -0.130
REMARK UNBOUND:                -0.130
REMARK  Name = No_4151-gen_results/8p0m/2024-11-27-11-27-31/
REMARK  1 active torsions:
REMARK  status: ('A' for Active; 'I' for Inactive)
REMARK    1  A    between atoms: C_9  and  C_11
REMARK                            x       y       z     vdW  Elec       q    Type
REMARK                         _______ _______ _______ _____ _____    ______ ____
ROOT
ATOM      1  C   UNL A   1     -26.418  -3.486  29.942  0.00  0.00    +0.037 A 
ATOM      2  C   UNL A   1     -25.571  -2.690  29.606  0.00  0.00    +0.142 A 
ATOM      3  C   UNL A   1     -24.389  -3.036  29.036  0.00  0.00    +0.017 A 
ATOM      4  C   UNL A   1     -24.125  -4.401  28.821  0.00  0.00    -0.001 A 
ATOM      5  C   UNL A   1     -26.256  -4.890  29.664  0.00  0.00    +0.003 A 
ATOM      6  C   UNL A   1     -25.073  -5.292  29.120  0.00  0.00    -0.000 A 
ATOM      7  O   UNL A   1     -25.760  -1.313  29.768  0.00  0.00    -0.451 OA
ATOM      8  C   UNL A   1     -24.775  -0.367  29.704  0.00  0.00    +0.179 C 
ATOM      9  C   UNL A   1     -23.608  -0.564  29.262  0.00  0.00    +0.091 C 
ATOM     10  C   UNL A   1     -23.347  -2.039  28.945  0.00  0.00    +0.063 C 
ENDROOT
BRANCH   9  11
ATOM     11  C   UNL A   1     -22.649   0.436  29.101  0.00  0.00    +0.418 C 
ATOM     12  F   UNL A   1     -22.693   1.415  29.401  0.00  0.00    -0.166 F 
ATOM     13  F   UNL A   1     -21.351  -0.113  29.481  0.00  0.00    -0.166 F 
ATOM     14  F   UNL A   1     -22.280   0.535  27.711  0.00  0.00    -0.166 F 
ENDBRANCH   9  11
TORSDOF 1
ENDMDL
ENDMDL
