REMARK  Name = No_4151-gen_results/8p0m/2024-11-27-11-27-31/
REMARK  1 active torsions:
REMARK  status: ('A' for Active; 'I' for Inactive)
REMARK    1  A    between atoms: C_9  and  C_11
REMARK                            x       y       z     vdW  Elec       q    Type
REMARK                         _______ _______ _______ _____ _____    ______ ____
ROOT
ATOM      1  C   UNL A   1     -28.016  -0.814  28.878  0.00  0.00    +0.037 A 
ATOM      2  C   UNL A   1     -27.064  -0.119  28.608  0.00  0.00    +0.142 A 
ATOM      3  C   UNL A   1     -26.929   1.171  29.008  0.00  0.00    +0.017 A 
ATOM      4  C   UNL A   1     -27.956   1.741  29.784  0.00  0.00    -0.001 A 
ATOM      5  C   UNL A   1     -29.057  -0.327  29.747  0.00  0.00    +0.003 A 
ATOM      6  C   UNL A   1     -28.983   0.972  30.152  0.00  0.00    -0.000 A 
ATOM      7  O   UNL A   1     -25.991  -0.612  27.857  0.00  0.00    -0.451 OA
ATOM      8  C   UNL A   1     -25.031   0.153  27.254  0.00  0.00    +0.179 C 
ATOM      9  C   UNL A   1     -24.835   1.381  27.478  0.00  0.00    +0.091 C 
ATOM     10  C   UNL A   1     -25.905   1.983  28.393  0.00  0.00    +0.063 C 
ENDROOT
BRANCH   9  11
ATOM     11  C   UNL A   1     -23.783   2.120  26.938  0.00  0.00    +0.418 C 
ATOM     12  F   UNL A   1     -23.276   1.961  26.062  0.00  0.00    -0.166 F 
ATOM     13  F   UNL A   1     -24.128   3.536  27.029  0.00  0.00    -0.166 F 
ATOM     14  F   UNL A   1     -22.726   2.242  27.911  0.00  0.00    -0.166 F 
ENDBRANCH   9  11
TORSDOF 1
