MODEL 4152
MODEL 1
REMARK VINA RESULT:    -6.741      0.000      0.000
REMARK INTER + INTRA:          -8.964
REMARK INTER:                  -7.923
REMARK INTRA:                  -1.041
REMARK UNBOUND:                -1.041
REMARK  Name = No_4152-gen_results/8p0m/2024-11-27-11-27-31/
REMARK  3 active torsions:
REMARK  status: ('A' for Active; 'I' for Inactive)
REMARK    1  A    between atoms: N_4  and  C_8
REMARK    2  A    between atoms: C_6  and  C_20
REMARK    3  A    between atoms: C_7  and  C_14
REMARK                            x       y       z     vdW  Elec       q    Type
REMARK                         _______ _______ _______ _____ _____    ______ ____
ROOT
ATOM      1  O   UNL A   1     -21.437  -1.082  29.272  0.00  0.00    -0.275 OA
ATOM      2  C   UNL A   1     -21.941  -0.239  28.669  0.00  0.00    +0.230 C 
ATOM      3  C   UNL A   1     -21.203   0.651  27.915  0.00  0.00    +0.086 C 
ATOM      4  N   UNL A   1     -23.381  -0.184  28.435  0.00  0.00    -0.256 N 
ATOM      5  C   UNL A   1     -21.827   1.929  27.633  0.00  0.00    +0.023 C 
ATOM      6  C   UNL A   1     -23.256   1.900  27.424  0.00  0.00    +0.127 C 
ATOM      7  C   UNL A   1     -23.984   0.943  28.053  0.00  0.00    +0.113 C 
ENDROOT
BRANCH   4   8
ATOM      8  C   UNL A   1     -24.099  -1.211  29.158  0.00  0.00    +0.054 A 
ATOM      9  C   UNL A   1     -24.755  -0.690  30.295  0.00  0.00    +0.015 A 
ATOM     10  C   UNL A   1     -25.884  -1.218  30.667  0.00  0.00    +0.001 A 
ATOM     11  C   UNL A   1     -26.297  -2.537  30.181  0.00  0.00    +0.000 A 
ATOM     12  C   UNL A   1     -25.616  -3.040  29.070  0.00  0.00    +0.001 A 
ATOM     13  C   UNL A   1     -24.535  -2.333  28.434  0.00  0.00    +0.015 A 
ENDBRANCH   4   8
BRANCH   7  14
ATOM     14  C   UNL A   1     -25.214   0.538  27.197  0.00  0.00    -0.003 A 
ATOM     15  C   UNL A   1     -26.290   0.797  27.440  0.00  0.00    -0.003 A 
ATOM     16  C   UNL A   1     -24.864   0.141  25.874  0.00  0.00    -0.003 A 
ATOM     17  C   UNL A   1     -25.923  -0.263  25.004  0.00  0.00    -0.000 A 
ATOM     18  C   UNL A   1     -27.504   0.419  26.689  0.00  0.00    -0.000 A 
ATOM     19  C   UNL A   1     -27.225  -0.059  25.405  0.00  0.00    -0.000 A 
ENDBRANCH   7  14
BRANCH   6  20
ATOM     20  C   UNL A   1     -23.841   3.108  26.728  0.00  0.00    +0.366 C 
ATOM     21  O   UNL A   1     -23.565   3.399  25.542  0.00  0.00    -0.246 OA
ATOM     22  O   UNL A   1     -24.460   4.053  27.453  0.00  0.00    -0.246 OA
ENDBRANCH   6  20
TORSDOF 3
ENDMDL
ENDMDL
