MODEL 4153
MODEL 1
REMARK VINA RESULT:    -5.574      0.000      0.000
REMARK INTER + INTRA:          -6.425
REMARK INTER:                  -6.226
REMARK INTRA:                  -0.199
REMARK UNBOUND:                -0.199
REMARK  Name = No_4153-gen_results/8p0m/2024-11-27-11-27-31/
REMARK  2 active torsions:
REMARK  status: ('A' for Active; 'I' for Inactive)
REMARK    1  A    between atoms: N_4  and  C_5
REMARK    2  A    between atoms: C_5  and  C_6
REMARK                            x       y       z     vdW  Elec       q    Type
REMARK                         _______ _______ _______ _____ _____    ______ ____
ROOT
ATOM      1  C   UNL A   1     -24.671  -2.636  28.984  0.00  0.00    -0.001 A 
ATOM      2  C   UNL A   1     -24.010  -3.391  28.678  0.00  0.00    -0.003 A 
ATOM      3  C   UNL A   1     -24.059  -4.827  28.589  0.00  0.00    -0.000 A 
ATOM      4  C   UNL A   1     -25.280  -5.360  29.108  0.00  0.00    -0.000 A 
ATOM      5  C   UNL A   1     -26.188  -4.513  29.681  0.00  0.00    -0.000 A 
ATOM      6  C   UNL A   1     -25.957  -3.171  29.697  0.00  0.00    -0.003 A 
ENDROOT
BRANCH   1   7
ATOM      7  C   UNL A   1     -24.598  -1.217  29.165  0.00  0.00    +0.142 C 
BRANCH   7  11
ATOM      8  O   UNL A   1     -22.254  -0.535  30.360  0.00  0.00    -0.261 OA
ATOM      9  C   UNL A   1     -22.229  -0.311  29.235  0.00  0.00    +0.300 C 
ATOM     10 BR   UNL A   1     -21.199   0.189  28.524  0.00  0.00    +0.016 Br
ATOM     11  N   UNL A   1     -23.415  -0.700  28.570  0.00  0.00    -0.191 NA
ENDBRANCH   7  11
ENDBRANCH   1   7
TORSDOF 2
ENDMDL
ENDMDL
