REMARK  Name = outputs/IAG933/test6/raw/output_4153_IAG933_linker_design_.xyz
REMARK  10 active torsions:
REMARK  status: ('A' for Active; 'I' for Inactive)
REMARK    1  A    between atoms: C_1  and  C_2
REMARK    2  A    between atoms: C_1  and  C_8
REMARK    3  A    between atoms: C_1  and  C_46
REMARK    4  A    between atoms: C_13  and  C_37
REMARK    5  A    between atoms: C_14  and  C_15
REMARK    6  A    between atoms: C_21  and  O_22
REMARK    7  A    between atoms: O_22  and  C_23
REMARK    8  A    between atoms: C_23  and  C_24
REMARK    9  A    between atoms: C_34  and  O_47
REMARK   10  A    between atoms: N_41  and  O_47
REMARK                            x       y       z     vdW  Elec       q    Type
REMARK                         _______ _______ _______ _____ _____    ______ ____
ROOT
ATOM      1 CL   UNL A   1     -22.804   2.338  25.629  0.00  0.00    -0.080 Cl
ATOM      2  F   UNL A   1     -21.120   1.500  28.008  0.00  0.00    -0.203 F 
ATOM      3  C   UNL A   1     -25.046   0.853  28.611  0.00  0.00    +0.170 C 
ATOM      4  C   UNL A   1     -24.648   1.346  27.411  0.00  0.00    +0.052 C 
ATOM      5  C   UNL A   1     -22.795   0.119  28.984  0.00  0.00    +0.030 C 
ATOM      6  C   UNL A   1     -23.297   1.577  27.108  0.00  0.00    +0.088 C 
ATOM      7  C   UNL A   1     -22.398   1.063  28.040  0.00  0.00    +0.150 C 
ATOM      8  C   UNL A   1     -24.184  -0.038  29.243  0.00  0.00    +0.022 C 
ENDROOT
BRANCH   4   9
ATOM      9  C   UNL A   1     -25.688   1.614  26.461  0.00  0.00    +0.042 C 
ATOM     10  C   UNL A   1     -26.250   2.920  26.395  0.00  0.00    +0.077 C 
ATOM     11  C   UNL A   1     -27.438   3.091  25.645  0.00  0.00    +0.107 C 
ATOM     12  N   UNL A   1     -28.075   2.089  25.003  0.00  0.00    -0.208 NA
ATOM     13  C   UNL A   1     -27.543   0.849  25.079  0.00  0.00    +0.253 C 
ATOM     14  C   UNL A   1     -26.354   0.576  25.777  0.00  0.00    +0.193 C 
ATOM     15  F   UNL A   1     -25.860  -0.681  25.795  0.00  0.00    -0.199 F 
BRANCH  10  16
ATOM     16  C   UNL A   1     -25.642   4.093  27.123  0.00  0.00    +0.266 C 
ATOM     17  N   UNL A   1     -25.614   5.252  26.449  0.00  0.00    -0.200 NA
ATOM     18  C   UNL A   1     -25.026   6.479  26.963  0.00  0.00    +0.139 C 
ATOM     19  O   UNL A   1     -25.143   3.966  28.243  0.00  0.00    -0.268 OA
ENDBRANCH  10  16
BRANCH  13  20
ATOM     20  O   UNL A   1     -28.193  -0.208  24.477  0.00  0.00    -0.456 OA
BRANCH  20  21
ATOM     21  C   UNL A   1     -29.460   0.005  23.866  0.00  0.00    +0.243 C 
BRANCH  21  22
ATOM     22  C   UNL A   1     -30.065  -1.377  23.573  0.00  0.00    +0.229 C 
ATOM     23  O   UNL A   1     -30.729  -1.878  24.721  0.00  0.00    -0.216 OA
ENDBRANCH  21  22
ENDBRANCH  20  21
ENDBRANCH  13  20
ENDBRANCH   4   9
BRANCH   8  24
ATOM     24  C   UNL A   1     -24.855  -1.012  30.143  0.00  0.00    +0.064 C 
BRANCH  24  25
ATOM     25  C   UNL A   1     -24.973  -2.505  29.788  0.00  0.00    -0.017 C 
ATOM     26  C   UNL A   1     -23.906  -3.173  29.146  0.00  0.00    -0.004 C 
ATOM     27  C   UNL A   1     -23.989  -4.549  28.853  0.00  0.00    -0.000 C 
ATOM     28  C   UNL A   1     -25.137  -5.280  29.205  0.00  0.00    -0.000 C 
ATOM     29  C   UNL A   1     -26.232  -4.611  29.784  0.00  0.00    -0.000 C 
ATOM     30  C   UNL A   1     -26.155  -3.232  30.065  0.00  0.00    -0.004 C 
ENDBRANCH  24  25
BRANCH  24  31
ATOM     31  C   UNL A   1     -25.387  -0.679  31.571  0.00  0.00    +0.081 C 
ATOM     32  C   UNL A   1     -25.189   0.773  32.028  0.00  0.00    +0.019 C 
ATOM     33  C   UNL A   1     -25.336   0.684  33.544  0.00  0.00    +0.020 C 
ATOM     34  C   UNL A   1     -24.829  -0.715  33.905  0.00  0.00    +0.089 C 
ATOM     35  N   UNL A   1     -24.758  -1.481  32.646  0.00  0.00    -0.219 NA
ENDBRANCH  24  31
ENDBRANCH   8  24
BRANCH   3  36
ATOM     36  O   UNL A   1     -26.217   1.192  29.393  0.00  0.00    -0.376 OA
BRANCH  36  45
ATOM     37  N   UNL A   1     -27.612   4.577  32.098  0.00  0.00    -0.279 N 
ATOM     38  C   UNL A   1     -28.105   4.168  30.776  0.00  0.00    +0.124 C 
ATOM     39  C   UNL A   1     -25.086   2.990  31.011  0.00  0.00    +0.113 C 
ATOM     40  C   UNL A   1     -26.265   4.430  32.671  0.00  0.00    +0.091 C 
ATOM     41  C   UNL A   1     -27.564   2.785  30.375  0.00  0.00    +0.166 C 
ATOM     42  O   UNL A   1     -27.201   4.645  34.904  0.00  0.00    -0.445 OA
ATOM     43  C   UNL A   1     -28.303   5.247  34.303  0.00  0.00    +0.196 C 
ATOM     44  C   UNL A   1     -28.589   5.122  32.892  0.00  0.00    +0.107 C 
ATOM     45  N   UNL A   1     -26.165   2.339  30.383  0.00  0.00    -0.192 N 
ATOM     46  C   UNL A   1     -25.031   4.018  31.973  0.00  0.00    +0.040 C 
ATOM     47  C   UNL A   1     -26.097   4.458  34.112  0.00  0.00    +0.194 C 
ENDBRANCH  36  45
ENDBRANCH   3  36
TORSDOF 10
