MODEL 4154
MODEL 1
REMARK VINA RESULT:    -5.500      0.000      0.000
REMARK INTER + INTRA:          -6.783
REMARK INTER:                  -6.465
REMARK INTRA:                  -0.318
REMARK UNBOUND:                -0.318
REMARK  Name = No_4154-gen_results/8p0m/2024-11-27-11-27-31/
REMARK  3 active torsions:
REMARK  status: ('A' for Active; 'I' for Inactive)
REMARK    1  A    between atoms: C_4  and  C_7
REMARK    2  A    between atoms: C_7  and  C_8
REMARK    3  A    between atoms: C_8  and  C_9
REMARK                            x       y       z     vdW  Elec       q    Type
REMARK                         _______ _______ _______ _____ _____    ______ ____
ROOT
ATOM      1  C   UNL A   1     -26.218  -4.491  29.688  0.00  0.00    -0.000 A 
ATOM      2  C   UNL A   1     -25.480  -5.135  29.301  0.00  0.00    -0.000 A 
ATOM      3  C   UNL A   1     -25.861  -3.021  29.693  0.00  0.00    -0.004 A 
ATOM      4  C   UNL A   1     -24.668  -2.598  29.071  0.00  0.00    -0.021 A 
ATOM      5  C   UNL A   1     -24.200  -4.955  28.578  0.00  0.00    -0.000 A 
ATOM      6  C   UNL A   1     -23.842  -3.615  28.557  0.00  0.00    -0.004 A 
ENDROOT
BRANCH   4   7
ATOM      7  C   UNL A   1     -24.272  -1.231  29.061  0.00  0.00    +0.041 C 
BRANCH   7   8
ATOM      8  C   UNL A   1     -22.993  -0.969  29.633  0.00  0.00    +0.096 C 
ATOM      9  C   UNL A   1     -23.141  -0.832  31.186  0.00  0.00    +0.017 C 
BRANCH   8  10
ATOM     10  C   UNL A   1     -21.937  -0.632  29.130  0.00  0.00    +0.072 C 
ATOM     11  N   UNL A   1     -20.906  -0.789  28.851  0.00  0.00    -0.196 NA
ENDBRANCH   8  10
ENDBRANCH   7   8
ENDBRANCH   4   7
TORSDOF 3
ENDMDL
ENDMDL
