MODEL 4155
MODEL 1
REMARK VINA RESULT:    -4.584      0.000      0.000
REMARK INTER + INTRA:          -4.584
REMARK INTER:                  -4.584
REMARK INTRA:                   0.000
REMARK UNBOUND:                 0.000
REMARK  Name = No_4155-gen_results/8p0m/2024-11-27-11-27-31/
REMARK  0 active torsions:
REMARK  status: ('A' for Active; 'I' for Inactive)
REMARK                            x       y       z     vdW  Elec       q    Type
REMARK                         _______ _______ _______ _____ _____    ______ ____
ROOT
ATOM      1  C   UNL A   1      -9.467  -9.164  20.235  0.00  0.00    +0.030 A 
ATOM      2  C   UNL A   1     -10.322  -9.185  19.380  0.00  0.00    +0.002 A 
ATOM      3  C   UNL A   1     -10.151  -9.921  18.212  0.00  0.00    +0.000 A 
ATOM      4  C   UNL A   1      -8.931 -10.645  17.965  0.00  0.00    +0.002 A 
ATOM      5  C   UNL A   1      -7.987 -10.547  18.995  0.00  0.00    +0.030 A 
ATOM      6  C   UNL A   1      -8.190  -9.824  20.072  0.00  0.00    +0.140 A 
ATOM      7  F   UNL A   1      -7.253  -9.779  21.000  0.00  0.00    -0.204 F 
ENDROOT
TORSDOF 0
ENDMDL
ENDMDL
