MODEL 4156
MODEL 1
REMARK VINA RESULT:    -6.146      0.000      0.000
REMARK INTER + INTRA:          -8.548
REMARK INTER:                  -7.943
REMARK INTRA:                  -0.606
REMARK UNBOUND:                -0.606
REMARK  Name = No_4156-gen_results/8p0m/2024-11-27-11-27-31/
REMARK  5 active torsions:
REMARK  status: ('A' for Active; 'I' for Inactive)
REMARK    1  A    between atoms: C_3  and  C_11
REMARK    2  A    between atoms: C_6  and  C_18
REMARK    3  A    between atoms: C_11  and  N_12
REMARK    4  A    between atoms: N_15  and  C_21
REMARK    5  A    between atoms: C_21  and  C_22
REMARK                            x       y       z     vdW  Elec       q    Type
REMARK                         _______ _______ _______ _____ _____    ______ ____
ROOT
ATOM      1  C   UNL A   1      -6.253   2.082  34.704  0.00  0.00    -0.000 A 
ATOM      2  C   UNL A   1      -6.226   0.874  34.664  0.00  0.00    -0.001 A 
ATOM      3  C   UNL A   1      -7.334   0.048  34.754  0.00  0.00    +0.013 A 
ATOM      4  C   UNL A   1      -7.324  -1.394  34.790  0.00  0.00    -0.001 A 
ATOM      5  C   UNL A   1      -6.079  -2.064  34.723  0.00  0.00    +0.004 A 
ATOM      6  C   UNL A   1      -4.909  -1.232  34.661  0.00  0.00    +0.050 A 
ATOM      7  C   UNL A   1      -4.939   0.135  34.655  0.00  0.00    +0.004 A 
ATOM      8  C   UNL A   1      -5.008   2.869  34.420  0.00  0.00    -0.000 A 
ATOM      9  C   UNL A   1      -3.751   2.210  34.562  0.00  0.00    +0.000 A 
ATOM     10  C   UNL A   1      -3.705   0.850  34.569  0.00  0.00    +0.000 A 
ENDROOT
BRANCH   6  11
ATOM     11  C   UNL A   1      -3.594  -2.003  34.613  0.00  0.00    +0.254 C 
ATOM     12 CL   UNL A   1      -3.038  -2.425  33.495  0.00  0.00    -0.038 Cl
ATOM     13  O   UNL A   1      -3.149  -2.277  35.920  0.00  0.00    -0.274 OA
ENDBRANCH   6  11
BRANCH   3  14
ATOM     14  C   UNL A   1      -8.617   0.399  35.184  0.00  0.00    +0.198 C 
ATOM     15 CL   UNL A   1      -9.823   1.017  34.106  0.00  0.00    -0.086 Cl
BRANCH  14  16
ATOM     16  N   UNL A   1      -9.042   0.113  36.240  0.00  0.00    -0.169 NA
ATOM     17  C   UNL A   1      -8.916   0.910  37.314  0.00  0.00    +0.325 C 
ATOM     18  N   UNL A   1      -9.289   0.454  38.559  0.00  0.00    -0.261 N 
ATOM     19  O   UNL A   1      -8.755   2.182  37.204  0.00  0.00    -0.251 OA
ATOM     20  C   UNL A   1      -9.180   1.196  39.793  0.00  0.00    +0.117 C 
BRANCH  18  21
ATOM     21  C   UNL A   1      -9.700  -0.907  38.773  0.00  0.00    +0.095 C 
BRANCH  21  22
ATOM     22  C   UNL A   1     -11.097  -1.149  38.769  0.00  0.00    +0.018 C 
ATOM     23  C   UNL A   1     -11.452  -2.074  37.776  0.00  0.00    +0.002 C 
ATOM     24  C   UNL A   1     -11.860   0.107  38.551  0.00  0.00    +0.002 C 
ATOM     25  C   UNL A   1     -11.539  -1.780  40.130  0.00  0.00    +0.002 C 
ENDBRANCH  21  22
ENDBRANCH  18  21
ENDBRANCH  14  16
ENDBRANCH   3  14
TORSDOF 5
ENDMDL
ENDMDL
