REMARK  Name = outputs/IAG933/test6/raw/output_4156_IAG933_linker_design_.xyz
REMARK  15 active torsions:
REMARK  status: ('A' for Active; 'I' for Inactive)
REMARK    1  A    between atoms: C_1  and  C_2
REMARK    2  A    between atoms: C_1  and  C_8
REMARK    3  A    between atoms: C_1  and  C_35
REMARK    4  A    between atoms: C_13  and  C_30
REMARK    5  A    between atoms: C_14  and  C_15
REMARK    6  A    between atoms: C_21  and  O_22
REMARK    7  A    between atoms: O_22  and  C_23
REMARK    8  A    between atoms: C_23  and  C_24
REMARK    9  A    between atoms: C_28  and  C_43
REMARK   10  A    between atoms: C_31  and  O_32
REMARK   11  A    between atoms: C_31  and  C_35
REMARK   12  A    between atoms: O_32  and  C_43
REMARK   13  A    between atoms: N_33  and  C_35
REMARK   14  A    between atoms: C_37  and  O_38
REMARK   15  A    between atoms: C_37  and  N_42
REMARK                            x       y       z     vdW  Elec       q    Type
REMARK                         _______ _______ _______ _____ _____    ______ ____
ROOT
ATOM      1  C   UNL A   1     -25.295  -0.060  28.963  0.00  0.00    +0.112 C 
ENDROOT
BRANCH   1   3
ATOM      2  C   UNL A   1     -24.353   1.456  27.098  0.00  0.00    +0.057 C 
ATOM      3  N   UNL A   1     -24.310   0.884  28.468  0.00  0.00    -0.283 N 
ATOM      4  C   UNL A   1     -23.057   1.787  26.646  0.00  0.00    +0.046 C 
ATOM      5  C   UNL A   1     -22.166   1.410  27.701  0.00  0.00    +0.156 C 
ATOM      6  F   UNL A   1     -20.804   1.365  27.614  0.00  0.00    -0.203 F 
ATOM      7  C   UNL A   1     -22.868   0.884  28.792  0.00  0.00    +0.096 C 
BRANCH   2   8
ATOM      8  C   UNL A   1     -25.688   1.614  26.461  0.00  0.00    +0.052 C 
ATOM      9  C   UNL A   1     -26.250   2.920  26.395  0.00  0.00    +0.078 C 
ATOM     10  C   UNL A   1     -27.438   3.091  25.645  0.00  0.00    +0.107 C 
ATOM     11  N   UNL A   1     -28.075   2.089  25.003  0.00  0.00    -0.208 NA
ATOM     12  C   UNL A   1     -27.543   0.849  25.079  0.00  0.00    +0.253 C 
ATOM     13  C   UNL A   1     -26.354   0.576  25.777  0.00  0.00    +0.194 C 
ATOM     14  F   UNL A   1     -25.860  -0.681  25.795  0.00  0.00    -0.199 F 
BRANCH   9  15
ATOM     15  C   UNL A   1     -25.642   4.093  27.123  0.00  0.00    +0.267 C 
ATOM     16  N   UNL A   1     -25.614   5.252  26.449  0.00  0.00    -0.200 NA
ATOM     17  C   UNL A   1     -25.026   6.479  26.963  0.00  0.00    +0.139 C 
ATOM     18  O   UNL A   1     -25.143   3.966  28.243  0.00  0.00    -0.268 OA
ENDBRANCH   9  15
BRANCH  12  19
ATOM     19  O   UNL A   1     -28.193  -0.208  24.477  0.00  0.00    -0.456 OA
BRANCH  19  20
ATOM     20  C   UNL A   1     -29.460   0.005  23.866  0.00  0.00    +0.243 C 
BRANCH  20  21
ATOM     21  C   UNL A   1     -30.065  -1.377  23.573  0.00  0.00    +0.229 C 
ATOM     22  O   UNL A   1     -30.729  -1.878  24.721  0.00  0.00    -0.216 OA
ENDBRANCH  20  21
ENDBRANCH  19  20
ENDBRANCH  12  19
ENDBRANCH   2   8
ENDBRANCH   1   3
BRANCH   1  23
ATOM     23  C   UNL A   1     -24.855  -1.012  30.143  0.00  0.00    +0.059 C 
BRANCH  23  24
ATOM     24  C   UNL A   1     -24.973  -2.505  29.788  0.00  0.00    -0.019 C 
ATOM     25  C   UNL A   1     -23.906  -3.173  29.146  0.00  0.00    -0.004 C 
ATOM     26  C   UNL A   1     -23.989  -4.549  28.853  0.00  0.00    -0.000 C 
ATOM     27  C   UNL A   1     -25.137  -5.280  29.205  0.00  0.00    -0.000 C 
ATOM     28  C   UNL A   1     -26.232  -4.611  29.784  0.00  0.00    -0.000 C 
ATOM     29  C   UNL A   1     -26.155  -3.232  30.065  0.00  0.00    -0.004 C 
ENDBRANCH  23  24
BRANCH  23  30
ATOM     30  C   UNL A   1     -25.387  -0.679  31.571  0.00  0.00    +0.079 C 
ATOM     31  C   UNL A   1     -25.189   0.773  32.028  0.00  0.00    +0.019 C 
ATOM     32  C   UNL A   1     -25.336   0.684  33.544  0.00  0.00    +0.020 C 
ATOM     33  C   UNL A   1     -24.829  -0.715  33.905  0.00  0.00    +0.089 C 
ATOM     34  N   UNL A   1     -24.758  -1.481  32.646  0.00  0.00    -0.219 NA
ENDBRANCH  23  30
ENDBRANCH   1  23
BRANCH   1  35
ATOM     35  C   UNL A   1     -26.605   0.714  29.211  0.00  0.00    +0.163 C 
BRANCH  35  36
ATOM     36  O   UNL A   1     -26.364   2.076  29.521  0.00  0.00    -0.343 OA
BRANCH  36  37
ATOM     37  C   UNL A   1     -27.335   2.840  30.281  0.00  0.00    +0.229 C 
BRANCH  37  38
ATOM     38  C   UNL A   1     -26.942   4.262  30.653  0.00  0.00    +0.275 C 
ATOM     39  O   UNL A   1     -27.716   5.226  30.448  0.00  0.00    -0.271 OA
ATOM     40  N   UNL A   1     -25.732   4.427  31.225  0.00  0.00    -0.158 NA
BRANCH  40  42
ATOM     41  N   UNL A   1     -26.931   5.759  32.912  0.00  0.00    -0.077 NA
ATOM     42  C   UNL A   1     -25.696   5.585  32.153  0.00  0.00    +0.311 C 
BRANCH  42  44
ATOM     43  C   UNL A   1     -24.944   4.202  33.953  0.00  0.00    +0.178 C 
ATOM     44  O   UNL A   1     -24.679   5.338  33.095  0.00  0.00    -0.319 OA
ENDBRANCH  42  44
ENDBRANCH  40  42
ENDBRANCH  37  38
ENDBRANCH  36  37
ENDBRANCH  35  36
ENDBRANCH   1  35
TORSDOF 15
