MODEL 4157
MODEL 1
REMARK VINA RESULT:    -6.901      0.000      0.000
REMARK INTER + INTRA:          -8.777
REMARK INTER:                  -8.111
REMARK INTRA:                  -0.666
REMARK UNBOUND:                -0.666
REMARK  Name = No_4157-gen_results/8p0m/2024-11-27-11-27-31/
REMARK  3 active torsions:
REMARK  status: ('A' for Active; 'I' for Inactive)
REMARK    1  A    between atoms: C_1  and  C_2
REMARK    2  A    between atoms: C_1  and  C_3
REMARK    3  A    between atoms: C_2  and  C_6
REMARK                            x       y       z     vdW  Elec       q    Type
REMARK                         _______ _______ _______ _____ _____    ______ ____
ROOT
ATOM      1  C   UNL A   1     -23.769  -1.327  29.643  0.00  0.00    +0.045 C 
ATOM      2  C   UNL A   1     -24.260  -1.103  31.031  0.00  0.00    +0.007 C 
ENDROOT
BRANCH   1   3
ATOM      3  C   UNL A   1     -24.371  -2.721  29.325  0.00  0.00    +0.059 A 
ATOM      4  C   UNL A   1     -25.528  -3.081  29.825  0.00  0.00    +0.015 A 
ATOM      5  C   UNL A   1     -26.001  -4.451  29.640  0.00  0.00    +0.003 A 
ATOM      6  C   UNL A   1     -25.185  -5.327  28.961  0.00  0.00    +0.021 A 
ATOM      7  C   UNL A   1     -23.995  -4.898  28.468  0.00  0.00    +0.098 A 
ATOM      8  N   UNL A   1     -23.655  -3.644  28.718  0.00  0.00    -0.248 NA
ENDBRANCH   1   3
BRANCH   1   9
ATOM      9  C   UNL A   1     -22.865  -1.092  29.156  0.00  0.00    +0.032 C 
BRANCH   9  10
ATOM     10  C   UNL A   1     -22.926   0.138  28.367  0.00  0.00    -0.022 A 
ATOM     11  C   UNL A   1     -21.907   0.786  28.131  0.00  0.00    -0.004 A 
ATOM     12  C   UNL A   1     -21.813   1.872  27.204  0.00  0.00    -0.000 A 
ATOM     13  C   UNL A   1     -22.896   2.129  26.347  0.00  0.00    -0.000 A 
ATOM     14  C   UNL A   1     -24.020   1.329  26.467  0.00  0.00    -0.000 A 
ATOM     15  C   UNL A   1     -24.012   0.283  27.363  0.00  0.00    -0.004 A 
ENDBRANCH   9  10
ENDBRANCH   1   9
TORSDOF 3
ENDMDL
ENDMDL
