REMARK  Name = No_4157-gen_results/8p0m/2024-11-27-11-27-31/
REMARK  3 active torsions:
REMARK  status: ('A' for Active; 'I' for Inactive)
REMARK    1  A    between atoms: C_1  and  C_2
REMARK    2  A    between atoms: C_1  and  C_3
REMARK    3  A    between atoms: C_2  and  C_6
REMARK                            x       y       z     vdW  Elec       q    Type
REMARK                         _______ _______ _______ _____ _____    ______ ____
ROOT
ATOM      1  C   UNL A   1     -28.469  -0.785  29.829  0.00  0.00    +0.045 C 
ATOM      2  C   UNL A   1     -27.964  -0.418  31.181  0.00  0.00    +0.007 C 
ENDROOT
BRANCH   1   3
ATOM      3  C   UNL A   1     -29.420  -1.964  30.165  0.00  0.00    +0.059 A 
ATOM      4  C   UNL A   1     -29.545  -2.393  31.397  0.00  0.00    +0.015 A 
ATOM      5  C   UNL A   1     -30.324  -3.600  31.667  0.00  0.00    +0.003 A 
ATOM      6  C   UNL A   1     -30.878  -4.261  30.595  0.00  0.00    +0.021 A 
ATOM      7  C   UNL A   1     -30.712  -3.771  29.339  0.00  0.00    +0.098 A 
ATOM      8  N   UNL A   1     -29.965  -2.687  29.209  0.00  0.00    -0.248 NA
ENDBRANCH   1   3
BRANCH   1   9
ATOM      9  C   UNL A   1     -28.016  -0.814  28.878  0.00  0.00    +0.032 C 
BRANCH   9  10
ATOM     10  C   UNL A   1     -27.087   0.290  28.638  0.00  0.00    -0.022 A 
ATOM     11  C   UNL A   1     -26.024   0.364  29.253  0.00  0.00    -0.004 A 
ATOM     12  C   UNL A   1     -24.954   1.266  28.953  0.00  0.00    -0.000 A 
ATOM     13  C   UNL A   1     -25.009   2.012  27.764  0.00  0.00    -0.000 A 
ATOM     14  C   UNL A   1     -26.121   1.856  26.953  0.00  0.00    -0.000 A 
ATOM     15  C   UNL A   1     -27.088   0.940  27.301  0.00  0.00    -0.004 A 
ENDBRANCH   9  10
ENDBRANCH   1   9
TORSDOF 3
