MODEL 4158
MODEL 1
REMARK VINA RESULT:    -6.375      0.000      0.000
REMARK INTER + INTRA:          -6.747
REMARK INTER:                  -6.748
REMARK INTRA:                   0.001
REMARK UNBOUND:                 0.001
REMARK  Name = No_4158-gen_results/8p0m/2024-11-27-11-27-31/
REMARK  1 active torsions:
REMARK  status: ('A' for Active; 'I' for Inactive)
REMARK    1  A    between atoms: C_11  and  C_12
REMARK                            x       y       z     vdW  Elec       q    Type
REMARK                         _______ _______ _______ _____ _____    ______ ____
ROOT
ATOM      1  C   UNL A   1     -22.690  -1.082  29.355  0.00  0.00    +0.030 A 
ATOM      2  C   UNL A   1     -22.374  -0.187  28.897  0.00  0.00    +0.002 A 
ATOM      3  C   UNL A   1     -23.907  -1.651  28.918  0.00  0.00    +0.140 A 
ATOM      4  C   UNL A   1     -24.678  -1.063  27.935  0.00  0.00    +0.030 A 
ATOM      5  C   UNL A   1     -22.996   0.633  27.839  0.00  0.00    +0.000 A 
ATOM      6  C   UNL A   1     -24.166   0.123  27.393  0.00  0.00    +0.006 A 
ATOM      7  F   UNL A   1     -24.366  -2.812  29.426  0.00  0.00    -0.204 F 
ATOM      8  C   UNL A   1     -22.420   1.883  27.283  0.00  0.00    -0.000 A 
ATOM      9  C   UNL A   1     -22.740   2.174  26.110  0.00  0.00    -0.000 A 
ATOM     10  C   UNL A   1     -24.062   1.687  25.536  0.00  0.00    +0.004 A 
ATOM     11  C   UNL A   1     -24.662   0.567  26.071  0.00  0.00    +0.071 A 
ENDROOT
BRANCH  11  12
ATOM     12  C   UNL A   1     -25.855   0.025  25.463  0.00  0.00    +0.419 C 
ATOM     13  F   UNL A   1     -25.609  -1.137  24.986  0.00  0.00    -0.166 F 
ATOM     14  F   UNL A   1     -26.286   0.776  24.406  0.00  0.00    -0.166 F 
ATOM     15  F   UNL A   1     -26.817   0.030  26.364  0.00  0.00    -0.166 F 
ENDBRANCH  11  12
TORSDOF 1
ENDMDL
ENDMDL
