MODEL 4159
MODEL 1
REMARK VINA RESULT:    -4.893      0.000      0.000
REMARK INTER + INTRA:          -5.466
REMARK INTER:                  -5.465
REMARK INTRA:                  -0.000
REMARK UNBOUND:                -0.000
REMARK  Name = No_4159-gen_results/8p0m/2024-11-27-11-27-31/
REMARK  2 active torsions:
REMARK  status: ('A' for Active; 'I' for Inactive)
REMARK    1  A    between atoms: C_3  and  C_8
REMARK    2  A    between atoms: C_9  and  C_10
REMARK                            x       y       z     vdW  Elec       q    Type
REMARK                         _______ _______ _______ _____ _____    ______ ____
ROOT
ATOM      1  O   UNL A   1     -26.685 -12.761  33.849  0.00  0.00    -0.273 OA
ATOM      2  C   UNL A   1     -27.328 -11.705  33.890  0.00  0.00    +0.245 C 
ATOM      3  C   UNL A   1     -28.509 -11.536  33.423  0.00  0.00    +0.100 C 
ATOM      4  N   UNL A   1     -26.799 -10.573  34.625  0.00  0.00    -0.205 NA
ATOM      5  C   UNL A   1     -29.277 -10.309  33.438  0.00  0.00    +0.015 C 
ATOM      6  C   UNL A   1     -27.461  -9.343  34.747  0.00  0.00    +0.115 C 
ATOM      7  C   UNL A   1     -28.707  -9.208  34.148  0.00  0.00    +0.024 C 
ENDROOT
BRANCH   3   8
ATOM      8  C   UNL A   1     -29.187 -12.639  32.679  0.00  0.00    -0.017 C 
ATOM      9  C   UNL A   1     -29.234 -12.707  31.506  0.00  0.00    -0.004 C 
BRANCH   9  10
ATOM     10  C   UNL A   1     -28.536 -11.696  30.622  0.00  0.00    -0.000 C 
ATOM     11  C   UNL A   1     -28.927 -11.496  29.503  0.00  0.00    -0.000 C 
ENDBRANCH   9  10
ENDBRANCH   3   8
TORSDOF 2
ENDMDL
ENDMDL
