MODEL 415
MODEL 1
REMARK VINA RESULT:    -7.061      0.000      0.000
REMARK INTER + INTRA:          -9.363
REMARK INTER:                  -8.712
REMARK INTRA:                  -0.650
REMARK UNBOUND:                -0.650
REMARK  Name = No_415-gen_results/8p0m/2024-11-27-11-27-31/
REMARK  4 active torsions:
REMARK  status: ('A' for Active; 'I' for Inactive)
REMARK    1  A    between atoms: C_3  and  C_7
REMARK    2  A    between atoms: C_8  and  N_11
REMARK    3  A    between atoms: N_17  and  C_18
REMARK    4  A    between atoms: C_19  and  C_20
REMARK                            x       y       z     vdW  Elec       q    Type
REMARK                         _______ _______ _______ _____ _____    ______ ____
ROOT
ATOM      1  C   UNL A   1     -23.942  -0.352  28.105  0.00  0.00    +0.011 A 
ATOM      2  C   UNL A   1     -24.047   0.227  27.142  0.00  0.00    +0.072 A 
ATOM      3  C   UNL A   1     -22.835   0.088  28.991  0.00  0.00    -0.021 A 
ATOM      4  C   UNL A   1     -22.552  -0.465  30.250  0.00  0.00    +0.031 C 
ATOM      5  C   UNL A   1     -22.039   1.225  28.575  0.00  0.00    -0.004 A 
ATOM      6  C   UNL A   1     -22.235   1.956  27.476  0.00  0.00    +0.001 A 
ATOM      7  C   UNL A   1     -23.308   1.450  26.672  0.00  0.00    +0.017 A 
ENDROOT
BRANCH   1  10
ATOM      8  C   UNL A   1     -26.486  -2.302  29.810  0.00  0.00    +0.042 A 
ATOM      9  C   UNL A   1     -25.844  -1.415  29.297  0.00  0.00    +0.003 A 
ATOM     10  C   UNL A   1     -24.719  -1.514  28.650  0.00  0.00    +0.001 A 
ATOM     11  C   UNL A   1     -24.132  -2.809  28.517  0.00  0.00    +0.003 A 
ATOM     12  C   UNL A   1     -24.864  -3.839  29.006  0.00  0.00    +0.042 A 
ATOM     13  C   UNL A   1     -26.067  -3.634  29.631  0.00  0.00    +0.196 A 
ATOM     14  O   UNL A   1     -26.844  -4.640  30.103  0.00  0.00    -0.287 OA
ENDBRANCH   1  10
BRANCH   2  15
ATOM     15  N   UNL A   1     -25.101   0.004  26.280  0.00  0.00    -0.192 NA
ATOM     16  C   UNL A   1     -25.895  -0.302  25.551  0.00  0.00    +0.186 C 
ATOM     17  N   UNL A   1     -26.961   0.312  25.516  0.00  0.00    -0.225 NA
BRANCH  17  18
ATOM     18  C   UNL A   1     -27.373   1.181  24.458  0.00  0.00    +0.101 C 
ATOM     19  C   UNL A   1     -28.525   0.808  23.698  0.00  0.00    +0.021 C 
BRANCH  19  20
ATOM     20  C   UNL A   1     -29.152  -0.390  24.040  0.00  0.00    +0.002 C 
ATOM     21  C   UNL A   1     -29.108  -1.539  23.320  0.00  0.00    +0.000 C 
ENDBRANCH  19  20
ENDBRANCH  17  18
ENDBRANCH   2  15
TORSDOF 4
ENDMDL
ENDMDL
