MODEL 4160
MODEL 1
REMARK VINA RESULT:    -6.782      0.000      0.000
REMARK INTER + INTRA:          -7.899
REMARK INTER:                  -7.574
REMARK INTRA:                  -0.325
REMARK UNBOUND:                -0.325
REMARK  Name = No_4160-gen_results/8p0m/2024-11-27-11-27-31/
REMARK  2 active torsions:
REMARK  status: ('A' for Active; 'I' for Inactive)
REMARK    1  A    between atoms: C_3  and  C_19
REMARK    2  A    between atoms: C_5  and  C_10
REMARK                            x       y       z     vdW  Elec       q    Type
REMARK                         _______ _______ _______ _____ _____    ______ ____
ROOT
ATOM      1  C   UNL A   1     -10.366   3.200   9.506  0.00  0.00    +0.121 C 
ATOM      2  C   UNL A   1      -9.454   2.406   9.494  0.00  0.00    -0.002 A 
ATOM      3  C   UNL A   1      -9.109   1.692  10.636  0.00  0.00    +0.069 A 
ATOM      4  C   UNL A   1      -8.004   0.697  10.751  0.00  0.00    +0.012 A 
ATOM      5  C   UNL A   1      -7.352   0.344   9.533  0.00  0.00    +0.097 A 
ATOM      6  C   UNL A   1      -7.758   1.038   8.375  0.00  0.00    +0.004 A 
ATOM      7  C   UNL A   1      -8.727   1.965   8.345  0.00  0.00    -0.019 A 
ATOM      8  N   UNL A   1     -10.177   4.323   8.751  0.00  0.00    -0.285 N 
ATOM      9  C   UNL A   1     -10.963   5.406   8.972  0.00  0.00    +0.065 C 
ATOM     10  C   UNL A   1     -10.791   6.235   9.842  0.00  0.00    +0.016 C 
ATOM     11  C   UNL A   1      -9.505   6.151  10.538  0.00  0.00    +0.001 C 
ATOM     12  C   UNL A   1      -8.421   6.260   9.850  0.00  0.00    +0.001 C 
ATOM     13  C   UNL A   1      -8.288   5.361   8.693  0.00  0.00    +0.011 C 
ATOM     14  C   UNL A   1      -9.023   4.350   8.376  0.00  0.00    +0.033 C 
ATOM     15  C   UNL A   1      -8.205   3.055   8.185  0.00  0.00    +0.067 C 
ENDROOT
BRANCH   3  16
ATOM     16  C   UNL A   1      -9.678   1.986  11.975  0.00  0.00    +0.418 C 
ATOM     17  F   UNL A   1     -10.693   2.286  12.175  0.00  0.00    -0.166 F 
ATOM     18  F   UNL A   1      -9.328   0.841  12.776  0.00  0.00    -0.166 F 
ATOM     19  F   UNL A   1      -8.929   3.051  12.520  0.00  0.00    -0.166 F 
ENDBRANCH   3  16
BRANCH   5  20
ATOM     20  C   UNL A   1      -6.312  -0.650   9.625  0.00  0.00    +0.477 C 
ATOM     21  N   UNL A   1      -5.968  -1.184  10.815  0.00  0.00    +0.205 NA
ATOM     22  N   UNL A   1      -5.940  -1.267   8.487  0.00  0.00    +0.205 NA
ENDBRANCH   5  20
TORSDOF 2
ENDMDL
ENDMDL
