REMARK  Name = outputs/IAG933/test6/raw/output_4160_IAG933_linker_design_.xyz
REMARK  13 active torsions:
REMARK  status: ('A' for Active; 'I' for Inactive)
REMARK    1  A    between atoms: C_1  and  C_2
REMARK    2  A    between atoms: C_1  and  C_8
REMARK    3  A    between atoms: C_1  and  C_31
REMARK    4  A    between atoms: C_13  and  C_46
REMARK    5  A    between atoms: C_14  and  C_15
REMARK    6  A    between atoms: C_21  and  O_22
REMARK    7  A    between atoms: O_22  and  C_23
REMARK    8  A    between atoms: C_23  and  C_24
REMARK    9  A    between atoms: C_28  and  C_31
REMARK   10  A    between atoms: C_28  and  C_33
REMARK   11  A    between atoms: C_31  and  C_45
REMARK   12  A    between atoms: O_32  and  C_34
REMARK   13  A    between atoms: C_33  and  C_43
REMARK                            x       y       z     vdW  Elec       q    Type
REMARK                         _______ _______ _______ _____ _____    ______ ____
ROOT
ATOM      1  C   UNL A   1     -25.610  -0.211  29.030  0.00  0.00    +0.006 C 
ENDROOT
BRANCH   1   5
ATOM      2  C   UNL A   1     -22.855   1.157  26.942  0.00  0.00    +0.119 C 
ATOM      3  C   UNL A   1     -22.082   1.095  28.258  0.00  0.00    +0.030 C 
ATOM      4  C   UNL A   1     -23.086   0.146  28.986  0.00  0.00    +0.003 C 
ATOM      5  C   UNL A   1     -24.530   0.847  28.706  0.00  0.00    +0.007 C 
ATOM      6  C   UNL A   1     -24.370   1.384  27.240  0.00  0.00    +0.052 C 
BRANCH   6   7
ATOM      7  C   UNL A   1     -25.688   1.614  26.461  0.00  0.00    +0.018 C 
ATOM      8  C   UNL A   1     -26.250   2.920  26.395  0.00  0.00    +0.073 C 
ATOM      9  C   UNL A   1     -27.438   3.091  25.645  0.00  0.00    +0.106 C 
ATOM     10  N   UNL A   1     -28.075   2.089  25.003  0.00  0.00    -0.208 NA
ATOM     11  C   UNL A   1     -27.543   0.849  25.079  0.00  0.00    +0.253 C 
ATOM     12  C   UNL A   1     -26.354   0.576  25.777  0.00  0.00    +0.189 C 
ATOM     13  F   UNL A   1     -25.860  -0.681  25.795  0.00  0.00    -0.200 F 
BRANCH   8  14
ATOM     14  C   UNL A   1     -25.642   4.093  27.123  0.00  0.00    +0.266 C 
ATOM     15  N   UNL A   1     -25.614   5.252  26.449  0.00  0.00    -0.200 NA
ATOM     16  C   UNL A   1     -25.026   6.479  26.963  0.00  0.00    +0.139 C 
ATOM     17  O   UNL A   1     -25.143   3.966  28.243  0.00  0.00    -0.268 OA
ENDBRANCH   8  14
BRANCH  11  18
ATOM     18  O   UNL A   1     -28.193  -0.208  24.477  0.00  0.00    -0.456 OA
BRANCH  18  19
ATOM     19  C   UNL A   1     -29.460   0.005  23.866  0.00  0.00    +0.243 C 
BRANCH  19  20
ATOM     20  C   UNL A   1     -30.065  -1.377  23.573  0.00  0.00    +0.229 C 
ATOM     21  O   UNL A   1     -30.729  -1.878  24.721  0.00  0.00    -0.216 OA
ENDBRANCH  19  20
ENDBRANCH  18  19
ENDBRANCH  11  18
ENDBRANCH   6   7
BRANCH   2  23
ATOM     22  C   UNL A   1     -22.824   2.310  24.883  0.00  0.00    +0.174 C 
ATOM     23  O   UNL A   1     -22.282   2.225  26.185  0.00  0.00    -0.353 OA
ENDBRANCH   2  23
ENDBRANCH   1   5
BRANCH   1  24
ATOM     24  C   UNL A   1     -24.855  -1.012  30.143  0.00  0.00    +0.038 C 
BRANCH  24  25
ATOM     25  C   UNL A   1     -24.973  -2.505  29.788  0.00  0.00    -0.021 C 
ATOM     26  C   UNL A   1     -23.906  -3.173  29.146  0.00  0.00    -0.004 C 
ATOM     27  C   UNL A   1     -23.989  -4.549  28.853  0.00  0.00    -0.000 C 
ATOM     28  C   UNL A   1     -25.137  -5.280  29.205  0.00  0.00    -0.000 C 
ATOM     29  C   UNL A   1     -26.232  -4.611  29.784  0.00  0.00    -0.000 C 
ATOM     30  C   UNL A   1     -26.155  -3.232  30.065  0.00  0.00    -0.004 C 
ENDBRANCH  24  25
BRANCH  24  31
ATOM     31  C   UNL A   1     -25.387  -0.679  31.571  0.00  0.00    +0.077 C 
ATOM     32  C   UNL A   1     -25.189   0.773  32.028  0.00  0.00    +0.019 C 
ATOM     33  C   UNL A   1     -25.336   0.684  33.544  0.00  0.00    +0.020 C 
ATOM     34  C   UNL A   1     -24.829  -0.715  33.905  0.00  0.00    +0.089 C 
ATOM     35  N   UNL A   1     -24.758  -1.481  32.646  0.00  0.00    -0.219 NA
ENDBRANCH  24  31
ENDBRANCH   1  24
BRANCH   1  36
ATOM     36  C   UNL A   1     -27.038   0.423  29.343  0.00  0.00    +0.010 C 
BRANCH  36  37
ATOM     37  C   UNL A   1     -28.372  -0.284  28.770  0.00  0.00    +0.086 C 
BRANCH  37  45
ATOM     38  C   UNL A   1     -31.900   1.970  28.791  0.00  0.00    +0.101 C 
ATOM     39  O   UNL A   1     -30.225   1.950  31.034  0.00  0.00    -0.275 OA
ATOM     40  C   UNL A   1     -31.662   3.463  28.503  0.00  0.00    +0.022 C 
ATOM     41  O   UNL A   1     -30.164  -0.193  27.241  0.00  0.00    -0.275 OA
ATOM     42  C   UNL A   1     -30.449   3.842  27.613  0.00  0.00    +0.002 C 
ATOM     43  C   UNL A   1     -29.065   3.511  28.288  0.00  0.00    +0.010 C 
ATOM     44  C   UNL A   1     -29.789   2.014  29.804  0.00  0.00    +0.231 C 
ATOM     45  C   UNL A   1     -29.767   0.282  28.259  0.00  0.00    +0.231 C 
ATOM     46  N   UNL A   1     -30.490   1.306  28.958  0.00  0.00    -0.230 N 
ATOM     47  C   UNL A   1     -28.752   2.509  29.128  0.00  0.00    +0.086 C 
ENDBRANCH  37  45
ENDBRANCH  36  37
ENDBRANCH   1  36
TORSDOF 13
