MODEL 4161
MODEL 1
REMARK VINA RESULT:    -6.558      0.000      0.000
REMARK INTER + INTRA:         -10.434
REMARK INTER:                  -9.241
REMARK INTRA:                  -1.192
REMARK UNBOUND:                -1.192
REMARK  Name = No_4161-gen_results/8p0m/2024-11-27-11-27-31/
REMARK  7 active torsions:
REMARK  status: ('A' for Active; 'I' for Inactive)
REMARK    1  A    between atoms: C_1  and  C_2
REMARK    2  A    between atoms: C_4  and  C_13
REMARK    3  A    between atoms: C_5  and  C_10
REMARK    4  A    between atoms: C_13  and  N_14
REMARK    5  A    between atoms: N_14  and  C_15
REMARK    6  A    between atoms: C_16  and  C_17
REMARK    7  A    between atoms: C_18  and  C_19
REMARK                            x       y       z     vdW  Elec       q    Type
REMARK                         _______ _______ _______ _____ _____    ______ ____
ROOT
ATOM      1  C   UNL A   1     -24.848  -3.618  29.366  0.00  0.00    +0.043 A 
ATOM      2  C   UNL A   1     -23.849  -2.830  29.646  0.00  0.00    -0.001 A 
ATOM      3  C   UNL A   1     -23.937  -1.502  30.302  0.00  0.00    +0.006 A 
ATOM      4  C   UNL A   1     -25.245  -1.033  30.608  0.00  0.00    +0.077 A 
ATOM      5  C   UNL A   1     -26.304  -1.834  30.261  0.00  0.00    +0.006 A 
ATOM      6  C   UNL A   1     -26.182  -3.035  29.649  0.00  0.00    +0.001 A 
ENDROOT
BRANCH   1   7
ATOM      7  C   UNL A   1     -24.810  -4.702  28.831  0.00  0.00    +0.341 C 
ATOM      8  F   UNL A   1     -24.979  -5.637  29.630  0.00  0.00    -0.193 F 
ATOM      9  F   UNL A   1     -23.548  -4.933  28.192  0.00  0.00    -0.193 F 
ENDBRANCH   1   7
BRANCH   4  10
ATOM     10  C   UNL A   1     -25.456   0.252  31.224  0.00  0.00    +0.388 C 
ATOM     11  O   UNL A   1     -25.532   1.296  30.618  0.00  0.00    -0.241 OA
ATOM     12  O   UNL A   1     -26.050   0.202  32.487  0.00  0.00    -0.241 OA
ENDBRANCH   4  10
BRANCH   3  13
ATOM     13  C   UNL A   1     -22.770  -0.670  30.628  0.00  0.00    +0.139 C 
BRANCH  13  14
ATOM     14  N   UNL A   1     -21.974  -0.540  29.613  0.00  0.00    -0.232 NA
BRANCH  14  15
ATOM     15  C   UNL A   1     -22.306  -0.114  28.476  0.00  0.00    +0.081 C 
ATOM     16  C   UNL A   1     -21.800   1.054  28.133  0.00  0.00    +0.017 C 
BRANCH  16  17
ATOM     17  C   UNL A   1     -22.316   1.803  27.000  0.00  0.00    +0.001 C 
ATOM     18  C   UNL A   1     -23.728   1.782  26.755  0.00  0.00    -0.000 C 
BRANCH  18  19
ATOM     19  C   UNL A   1     -24.284   1.613  25.543  0.00  0.00    -0.005 C 
ATOM     20  C   UNL A   1     -25.048   0.446  25.303  0.00  0.00    -0.026 C 
ATOM     21  C   UNL A   1     -25.426  -0.262  26.431  0.00  0.00    +0.031 C 
ENDBRANCH  18  19
ENDBRANCH  16  17
ENDBRANCH  14  15
ENDBRANCH  13  14
ENDBRANCH   3  13
TORSDOF 7
ENDMDL
ENDMDL
