REMARK  Name = No_4161-gen_results/8p0m/2024-11-27-11-27-31/
REMARK  7 active torsions:
REMARK  status: ('A' for Active; 'I' for Inactive)
REMARK    1  A    between atoms: C_1  and  C_2
REMARK    2  A    between atoms: C_4  and  C_13
REMARK    3  A    between atoms: C_5  and  C_10
REMARK    4  A    between atoms: C_13  and  N_14
REMARK    5  A    between atoms: N_14  and  C_15
REMARK    6  A    between atoms: C_16  and  C_17
REMARK    7  A    between atoms: C_18  and  C_19
REMARK                            x       y       z     vdW  Elec       q    Type
REMARK                         _______ _______ _______ _____ _____    ______ ____
ROOT
ATOM      1  C   UNL A   1     -27.064  -0.119  28.608  0.00  0.00    +0.043 A 
ATOM      2  C   UNL A   1     -26.876   1.133  28.913  0.00  0.00    -0.001 A 
ATOM      3  C   UNL A   1     -25.688   1.952  28.567  0.00  0.00    +0.006 A 
ATOM      4  C   UNL A   1     -24.639   1.283  27.875  0.00  0.00    +0.077 A 
ATOM      5  C   UNL A   1     -24.807  -0.051  27.604  0.00  0.00    +0.006 A 
ATOM      6  C   UNL A   1     -25.902  -0.767  27.951  0.00  0.00    +0.001 A 
ENDROOT
BRANCH   1   7
ATOM      7  C   UNL A   1     -28.016  -0.814  28.878  0.00  0.00    +0.341 C 
ATOM      8  F   UNL A   1     -29.065  -0.417  28.344  0.00  0.00    -0.193 F 
ATOM      9  F   UNL A   1     -28.263  -0.847  30.290  0.00  0.00    -0.193 F 
ENDBRANCH   1   7
BRANCH   4  10
ATOM     10  C   UNL A   1     -23.427   1.969  27.507  0.00  0.00    +0.388 C 
ATOM     11  O   UNL A   1     -22.328   1.688  27.926  0.00  0.00    -0.241 OA
ATOM     12  O   UNL A   1     -23.491   2.652  26.291  0.00  0.00    -0.241 OA
ENDBRANCH   4  10
BRANCH   3  13
ATOM     13  C   UNL A   1     -25.546   3.375  28.906  0.00  0.00    +0.139 C 
BRANCH  13  14
ATOM     14  N   UNL A   1     -26.695   3.972  28.962  0.00  0.00    -0.232 NA
BRANCH  14  15
ATOM     15  C   UNL A   1     -26.883   5.208  28.815  0.00  0.00    +0.081 C 
ATOM     16  C   UNL A   1     -25.794   5.942  28.700  0.00  0.00    +0.017 C 
BRANCH  16  17
ATOM     17  C   UNL A   1     -25.837   7.389  28.823  0.00  0.00    +0.001 C 
ATOM     18  C   UNL A   1     -24.623   8.084  29.135  0.00  0.00    -0.000 C 
BRANCH  18  19
ATOM     19  C   UNL A   1     -24.526   9.069  30.044  0.00  0.00    -0.005 C 
ATOM     20  C   UNL A   1     -25.706   9.733  30.455  0.00  0.00    -0.026 C 
ATOM     21  C   UNL A   1     -26.892   9.098  30.130  0.00  0.00    +0.031 C 
ENDBRANCH  18  19
ENDBRANCH  16  17
ENDBRANCH  14  15
ENDBRANCH  13  14
ENDBRANCH   3  13
TORSDOF 7
