MODEL 4162
MODEL 1
REMARK VINA RESULT:    -6.219      0.000      0.000
REMARK INTER + INTRA:          -8.163
REMARK INTER:                  -7.673
REMARK INTRA:                  -0.490
REMARK UNBOUND:                -0.490
REMARK  Name = No_4162-gen_results/8p0m/2024-11-27-11-27-31/
REMARK  4 active torsions:
REMARK  status: ('A' for Active; 'I' for Inactive)
REMARK    1  A    between atoms: C_2  and  C_9
REMARK    2  A    between atoms: C_9  and  C_10
REMARK    3  A    between atoms: C_10  and  C_11
REMARK    4  A    between atoms: C_12  and  C_13
REMARK                            x       y       z     vdW  Elec       q    Type
REMARK                         _______ _______ _______ _____ _____    ______ ____
ROOT
ATOM      1  C   UNL A   1     -24.293   0.236  27.134  0.00  0.00    +0.009 A 
ATOM      2  C   UNL A   1     -23.287   0.610  27.691  0.00  0.00    +0.006 A 
ATOM      3  C   UNL A   1     -22.462   1.621  27.199  0.00  0.00    +0.136 A 
ATOM      4  C   UNL A   1     -22.779   2.231  25.921  0.00  0.00    +0.030 A 
ATOM      5  C   UNL A   1     -23.962   1.738  25.325  0.00  0.00    +0.014 A 
ATOM      6  C   UNL A   1     -24.670   0.777  25.862  0.00  0.00    +0.058 A 
ATOM      7  F   UNL A   1     -21.341   2.045  27.773  0.00  0.00    -0.204 F 
ATOM      8 CL   UNL A   1     -26.072   0.216  25.011  0.00  0.00    -0.082 Cl
ENDROOT
BRANCH   2   9
ATOM      9  C   UNL A   1     -22.811   0.048  29.028  0.00  0.00    +0.036 C 
BRANCH   9  10
ATOM     10  C   UNL A   1     -22.692  -1.282  29.187  0.00  0.00    +0.061 C 
BRANCH  10  11
ATOM     11  C   UNL A   1     -23.663  -2.011  29.659  0.00  0.00    +0.118 C 
ATOM     12  C   UNL A   1     -24.306  -3.058  28.858  0.00  0.00    +0.025 C 
ATOM     13  F   UNL A   1     -24.032  -2.261  30.868  0.00  0.00    -0.209 F 
BRANCH  12  14
ATOM     14  C   UNL A   1     -24.130  -4.081  29.209  0.00  0.00    +0.002 C 
ATOM     15  C   UNL A   1     -25.369  -5.051  29.231  0.00  0.00    +0.000 C 
ENDBRANCH  12  14
ENDBRANCH  10  11
ENDBRANCH   9  10
ENDBRANCH   2   9
TORSDOF 4
ENDMDL
ENDMDL
