REMARK  Name = outputs/IAG933/test6/raw/output_4162_IAG933_linker_design_.xyz
REMARK  14 active torsions:
REMARK  status: ('A' for Active; 'I' for Inactive)
REMARK    1  A    between atoms: C_1  and  C_2
REMARK    2  A    between atoms: C_1  and  C_8
REMARK    3  A    between atoms: C_9  and  C_31
REMARK    4  A    between atoms: C_13  and  C_40
REMARK    5  A    between atoms: C_14  and  C_15
REMARK    6  A    between atoms: C_21  and  O_22
REMARK    7  A    between atoms: O_22  and  C_23
REMARK    8  A    between atoms: C_23  and  C_24
REMARK    9  A    between atoms: C_28  and  C_39
REMARK   10  A    between atoms: C_30  and  C_37
REMARK   11  A    between atoms: C_30  and  C_40
REMARK   12  A    between atoms: C_31  and  O_36
REMARK   13  A    between atoms: C_32  and  C_40
REMARK   14  A    between atoms: O_36  and  C_42
REMARK                            x       y       z     vdW  Elec       q    Type
REMARK                         _______ _______ _______ _____ _____    ______ ____
ROOT
ATOM      1  C   UNL A   1     -26.038   1.785  31.273  0.00  0.00    +0.119 C 
ATOM      2  C   UNL A   1     -26.141   1.650  29.964  0.00  0.00    +0.007 C 
ENDROOT
BRANCH   1   4
ATOM      3  C   UNL A   1     -25.387  -0.679  31.571  0.00  0.00    +0.084 C 
ATOM      4  C   UNL A   1     -25.189   0.773  32.028  0.00  0.00    +0.075 C 
ATOM      5  C   UNL A   1     -25.336   0.684  33.544  0.00  0.00    +0.028 C 
ATOM      6  C   UNL A   1     -24.829  -0.715  33.905  0.00  0.00    +0.089 C 
ATOM      7  N   UNL A   1     -24.758  -1.481  32.646  0.00  0.00    -0.219 NA
BRANCH   3   8
ATOM      8  C   UNL A   1     -24.855  -1.012  30.143  0.00  0.00    +0.044 C 
BRANCH   8   9
ATOM      9  C   UNL A   1     -24.973  -2.505  29.788  0.00  0.00    -0.021 C 
ATOM     10  C   UNL A   1     -23.906  -3.173  29.146  0.00  0.00    -0.004 C 
ATOM     11  C   UNL A   1     -23.989  -4.549  28.853  0.00  0.00    -0.000 C 
ATOM     12  C   UNL A   1     -25.137  -5.280  29.205  0.00  0.00    -0.000 C 
ATOM     13  C   UNL A   1     -26.232  -4.611  29.784  0.00  0.00    -0.000 C 
ATOM     14  C   UNL A   1     -26.155  -3.232  30.065  0.00  0.00    -0.004 C 
ENDBRANCH   8   9
ENDBRANCH   3   8
ENDBRANCH   1   4
BRANCH   2  15
ATOM     15  C   UNL A   1     -25.544   0.931  28.953  0.00  0.00    +0.038 C 
BRANCH  15  16
ATOM     16  C   UNL A   1     -24.703   1.216  27.551  0.00  0.00    +0.088 C 
BRANCH  16  17
ATOM     17  C   UNL A   1     -25.688   1.614  26.461  0.00  0.00    +0.079 C 
ATOM     18  C   UNL A   1     -26.250   2.920  26.395  0.00  0.00    +0.055 C 
ATOM     19  C   UNL A   1     -27.438   3.091  25.645  0.00  0.00    +0.102 C 
ATOM     20  N   UNL A   1     -28.075   2.089  25.003  0.00  0.00    -0.212 NA
ATOM     21  C   UNL A   1     -27.543   0.849  25.079  0.00  0.00    +0.234 C 
ATOM     22  C   UNL A   1     -26.354   0.576  25.777  0.00  0.00    +0.240 C 
ATOM     23  F   UNL A   1     -25.860  -0.681  25.795  0.00  0.00    -0.227 F 
BRANCH  18  24
ATOM     24  C   UNL A   1     -25.642   4.093  27.123  0.00  0.00    +0.263 C 
ATOM     25  N   UNL A   1     -25.614   5.252  26.449  0.00  0.00    -0.200 NA
ATOM     26  C   UNL A   1     -25.026   6.479  26.963  0.00  0.00    +0.139 C 
ATOM     27  O   UNL A   1     -25.143   3.966  28.243  0.00  0.00    -0.269 OA
ENDBRANCH  18  24
BRANCH  21  28
ATOM     28  O   UNL A   1     -28.193  -0.208  24.477  0.00  0.00    -0.459 OA
BRANCH  28  29
ATOM     29  C   UNL A   1     -29.460   0.005  23.866  0.00  0.00    +0.242 C 
BRANCH  29  30
ATOM     30  C   UNL A   1     -30.065  -1.377  23.573  0.00  0.00    +0.229 C 
ATOM     31  O   UNL A   1     -30.729  -1.878  24.721  0.00  0.00    -0.216 OA
ENDBRANCH  29  30
ENDBRANCH  28  29
ENDBRANCH  21  28
ENDBRANCH  16  17
BRANCH  16  32
ATOM     32  C   UNL A   1     -23.337   1.422  27.513  0.00  0.00    +0.196 C 
ATOM     33  C   UNL A   1     -21.226   1.095  27.883  0.00  0.00    +0.175 C 
ATOM     34  O   UNL A   1     -22.700   2.589  26.974  0.00  0.00    -0.461 OA
ATOM     35  C   UNL A   1     -21.349   2.161  27.004  0.00  0.00    +0.233 C 
ATOM     36  N   UNL A   1     -22.436   0.509  28.117  0.00  0.00    -0.238 NA
ENDBRANCH  16  32
ENDBRANCH  15  16
ENDBRANCH   2  15
BRANCH   1  37
ATOM     37  O   UNL A   1     -26.751   2.829  31.892  0.00  0.00    -0.458 OA
BRANCH  37  43
ATOM     38  C   UNL A   1     -28.632   4.402  31.825  0.00  0.00    +0.036 C 
ATOM     39  C   UNL A   1     -27.842   5.418  29.323  0.00  0.00    +0.003 C 
ATOM     40  C   UNL A   1     -27.459   4.140  29.786  0.00  0.00    +0.037 C 
ATOM     41  C   UNL A   1     -28.664   6.172  30.147  0.00  0.00    -0.002 C 
ATOM     42  C   UNL A   1     -29.095   5.648  31.356  0.00  0.00    +0.014 C 
ATOM     43  C   UNL A   1     -27.652   3.698  31.139  0.00  0.00    +0.145 C 
BRANCH  42  44
ATOM     44  C   UNL A   1     -30.104   6.513  32.051  0.00  0.00    +0.209 C 
ATOM     45  O   UNL A   1     -30.991   7.004  31.070  0.00  0.00    -0.215 OA
ENDBRANCH  42  44
ENDBRANCH  37  43
ENDBRANCH   1  37
TORSDOF 14
