REMARK  Name = outputs/IAG933/test6/raw/output_4163_IAG933_linker_design_.xyz
REMARK  12 active torsions:
REMARK  status: ('A' for Active; 'I' for Inactive)
REMARK    1  A    between atoms: C_1  and  C_2
REMARK    2  A    between atoms: C_1  and  C_8
REMARK    3  A    between atoms: C_9  and  O_32
REMARK    4  A    between atoms: C_13  and  C_28
REMARK    5  A    between atoms: C_14  and  C_15
REMARK    6  A    between atoms: C_21  and  O_22
REMARK    7  A    between atoms: O_22  and  C_23
REMARK    8  A    between atoms: C_23  and  C_24
REMARK    9  A    between atoms: C_30  and  C_37
REMARK   10  A    between atoms: O_32  and  C_37
REMARK   11  A    between atoms: C_33  and  N_34
REMARK   12  A    between atoms: N_34  and  C_37
REMARK                            x       y       z     vdW  Elec       q    Type
REMARK                         _______ _______ _______ _____ _____    ______ ____
ROOT
ATOM      1  C   UNL A   1     -24.544   1.430  26.961  0.00  0.00    -0.011 C 
ATOM      2 CL   UNL A   1     -23.180   2.321  24.856  0.00  0.00    -0.087 Cl
ATOM      3  C   UNL A   1     -22.428   1.168  28.539  0.00  0.00    +0.182 C 
ATOM      4  C   UNL A   1     -23.626   1.287  28.965  0.00  0.00    +0.112 C 
ATOM      5  C   UNL A   1     -24.554   0.927  28.168  0.00  0.00    +0.047 C 
ATOM      6  C   UNL A   1     -22.181   1.588  27.230  0.00  0.00    +0.074 C 
ATOM      7  F   UNL A   1     -21.844   0.505  29.518  0.00  0.00    -0.235 F 
ATOM      8  C   UNL A   1     -23.340   1.781  26.447  0.00  0.00    +0.034 C 
ENDROOT
BRANCH   1   9
ATOM      9  C   UNL A   1     -25.688   1.614  26.461  0.00  0.00    +0.035 C 
ATOM     10  C   UNL A   1     -26.250   2.920  26.395  0.00  0.00    +0.076 C 
ATOM     11  C   UNL A   1     -27.438   3.091  25.645  0.00  0.00    +0.107 C 
ATOM     12  N   UNL A   1     -28.075   2.089  25.003  0.00  0.00    -0.208 NA
ATOM     13  C   UNL A   1     -27.543   0.849  25.079  0.00  0.00    +0.253 C 
ATOM     14  C   UNL A   1     -26.354   0.576  25.777  0.00  0.00    +0.193 C 
ATOM     15  F   UNL A   1     -25.860  -0.681  25.795  0.00  0.00    -0.199 F 
BRANCH  10  16
ATOM     16  C   UNL A   1     -25.642   4.093  27.123  0.00  0.00    +0.266 C 
ATOM     17  N   UNL A   1     -25.614   5.252  26.449  0.00  0.00    -0.200 NA
ATOM     18  C   UNL A   1     -25.026   6.479  26.963  0.00  0.00    +0.139 C 
ATOM     19  O   UNL A   1     -25.143   3.966  28.243  0.00  0.00    -0.268 OA
ENDBRANCH  10  16
BRANCH  13  20
ATOM     20  O   UNL A   1     -28.193  -0.208  24.477  0.00  0.00    -0.456 OA
BRANCH  20  21
ATOM     21  C   UNL A   1     -29.460   0.005  23.866  0.00  0.00    +0.243 C 
BRANCH  21  22
ATOM     22  C   UNL A   1     -30.065  -1.377  23.573  0.00  0.00    +0.229 C 
ATOM     23  O   UNL A   1     -30.729  -1.878  24.721  0.00  0.00    -0.216 OA
ENDBRANCH  21  22
ENDBRANCH  20  21
ENDBRANCH  13  20
ENDBRANCH   1   9
BRANCH   4  24
ATOM     24  N   UNL A   1     -24.193   1.885  30.126  0.00  0.00    -0.190 NA
BRANCH  24  25
ATOM     25  C   UNL A   1     -25.637   2.553  30.436  0.00  0.00    +0.189 C 
BRANCH  25  26
ATOM     26  C   UNL A   1     -25.932   3.913  30.918  0.00  0.00    +0.048 C 
ATOM     27  C   UNL A   1     -27.431   4.063  31.005  0.00  0.00    +0.004 C 
ENDBRANCH  25  26
BRANCH  25  28
ATOM     28  O   UNL A   1     -26.080   1.624  31.444  0.00  0.00    -0.341 OA
BRANCH  28  30
ATOM     29  C   UNL A   1     -25.387  -0.679  31.571  0.00  0.00    +0.104 C 
ATOM     30  C   UNL A   1     -25.189   0.773  32.028  0.00  0.00    +0.134 C 
ATOM     31  C   UNL A   1     -25.336   0.684  33.544  0.00  0.00    +0.050 C 
ATOM     32  C   UNL A   1     -24.829  -0.715  33.905  0.00  0.00    +0.091 C 
ATOM     33  N   UNL A   1     -24.758  -1.481  32.646  0.00  0.00    -0.217 NA
BRANCH  29  34
ATOM     34  C   UNL A   1     -24.855  -1.012  30.143  0.00  0.00    +0.046 C 
BRANCH  34  35
ATOM     35  C   UNL A   1     -24.973  -2.505  29.788  0.00  0.00    -0.021 C 
ATOM     36  C   UNL A   1     -23.906  -3.173  29.146  0.00  0.00    -0.004 C 
ATOM     37  C   UNL A   1     -23.989  -4.549  28.853  0.00  0.00    -0.000 C 
ATOM     38  C   UNL A   1     -25.137  -5.280  29.205  0.00  0.00    -0.000 C 
ATOM     39  C   UNL A   1     -26.232  -4.611  29.784  0.00  0.00    -0.000 C 
ATOM     40  C   UNL A   1     -26.155  -3.232  30.065  0.00  0.00    -0.004 C 
ENDBRANCH  34  35
ENDBRANCH  29  34
ENDBRANCH  28  30
ENDBRANCH  25  28
ENDBRANCH  24  25
ENDBRANCH   4  24
TORSDOF 12
