MODEL 4163
MODEL 1
REMARK VINA RESULT:    -5.787      0.000      0.000
REMARK INTER + INTRA:          -6.822
REMARK INTER:                  -6.464
REMARK INTRA:                  -0.359
REMARK UNBOUND:                -0.359
REMARK  Name = No_4163-gen_results/8p0m/2024-11-27-11-27-31/
REMARK  2 active torsions:
REMARK  status: ('A' for Active; 'I' for Inactive)
REMARK    1  A    between atoms: C_3  and  C_7
REMARK    2  A    between atoms: C_8  and  C_9
REMARK                            x       y       z     vdW  Elec       q    Type
REMARK                         _______ _______ _______ _____ _____    ______ ____
ROOT
ATOM      1  C   UNL A   1     -24.935  -5.147  28.972  0.00  0.00    +0.000 A 
ATOM      2  C   UNL A   1     -24.101  -4.291  28.793  0.00  0.00    -0.000 A 
ATOM      3  C   UNL A   1     -24.261  -2.963  29.188  0.00  0.00    -0.000 A 
ATOM      4  C   UNL A   1     -25.512  -2.553  29.795  0.00  0.00    -0.000 A 
ATOM      5  C   UNL A   1     -26.454  -3.568  29.964  0.00  0.00    +0.000 A 
ATOM      6  C   UNL A   1     -26.223  -4.799  29.550  0.00  0.00    +0.000 A 
ENDROOT
BRANCH   3   7
ATOM      7  C   UNL A   1     -23.278  -1.847  29.009  0.00  0.00    -0.000 C 
ATOM      8  C   UNL A   1     -23.661  -0.646  28.678  0.00  0.00    -0.000 C 
BRANCH   8   9
ATOM      9  C   UNL A   1     -22.899   0.327  28.443  0.00  0.00    -0.005 C 
ATOM     10  C   UNL A   1     -23.036   1.202  27.259  0.00  0.00    -0.026 C 
ATOM     11  C   UNL A   1     -24.209   0.907  26.467  0.00  0.00    +0.031 C 
ENDBRANCH   8   9
ENDBRANCH   3   7
TORSDOF 2
ENDMDL
ENDMDL
