MODEL 4164
MODEL 1
REMARK VINA RESULT:    -7.457      0.000      0.000
REMARK INTER + INTRA:          -9.137
REMARK INTER:                  -8.765
REMARK INTRA:                  -0.372
REMARK UNBOUND:                -0.372
REMARK  Name = No_4164-gen_results/8p0m/2024-11-27-11-27-31/
REMARK  3 active torsions:
REMARK  status: ('A' for Active; 'I' for Inactive)
REMARK    1  A    between atoms: C_1  and  C_2
REMARK    2  A    between atoms: C_1  and  C_8
REMARK    3  A    between atoms: C_14  and  C_16
REMARK                            x       y       z     vdW  Elec       q    Type
REMARK                         _______ _______ _______ _____ _____    ______ ____
ROOT
ATOM      1  C   UNL A   1     -23.855  -0.225  29.675  0.00  0.00    +0.063 A 
ATOM      2  N   UNL A   1     -25.058  -0.276  30.266  0.00  0.00    -0.248 NA
ATOM      3  C   UNL A   1     -25.872  -1.385  30.425  0.00  0.00    +0.099 A 
ATOM      4  C   UNL A   1     -25.530  -2.535  29.718  0.00  0.00    +0.029 A 
ATOM      5  C   UNL A   1     -23.423  -1.482  29.076  0.00  0.00    +0.015 A 
ATOM      6  C   UNL A   1     -24.273  -2.632  29.149  0.00  0.00    +0.003 A 
ATOM      7  C   UNL A   1     -26.378  -3.714  29.886  0.00  0.00    +0.070 A 
ATOM      8  C   UNL A   1     -25.959  -4.927  29.587  0.00  0.00    +0.010 A 
ATOM      9  C   UNL A   1     -23.841  -3.904  28.640  0.00  0.00    +0.000 A 
ATOM     10  C   UNL A   1     -24.702  -5.047  28.852  0.00  0.00    +0.001 A 
ENDROOT
BRANCH   7  11
ATOM     11  C   UNL A   1     -27.753  -3.555  30.331  0.00  0.00    +0.101 C 
ATOM     12  N   UNL A   1     -28.695  -3.237  30.533  0.00  0.00    -0.191 NA
ENDBRANCH   7  11
BRANCH   1  13
ATOM     13  C   UNL A   1     -23.209   0.787  29.535  0.00  0.00    +0.072 C 
BRANCH  13  14
ATOM     14  C   UNL A   1     -23.200   1.447  28.212  0.00  0.00    -0.016 A 
ATOM     15  C   UNL A   1     -24.295   1.688  27.631  0.00  0.00    -0.004 A 
ATOM     16  C   UNL A   1     -21.914   1.533  27.623  0.00  0.00    -0.004 A 
ATOM     17  C   UNL A   1     -21.807   1.908  26.276  0.00  0.00    -0.000 A 
ATOM     18  C   UNL A   1     -24.232   2.229  26.249  0.00  0.00    -0.000 A 
ATOM     19  C   UNL A   1     -22.997   2.327  25.631  0.00  0.00    -0.000 A 
ENDBRANCH  13  14
ENDBRANCH   1  13
TORSDOF 3
ENDMDL
ENDMDL
