REMARK  Name = No_4165-gen_results/8p0m/2024-11-27-11-27-31/
REMARK  2 active torsions:
REMARK  status: ('A' for Active; 'I' for Inactive)
REMARK    1  A    between atoms: C_2  and  C_3
REMARK    2  A    between atoms: C_3  and  C_4
REMARK                            x       y       z     vdW  Elec       q    Type
REMARK                         _______ _______ _______ _____ _____    ______ ____
ROOT
ATOM      1  C   UNL A   1     -25.765  -0.390  29.036  0.00  0.00    +0.053 C 
ENDROOT
BRANCH   1   3
ATOM      2  C   UNL A   1     -28.016  -0.814  28.878  0.00  0.00    -0.004 A 
ATOM      3  C   UNL A   1     -27.064  -0.119  28.608  0.00  0.00    -0.018 A 
ATOM      4  C   UNL A   1     -29.353  -0.372  28.749  0.00  0.00    -0.000 A 
ATOM      5  C   UNL A   1     -29.544   0.769  27.964  0.00  0.00    -0.000 A 
ATOM      6  C   UNL A   1     -28.469   1.491  27.517  0.00  0.00    -0.000 A 
ATOM      7  C   UNL A   1     -27.134   1.151  27.898  0.00  0.00    -0.004 A 
ENDBRANCH   1   3
BRANCH   1   8
ATOM      8  C   UNL A   1     -24.552   0.406  28.765  0.00  0.00    -0.018 A 
ATOM      9  C   UNL A   1     -23.230   0.118  29.258  0.00  0.00    -0.004 A 
ATOM     10  C   UNL A   1     -22.139   0.943  28.922  0.00  0.00    -0.000 A 
ATOM     11  C   UNL A   1     -22.278   1.961  27.937  0.00  0.00    -0.000 A 
ATOM     12  C   UNL A   1     -23.558   2.227  27.425  0.00  0.00    -0.000 A 
ATOM     13  C   UNL A   1     -24.645   1.450  27.765  0.00  0.00    -0.004 A 
ENDBRANCH   1   8
TORSDOF 2
