MODEL 4165
MODEL 1
REMARK VINA RESULT:    -6.694      0.000      0.000
REMARK INTER + INTRA:          -7.893
REMARK INTER:                  -7.477
REMARK INTRA:                  -0.416
REMARK UNBOUND:                -0.416
REMARK  Name = No_4165-gen_results/8p0m/2024-11-27-11-27-31/
REMARK  2 active torsions:
REMARK  status: ('A' for Active; 'I' for Inactive)
REMARK    1  A    between atoms: C_2  and  C_3
REMARK    2  A    between atoms: C_3  and  C_4
REMARK                            x       y       z     vdW  Elec       q    Type
REMARK                         _______ _______ _______ _____ _____    ______ ____
ROOT
ATOM      1  C   UNL A   1     -23.526  -1.496  29.488  0.00  0.00    +0.053 C 
ENDROOT
BRANCH   1   3
ATOM      2  C   UNL A   1     -23.867  -3.647  28.760  0.00  0.00    -0.004 A 
ATOM      3  C   UNL A   1     -24.282  -2.654  29.312  0.00  0.00    -0.018 A 
ATOM      4  C   UNL A   1     -24.485  -4.912  28.884  0.00  0.00    -0.000 A 
ATOM      5  C   UNL A   1     -25.793  -4.905  29.379  0.00  0.00    -0.000 A 
ATOM      6  C   UNL A   1     -26.341  -3.751  29.873  0.00  0.00    -0.000 A 
ATOM      7  C   UNL A   1     -25.577  -2.547  29.971  0.00  0.00    -0.004 A 
ENDBRANCH   1   3
BRANCH   1   8
ATOM      8  C   UNL A   1     -23.312  -0.413  28.507  0.00  0.00    -0.018 A 
ATOM      9  C   UNL A   1     -24.305   0.117  27.610  0.00  0.00    -0.004 A 
ATOM     10  C   UNL A   1     -23.991   1.165  26.723  0.00  0.00    -0.000 A 
ATOM     11  C   UNL A   1     -22.749   1.852  26.826  0.00  0.00    -0.000 A 
ATOM     12  C   UNL A   1     -21.786   1.363  27.724  0.00  0.00    -0.000 A 
ATOM     13  C   UNL A   1     -22.064   0.319  28.579  0.00  0.00    -0.004 A 
ENDBRANCH   1   8
TORSDOF 2
ENDMDL
ENDMDL
