MODEL 4166
MODEL 1
REMARK VINA RESULT:    -4.622      0.000      0.000
REMARK INTER + INTRA:          -4.920
REMARK INTER:                  -4.892
REMARK INTRA:                  -0.028
REMARK UNBOUND:                -0.028
REMARK  Name = No_4166-gen_results/8p0m/2024-11-27-11-27-31/
REMARK  1 active torsions:
REMARK  status: ('A' for Active; 'I' for Inactive)
REMARK    1  A    between atoms: C_5  and  C_9
REMARK                            x       y       z     vdW  Elec       q    Type
REMARK                         _______ _______ _______ _____ _____    ______ ____
ROOT
ATOM      1  C   UNL A   1     -15.740 -22.691   8.273  0.00  0.00    +0.097 C 
ATOM      2  C   UNL A   1     -16.638 -21.988   7.869  0.00  0.00    -0.026 C 
ATOM      3  C   UNL A   1     -16.523 -21.151   6.761  0.00  0.00    +0.024 C 
ATOM      4  C   UNL A   1     -17.558 -20.255   6.208  0.00  0.00    +0.006 C 
ATOM      5  C   UNL A   1     -18.871 -20.417   6.746  0.00  0.00    +0.020 C 
ATOM      6  C   UNL A   1     -19.041 -21.283   7.831  0.00  0.00    +0.006 C 
ATOM      7  C   UNL A   1     -18.037 -22.022   8.354  0.00  0.00    +0.024 C 
ATOM      8  N   UNL A   1     -14.812 -22.083   9.101  0.00  0.00    -0.127 NA
ENDROOT
BRANCH   5   9
ATOM      9  C   UNL A   1     -19.893 -19.599   6.150  0.00  0.00    +0.109 C 
ATOM     10  N   UNL A   1     -19.601 -18.485   5.658  0.00  0.00    -0.131 NA
ENDBRANCH   5   9
TORSDOF 1
ENDMDL
ENDMDL
