REMARK  Name = No_4166-gen_results/8p0m/2024-11-27-11-27-31/
REMARK  1 active torsions:
REMARK  status: ('A' for Active; 'I' for Inactive)
REMARK    1  A    between atoms: C_5  and  C_9
REMARK                            x       y       z     vdW  Elec       q    Type
REMARK                         _______ _______ _______ _____ _____    ______ ____
ROOT
ATOM      1  C   UNL A   1     -28.016  -0.814  28.878  0.00  0.00    +0.097 C 
ATOM      2  C   UNL A   1     -27.064  -0.119  28.608  0.00  0.00    -0.026 C 
ATOM      3  C   UNL A   1     -25.765  -0.390  29.036  0.00  0.00    +0.024 C 
ATOM      4  C   UNL A   1     -24.552   0.406  28.765  0.00  0.00    +0.006 C 
ATOM      5  C   UNL A   1     -24.696   1.448  27.799  0.00  0.00    +0.020 C 
ATOM      6  C   UNL A   1     -25.976   1.725  27.308  0.00  0.00    +0.006 C 
ATOM      7  C   UNL A   1     -27.072   1.013  27.654  0.00  0.00    +0.024 C 
ATOM      8  N   UNL A   1     -28.608  -0.591  30.110  0.00  0.00    -0.127 NA
ENDROOT
BRANCH   5   9
ATOM      9  C   UNL A   1     -23.494   2.169  27.479  0.00  0.00    +0.109 C 
ATOM     10  N   UNL A   1     -23.540   3.171  26.729  0.00  0.00    -0.131 NA
ENDBRANCH   5   9
TORSDOF 1
