MODEL 4167
MODEL 1
REMARK VINA RESULT:    -5.979      0.000      0.000
REMARK INTER + INTRA:          -7.258
REMARK INTER:                  -7.028
REMARK INTRA:                  -0.230
REMARK UNBOUND:                -0.230
REMARK  Name = No_4167-gen_results/8p0m/2024-11-27-11-27-31/
REMARK  3 active torsions:
REMARK  status: ('A' for Active; 'I' for Inactive)
REMARK    1  A    between atoms: C_2  and  C_7
REMARK    2  A    between atoms: C_7  and  O_9
REMARK    3  A    between atoms: O_9  and  C_11
REMARK                            x       y       z     vdW  Elec       q    Type
REMARK                         _______ _______ _______ _____ _____    ______ ____
ROOT
ATOM      1  C   UNL A   1     -24.072   0.067  27.568  0.00  0.00    +0.018 A 
ATOM      2  C   UNL A   1     -23.218   0.087  28.185  0.00  0.00    +0.077 A 
ATOM      3  C   UNL A   1     -24.127   1.135  26.499  0.00  0.00    +0.058 A 
ATOM      4  C   UNL A   1     -23.009   1.973  26.301  0.00  0.00    +0.011 A 
ATOM      5  C   UNL A   1     -21.927   0.810  28.171  0.00  0.00    +0.006 A 
ATOM      6  C   UNL A   1     -21.937   1.798  27.196  0.00  0.00    +0.001 A 
ATOM      7 CL   UNL A   1     -25.444   1.378  25.465  0.00  0.00    -0.082 Cl
ENDROOT
BRANCH   2   8
ATOM      8  C   UNL A   1     -22.958  -1.026  29.338  0.00  0.00    +0.346 C 
ATOM      9  O   UNL A   1     -22.419  -0.787  30.342  0.00  0.00    -0.244 OA
BRANCH   8  10
ATOM     10  O   UNL A   1     -23.194  -2.281  28.954  0.00  0.00    -0.418 OA
BRANCH  10  11
ATOM     11  C   UNL A   1     -23.850  -3.072  29.319  0.00  0.00    +0.178 C 
ATOM     12  C   UNL A   1     -24.100  -4.110  28.566  0.00  0.00    +0.015 C 
ATOM     13  C   UNL A   1     -24.838  -5.267  29.015  0.00  0.00    +0.034 C 
ENDBRANCH  10  11
ENDBRANCH   8  10
ENDBRANCH   2   8
TORSDOF 3
ENDMDL
ENDMDL
