MODEL 4168
MODEL 1
REMARK VINA RESULT:    -5.119      0.000      0.000
REMARK INTER + INTRA:          -5.470
REMARK INTER:                  -5.418
REMARK INTRA:                  -0.053
REMARK UNBOUND:                -0.053
REMARK  Name = No_4168-gen_results/8p0m/2024-11-27-11-27-31/
REMARK  1 active torsions:
REMARK  status: ('A' for Active; 'I' for Inactive)
REMARK    1  A    between atoms: C_2  and  C_8
REMARK                            x       y       z     vdW  Elec       q    Type
REMARK                         _______ _______ _______ _____ _____    ______ ____
ROOT
ATOM      1  C   UNL A   1     -28.789 -10.642  32.812  0.00  0.00    +0.009 A 
ATOM      2  C   UNL A   1     -28.204 -11.368  32.323  0.00  0.00    +0.080 A 
ATOM      3  C   UNL A   1     -29.757  -9.884  31.931  0.00  0.00    +0.030 A 
ATOM      4  C   UNL A   1     -29.920 -10.278  30.586  0.00  0.00    +0.140 A 
ATOM      5  C   UNL A   1     -28.199 -11.983  30.976  0.00  0.00    +0.009 A 
ATOM      6  C   UNL A   1     -29.082 -11.316  30.138  0.00  0.00    +0.030 A 
ATOM      7  F   UNL A   1     -30.688  -9.645  29.814  0.00  0.00    -0.204 F 
ENDROOT
BRANCH   2   8
ATOM      8  C   UNL A   1     -27.170 -12.206  33.259  0.00  0.00    +0.388 C 
ATOM      9  O   UNL A   1     -26.522 -12.847  32.672  0.00  0.00    -0.241 OA
ATOM     10  O   UNL A   1     -27.399 -12.373  34.536  0.00  0.00    -0.241 OA
ENDBRANCH   2   8
TORSDOF 1
ENDMDL
ENDMDL
