REMARK  Name = No_4169-gen_results/8p0m/2024-11-27-11-27-31/
REMARK  1 active torsions:
REMARK  status: ('A' for Active; 'I' for Inactive)
REMARK    1  A    between atoms: C_4  and  C_8
REMARK                            x       y       z     vdW  Elec       q    Type
REMARK                         _______ _______ _______ _____ _____    ______ ____
ROOT
ATOM      1  C   UNL A   1     -28.016  -0.814  28.878  0.00  0.00    +0.007 A 
ATOM      2  C   UNL A   1     -28.469  -0.785  29.829  0.00  0.00    +0.035 A 
ATOM      3  C   UNL A   1     -26.504  -0.778  28.877  0.00  0.00    +0.004 A 
ATOM      4  C   UNL A   1     -25.810  -0.853  30.103  0.00  0.00    +0.071 A 
ATOM      5  C   UNL A   1     -27.991  -0.892  31.226  0.00  0.00    +0.007 A 
ATOM      6  C   UNL A   1     -26.604  -0.868  31.265  0.00  0.00    +0.004 A 
ATOM      7 BR   UNL A   1     -30.427  -0.753  29.635  0.00  0.00    -0.049 Br
ENDROOT
BRANCH   4   8
ATOM      8  C   UNL A   1     -24.362  -0.838  30.152  0.00  0.00    +0.419 C 
ATOM      9  F   UNL A   1     -23.921   0.379  30.442  0.00  0.00    -0.166 F 
ATOM     10  F   UNL A   1     -23.877  -1.650  31.102  0.00  0.00    -0.166 F 
ATOM     11  F   UNL A   1     -23.785  -1.187  28.998  0.00  0.00    -0.166 F 
ENDBRANCH   4   8
TORSDOF 1
