MODEL 416
MODEL 1
REMARK VINA RESULT:    -6.944      0.000      0.000
REMARK INTER + INTRA:          -9.233
REMARK INTER:                  -8.162
REMARK INTRA:                  -1.071
REMARK UNBOUND:                -1.071
REMARK  Name = No_416-gen_results/8p0m/2024-11-27-11-27-31/
REMARK  3 active torsions:
REMARK  status: ('A' for Active; 'I' for Inactive)
REMARK    1  A    between atoms: C_3  and  C_7
REMARK    2  A    between atoms: C_7  and  C_8
REMARK    3  A    between atoms: C_8  and  C_9
REMARK                            x       y       z     vdW  Elec       q    Type
REMARK                         _______ _______ _______ _____ _____    ______ ____
ROOT
ATOM      1  C   UNL A   1     -24.349  -1.348  29.139  0.00  0.00    +0.026 C 
ATOM      2  C   UNL A   1     -24.952  -0.651  28.050  0.00  0.00    +0.005 C 
ENDROOT
BRANCH   1   3
ATOM      3  C   UNL A   1     -24.421  -2.735  29.071  0.00  0.00    -0.026 A 
ATOM      4  C   UNL A   1     -23.858  -3.459  28.624  0.00  0.00    -0.005 A 
ATOM      5  C   UNL A   1     -24.105  -4.915  28.562  0.00  0.00    -0.000 A 
ATOM      6  C   UNL A   1     -25.282  -5.336  29.212  0.00  0.00    -0.000 A 
ATOM      7  C   UNL A   1     -25.844  -3.145  29.655  0.00  0.00    -0.026 A 
ATOM      8  C   UNL A   1     -26.863  -2.118  30.112  0.00  0.00    +0.031 C 
ATOM      9  C   UNL A   1     -26.248  -4.472  29.647  0.00  0.00    -0.005 A 
ENDBRANCH   1   3
BRANCH   1  10
ATOM     10  C   UNL A   1     -23.644  -0.793  29.950  0.00  0.00    +0.026 C 
ATOM     11  C   UNL A   1     -22.262  -0.312  29.701  0.00  0.00    +0.005 C 
BRANCH  10  14
ATOM     12  C   UNL A   1     -25.011   0.455  31.693  0.00  0.00    -0.004 A 
ATOM     13  C   UNL A   1     -25.281   0.622  32.697  0.00  0.00    -0.000 A 
ATOM     14  C   UNL A   1     -24.063  -0.557  31.425  0.00  0.00    -0.022 A 
ATOM     15  C   UNL A   1     -23.662  -1.276  32.228  0.00  0.00    -0.004 A 
ATOM     16  C   UNL A   1     -24.007  -1.172  33.609  0.00  0.00    -0.000 A 
ATOM     17  C   UNL A   1     -24.916  -0.175  33.890  0.00  0.00    -0.000 A 
ENDBRANCH  10  14
ENDBRANCH   1  10
TORSDOF 3
ENDMDL
ENDMDL
