MODEL 4170
MODEL 1
REMARK VINA RESULT:    -6.003      0.000      0.000
REMARK INTER + INTRA:          -6.978
REMARK INTER:                  -6.705
REMARK INTRA:                  -0.273
REMARK UNBOUND:                -0.273
REMARK  Name = No_4170-gen_results/8p0m/2024-11-27-11-27-31/
REMARK  2 active torsions:
REMARK  status: ('A' for Active; 'I' for Inactive)
REMARK    1  A    between atoms: C_2  and  C_10
REMARK    2  A    between atoms: C_5  and  C_7
REMARK                            x       y       z     vdW  Elec       q    Type
REMARK                         _______ _______ _______ _____ _____    ______ ____
ROOT
ATOM      1  C   UNL A   1     -19.345 -21.921   7.178  0.00  0.00    -0.000 A 
ATOM      2  C   UNL A   1     -18.181 -21.727   6.913  0.00  0.00    -0.004 A 
ATOM      3  C   UNL A   1     -17.713 -20.565   6.332  0.00  0.00    -0.000 A 
ATOM      4  C   UNL A   1     -18.650 -19.527   6.067  0.00  0.00    +0.005 A 
ATOM      5  C   UNL A   1     -19.904 -19.724   6.535  0.00  0.00    +0.057 A 
ATOM      6  C   UNL A   1     -20.255 -20.854   7.118  0.00  0.00    +0.005 A 
ENDROOT
BRANCH   2   7
ATOM      7  C   UNL A   1     -17.093 -22.868   7.048  0.00  0.00    -0.019 C 
ATOM      8  C   UNL A   1     -16.319 -22.898   8.250  0.00  0.00    +0.038 C 
ATOM      9  C   UNL A   1     -16.581 -22.202   9.323  0.00  0.00    +0.123 C 
ATOM     10  N   UNL A   1     -15.749 -22.400  10.325  0.00  0.00    -0.146 NA
ATOM     11  C   UNL A   1     -15.010 -23.513   8.729  0.00  0.00    +0.123 C 
ATOM     12  N   UNL A   1     -14.813 -23.220   9.925  0.00  0.00    -0.146 NA
ATOM     13  C   UNL A   1     -16.175 -22.931   5.781  0.00  0.00    +0.031 C 
ENDBRANCH   2   7
BRANCH   5  14
ATOM     14  C   UNL A   1     -20.855 -18.623   6.277  0.00  0.00    +0.284 C 
ATOM     15  N   UNL A   1     -21.983 -18.568   6.775  0.00  0.00    -0.084 NA
ATOM     16  O   UNL A   1     -20.402 -17.585   5.677  0.00  0.00    -0.267 OA
ENDBRANCH   5  14
TORSDOF 2
ENDMDL
ENDMDL
