REMARK  Name = outputs/IAG933/test6/raw/output_4171_IAG933_linker_design_.xyz
REMARK  11 active torsions:
REMARK  status: ('A' for Active; 'I' for Inactive)
REMARK    1  A    between atoms: C_1  and  C_2
REMARK    2  A    between atoms: C_1  and  C_8
REMARK    3  A    between atoms: C_1  and  C_34
REMARK    4  A    between atoms: C_13  and  C_32
REMARK    5  A    between atoms: C_14  and  C_15
REMARK    6  A    between atoms: C_21  and  O_22
REMARK    7  A    between atoms: O_22  and  C_23
REMARK    8  A    between atoms: C_23  and  C_24
REMARK    9  A    between atoms: C_34  and  C_38
REMARK   10  A    between atoms: C_34  and  C_41
REMARK   11  A    between atoms: C_37  and  N_43
REMARK                            x       y       z     vdW  Elec       q    Type
REMARK                         _______ _______ _______ _____ _____    ______ ____
ROOT
ATOM      1  C   UNL A   1     -24.475   1.364  27.099  0.00  0.00    +0.046 A 
ATOM      2  C   UNL A   1     -23.338   1.982  26.287  0.00  0.00    +0.224 A 
ATOM      3  C   UNL A   1     -24.239   0.638  28.270  0.00  0.00    +0.011 A 
ATOM      4  F   UNL A   1     -20.640   1.034  28.114  0.00  0.00    -0.182 F 
ATOM      5  C   UNL A   1     -21.941   1.082  27.823  0.00  0.00    +0.241 A 
ATOM      6  N   UNL A   1     -22.176   1.726  26.725  0.00  0.00    -0.189 NA
ATOM      7  C   UNL A   1     -22.869   0.510  28.599  0.00  0.00    +0.132 A 
ATOM      8  N   UNL A   1     -22.400  -0.168  29.731  0.00  0.00    -0.124 NA
ATOM      9  F   UNL A   1     -23.391   2.791  25.061  0.00  0.00    -0.183 F 
ENDROOT
BRANCH   1  10
ATOM     10  C   UNL A   1     -25.688   1.614  26.461  0.00  0.00    +0.042 C 
ATOM     11  C   UNL A   1     -26.250   2.920  26.395  0.00  0.00    +0.077 C 
ATOM     12  C   UNL A   1     -27.438   3.091  25.645  0.00  0.00    +0.107 C 
ATOM     13  N   UNL A   1     -28.075   2.089  25.003  0.00  0.00    -0.208 NA
ATOM     14  C   UNL A   1     -27.543   0.849  25.079  0.00  0.00    +0.253 C 
ATOM     15  C   UNL A   1     -26.354   0.576  25.777  0.00  0.00    +0.193 C 
ATOM     16  F   UNL A   1     -25.860  -0.681  25.795  0.00  0.00    -0.199 F 
BRANCH  11  17
ATOM     17  C   UNL A   1     -25.642   4.093  27.123  0.00  0.00    +0.266 C 
ATOM     18  N   UNL A   1     -25.614   5.252  26.449  0.00  0.00    -0.200 NA
ATOM     19  C   UNL A   1     -25.026   6.479  26.963  0.00  0.00    +0.139 C 
ATOM     20  O   UNL A   1     -25.143   3.966  28.243  0.00  0.00    -0.268 OA
ENDBRANCH  11  17
BRANCH  14  21
ATOM     21  O   UNL A   1     -28.193  -0.208  24.477  0.00  0.00    -0.456 OA
BRANCH  21  22
ATOM     22  C   UNL A   1     -29.460   0.005  23.866  0.00  0.00    +0.243 C 
BRANCH  22  23
ATOM     23  C   UNL A   1     -30.065  -1.377  23.573  0.00  0.00    +0.229 C 
ATOM     24  O   UNL A   1     -30.729  -1.878  24.721  0.00  0.00    -0.216 OA
ENDBRANCH  22  23
ENDBRANCH  21  22
ENDBRANCH  14  21
ENDBRANCH   1  10
BRANCH   3  25
ATOM     25  C   UNL A   1     -25.287  -0.040  29.074  0.00  0.00    +0.107 C 
BRANCH  25  27
ATOM     26  O   UNL A   1     -27.624  -0.456  28.494  0.00  0.00    -0.273 OA
ATOM     27  C   UNL A   1     -26.746   0.344  28.920  0.00  0.00    +0.246 C 
ATOM     28  N   UNL A   1     -26.967   1.591  29.188  0.00  0.00    -0.202 NA
BRANCH  28  34
ATOM     29  C   UNL A   1     -27.678   3.314  30.494  0.00  0.00    -0.005 C 
ATOM     30  C   UNL A   1     -29.402   3.472  28.304  0.00  0.00    -0.024 C 
ATOM     31  C   UNL A   1     -28.017   4.542  29.979  0.00  0.00    -0.003 C 
ATOM     32  C   UNL A   1     -29.151   2.269  28.927  0.00  0.00    +0.052 C 
ATOM     33  C   UNL A   1     -28.807   4.606  28.835  0.00  0.00    -0.005 C 
ATOM     34  C   UNL A   1     -27.982   2.253  29.714  0.00  0.00    +0.121 C 
ENDBRANCH  28  34
ENDBRANCH  25  27
BRANCH  25  35
ATOM     35  C   UNL A   1     -24.855  -1.012  30.143  0.00  0.00    +0.051 C 
BRANCH  35  36
ATOM     36  C   UNL A   1     -24.973  -2.505  29.788  0.00  0.00    -0.020 C 
ATOM     37  C   UNL A   1     -23.906  -3.173  29.146  0.00  0.00    -0.004 C 
ATOM     38  C   UNL A   1     -23.989  -4.549  28.853  0.00  0.00    -0.000 C 
ATOM     39  C   UNL A   1     -25.137  -5.280  29.205  0.00  0.00    -0.000 C 
ATOM     40  C   UNL A   1     -26.232  -4.611  29.784  0.00  0.00    -0.000 C 
ATOM     41  C   UNL A   1     -26.155  -3.232  30.065  0.00  0.00    -0.004 C 
ENDBRANCH  35  36
BRANCH  35  42
ATOM     42  C   UNL A   1     -25.387  -0.679  31.571  0.00  0.00    +0.078 C 
ATOM     43  C   UNL A   1     -25.189   0.773  32.028  0.00  0.00    +0.019 C 
ATOM     44  C   UNL A   1     -25.336   0.684  33.544  0.00  0.00    +0.020 C 
ATOM     45  C   UNL A   1     -24.829  -0.715  33.905  0.00  0.00    +0.089 C 
ATOM     46  N   UNL A   1     -24.758  -1.481  32.646  0.00  0.00    -0.219 NA
ENDBRANCH  35  42
ENDBRANCH  25  35
ENDBRANCH   3  25
TORSDOF 11
