MODEL 4173
MODEL 1
REMARK VINA RESULT:    -5.766      0.000      0.000
REMARK INTER + INTRA:          -7.125
REMARK INTER:                  -6.778
REMARK INTRA:                  -0.347
REMARK UNBOUND:                -0.347
REMARK  Name = No_4173-gen_results/8p0m/2024-11-27-11-27-31/
REMARK  3 active torsions:
REMARK  status: ('A' for Active; 'I' for Inactive)
REMARK    1  A    between atoms: C_1  and  C_2
REMARK    2  A    between atoms: C_1  and  C_8
REMARK    3  A    between atoms: C_8  and  C_9
REMARK                            x       y       z     vdW  Elec       q    Type
REMARK                         _______ _______ _______ _____ _____    ______ ____
ROOT
ATOM      1  C   UNL A   1     -23.112  -1.153  28.866  0.00  0.00    -0.022 A 
ATOM      2  C   UNL A   1     -21.776  -0.802  28.963  0.00  0.00    -0.004 A 
ATOM      3  C   UNL A   1     -21.162   0.381  28.410  0.00  0.00    -0.000 A 
ATOM      4  C   UNL A   1     -21.971   1.289  27.688  0.00  0.00    -0.000 A 
ATOM      5  C   UNL A   1     -23.369   0.968  27.600  0.00  0.00    -0.000 A 
ATOM      6  C   UNL A   1     -23.936  -0.145  28.153  0.00  0.00    -0.004 A 
ENDROOT
BRANCH   1   7
ATOM      7  C   UNL A   1     -23.620  -2.115  29.396  0.00  0.00    +0.031 C 
BRANCH   7   8
ATOM      8  C   UNL A   1     -24.431  -3.065  28.585  0.00  0.00    +0.030 C 
BRANCH   8   9
ATOM      9  C   UNL A   1     -24.132  -4.453  28.593  0.00  0.00    -0.030 C 
ATOM     10  C   UNL A   1     -24.967  -5.239  29.260  0.00  0.00    -0.030 C 
ATOM     11  C   UNL A   1     -26.205  -4.793  29.653  0.00  0.00    +0.030 C 
ENDBRANCH   8   9
ENDBRANCH   7   8
ENDBRANCH   1   7
TORSDOF 3
ENDMDL
ENDMDL
