REMARK  Name = No_4174-gen_results/8p0m/2024-11-27-11-27-31/
REMARK  4 active torsions:
REMARK  status: ('A' for Active; 'I' for Inactive)
REMARK    1  A    between atoms: C_5  and  C_8
REMARK    2  A    between atoms: C_7  and  C_11
REMARK    3  A    between atoms: C_11  and  C_12
REMARK    4  A    between atoms: C_11  and  C_13
REMARK                            x       y       z     vdW  Elec       q    Type
REMARK                         _______ _______ _______ _____ _____    ______ ____
ROOT
ATOM      1 CL   UNL A   1     -28.149  -0.820  28.908  0.00  0.00    -0.083 Cl
ATOM      2  C   UNL A   1     -26.912  -0.080  28.945  0.00  0.00    +0.054 A 
ATOM      3  C   UNL A   1     -26.049  -0.072  27.859  0.00  0.00    +0.011 A 
ATOM      4  C   UNL A   1     -24.719   0.403  27.917  0.00  0.00    +0.005 A 
ATOM      5  C   UNL A   1     -24.210   0.930  29.084  0.00  0.00    +0.056 A 
ATOM      6  C   UNL A   1     -25.023   0.908  30.188  0.00  0.00    +0.002 A 
ATOM      7  C   UNL A   1     -26.253   0.390  30.140  0.00  0.00    -0.004 A 
ENDROOT
BRANCH   5   8
ATOM      8  C   UNL A   1     -22.850   1.448  29.059  0.00  0.00    +0.284 C 
ATOM      9  N   UNL A   1     -21.848   1.200  28.312  0.00  0.00    -0.084 NA
ATOM     10  O   UNL A   1     -22.416   1.864  30.194  0.00  0.00    -0.267 OA
ENDBRANCH   5   8
BRANCH   7  11
ATOM     11  C   UNL A   1     -27.084   0.356  31.428  0.00  0.00    +0.068 C 
BRANCH  11  12
ATOM     12  C   UNL A   1     -26.347   0.105  32.645  0.00  0.00    +0.002 C 
ATOM     13  C   UNL A   1     -25.451  -0.405  32.875  0.00  0.00    +0.102 C 
ATOM     14  N   UNL A   1     -25.040  -0.520  34.248  0.00  0.00    -0.127 NA
ENDBRANCH  11  12
BRANCH  11  15
ATOM     15  C   UNL A   1     -28.400   0.621  31.429  0.00  0.00    -0.018 C 
ATOM     16  C   UNL A   1     -29.045   0.970  32.603  0.00  0.00    -0.004 C 
ENDBRANCH  11  15
ENDBRANCH   7  11
TORSDOF 4
