REMARK  Name = outputs/IAG933/test6/raw/output_4175_IAG933_linker_design_.xyz
REMARK  16 active torsions:
REMARK  status: ('A' for Active; 'I' for Inactive)
REMARK    1  A    between atoms: C_1  and  C_2
REMARK    2  A    between atoms: C_1  and  C_8
REMARK    3  A    between atoms: C_1  and  N_36
REMARK    4  A    between atoms: C_14  and  C_15
REMARK    5  A    between atoms: C_15  and  O_18
REMARK    6  A    between atoms: O_18  and  C_41
REMARK    7  A    between atoms: C_21  and  O_22
REMARK    8  A    between atoms: O_22  and  C_23
REMARK    9  A    between atoms: C_23  and  C_24
REMARK   10  A    between atoms: C_30  and  C_31
REMARK   11  A    between atoms: C_31  and  N_36
REMARK   12  A    between atoms: C_31  and  N_40
REMARK   13  A    between atoms: C_32  and  N_38
REMARK   14  A    between atoms: C_32  and  C_42
REMARK   15  A    between atoms: N_40  and  C_41
REMARK   16  A    between atoms: C_41  and  C_43
REMARK                            x       y       z     vdW  Elec       q    Type
REMARK                         _______ _______ _______ _____ _____    ______ ____
ROOT
ATOM      1  C   UNL A   1     -25.196   2.896  29.110  0.00  0.00    +0.323 C 
ENDROOT
BRANCH   1   4
ATOM      2  N   UNL A   1     -27.069   3.933  30.126  0.00  0.00    -0.196 NA
ATOM      3  O   UNL A   1     -25.234   3.780  31.416  0.00  0.00    -0.268 OA
ATOM      4  C   UNL A   1     -25.837   3.571  30.355  0.00  0.00    +0.300 C 
BRANCH   2   5
ATOM      5  C   UNL A   1     -28.027   2.979  30.279  0.00  0.00    +0.142 C 
BRANCH   5  11
ATOM      6  C   UNL A   1     -27.960  -0.459  28.781  0.00  0.00    -0.000 C 
ATOM      7  C   UNL A   1     -29.108  -0.316  28.014  0.00  0.00    -0.000 C 
ATOM      8  C   UNL A   1     -29.737   0.932  27.909  0.00  0.00    -0.000 C 
ATOM      9  C   UNL A   1     -27.451   0.666  29.466  0.00  0.00    -0.003 C 
ATOM     10  C   UNL A   1     -29.290   2.030  28.615  0.00  0.00    -0.003 C 
ATOM     11  C   UNL A   1     -28.186   1.871  29.451  0.00  0.00    -0.001 C 
ENDBRANCH   5  11
ENDBRANCH   2   5
ENDBRANCH   1   4
BRANCH   1  12
ATOM     12  O   UNL A   1     -25.143   3.966  28.243  0.00  0.00    -0.438 OA
BRANCH  12  13
ATOM     13  C   UNL A   1     -25.642   4.093  27.123  0.00  0.00    +0.224 C 
ATOM     14  N   UNL A   1     -25.614   5.252  26.449  0.00  0.00    -0.236 NA
ATOM     15  C   UNL A   1     -25.026   6.479  26.963  0.00  0.00    +0.155 C 
BRANCH  13  17
ATOM     16  C   UNL A   1     -25.688   1.614  26.461  0.00  0.00    +0.041 C 
ATOM     17  C   UNL A   1     -26.250   2.920  26.395  0.00  0.00    +0.074 C 
ATOM     18  C   UNL A   1     -27.438   3.091  25.645  0.00  0.00    +0.107 C 
ATOM     19  N   UNL A   1     -28.075   2.089  25.003  0.00  0.00    -0.208 NA
ATOM     20  C   UNL A   1     -27.543   0.849  25.079  0.00  0.00    +0.253 C 
ATOM     21  C   UNL A   1     -26.354   0.576  25.777  0.00  0.00    +0.193 C 
ATOM     22  F   UNL A   1     -25.860  -0.681  25.795  0.00  0.00    -0.199 F 
BRANCH  20  23
ATOM     23  O   UNL A   1     -28.193  -0.208  24.477  0.00  0.00    -0.456 OA
BRANCH  23  24
ATOM     24  C   UNL A   1     -29.460   0.005  23.866  0.00  0.00    +0.243 C 
BRANCH  24  25
ATOM     25  C   UNL A   1     -30.065  -1.377  23.573  0.00  0.00    +0.229 C 
ATOM     26  O   UNL A   1     -30.729  -1.878  24.721  0.00  0.00    -0.216 OA
ENDBRANCH  24  25
ENDBRANCH  23  24
ENDBRANCH  20  23
ENDBRANCH  13  17
ENDBRANCH  12  13
ENDBRANCH   1  12
BRANCH   1  27
ATOM     27  N   UNL A   1     -23.965   2.156  28.720  0.00  0.00    -0.156 NA
BRANCH  27  28
ATOM     28  C   UNL A   1     -23.464   0.933  28.886  0.00  0.00    +0.149 C 
BRANCH  28  29
ATOM     29  C   UNL A   1     -21.997   0.560  28.522  0.00  0.00    +0.035 C 
ATOM     30  C   UNL A   1     -21.279   1.644  27.713  0.00  0.00    +0.003 C 
ENDBRANCH  28  29
BRANCH  28  31
ATOM     31  N   UNL A   1     -24.244  -0.224  29.061  0.00  0.00    -0.198 NA
BRANCH  31  32
ATOM     32  C   UNL A   1     -24.855  -1.012  30.143  0.00  0.00    +0.112 C 
BRANCH  32  33
ATOM     33  C   UNL A   1     -24.973  -2.505  29.788  0.00  0.00    -0.005 C 
ATOM     34  C   UNL A   1     -23.906  -3.173  29.146  0.00  0.00    -0.003 C 
ATOM     35  C   UNL A   1     -23.989  -4.549  28.853  0.00  0.00    -0.000 C 
ATOM     36  C   UNL A   1     -25.137  -5.280  29.205  0.00  0.00    -0.000 C 
ATOM     37  C   UNL A   1     -26.232  -4.611  29.784  0.00  0.00    -0.000 C 
ATOM     38  C   UNL A   1     -26.155  -3.232  30.065  0.00  0.00    -0.003 C 
ENDBRANCH  32  33
BRANCH  32  39
ATOM     39  C   UNL A   1     -25.387  -0.679  31.571  0.00  0.00    +0.093 C 
ATOM     40  C   UNL A   1     -25.189   0.773  32.028  0.00  0.00    +0.021 C 
ATOM     41  C   UNL A   1     -25.336   0.684  33.544  0.00  0.00    +0.020 C 
ATOM     42  C   UNL A   1     -24.829  -0.715  33.905  0.00  0.00    +0.089 C 
ATOM     43  N   UNL A   1     -24.758  -1.481  32.646  0.00  0.00    -0.218 NA
ENDBRANCH  32  39
ENDBRANCH  31  32
ENDBRANCH  28  31
ENDBRANCH  27  28
ENDBRANCH   1  27
TORSDOF 16
