MODEL 4177
MODEL 1
REMARK VINA RESULT:    -5.010      0.000      0.000
REMARK INTER + INTRA:          -5.392
REMARK INTER:                  -5.303
REMARK INTRA:                  -0.090
REMARK UNBOUND:                -0.090
REMARK  Name = No_4177-gen_results/8p0m/2024-11-27-11-27-31/
REMARK  1 active torsions:
REMARK  status: ('A' for Active; 'I' for Inactive)
REMARK    1  A    between atoms: C_3  and  C_4
REMARK                            x       y       z     vdW  Elec       q    Type
REMARK                         _______ _______ _______ _____ _____    ______ ____
ROOT
ATOM      1  C   UNL A   1     -25.785  -2.583  29.743  0.00  0.00    -0.000 A 
ATOM      2  C   UNL A   1     -26.385  -3.441  29.864  0.00  0.00    -0.000 A 
ATOM      3  C   UNL A   1     -24.487  -2.757  29.215  0.00  0.00    -0.000 A 
ATOM      4  C   UNL A   1     -26.116  -4.863  29.589  0.00  0.00    -0.000 A 
ATOM      5  C   UNL A   1     -24.847  -5.112  29.066  0.00  0.00    -0.000 A 
ATOM      6  C   UNL A   1     -24.015  -4.066  28.821  0.00  0.00    -0.000 A 
ENDROOT
BRANCH   3   7
ATOM      7  C   UNL A   1     -23.557  -1.647  28.879  0.00  0.00    -0.005 C 
ATOM      8  C   UNL A   1     -22.889  -0.945  29.468  0.00  0.00    -0.026 C 
ATOM      9  C   UNL A   1     -23.139  -1.030  30.984  0.00  0.00    +0.031 C 
ENDBRANCH   3   7
TORSDOF 1
ENDMDL
ENDMDL
