REMARK  Name = outputs/IAG933/test6/raw/output_4178_IAG933_linker_design_.xyz
REMARK  9 active torsions:
REMARK  status: ('A' for Active; 'I' for Inactive)
REMARK    1  A    between atoms: C_1  and  C_2
REMARK    2  A    between atoms: C_1  and  C_8
REMARK    3  A    between atoms: C_1  and  C_36
REMARK    4  A    between atoms: C_13  and  C_35
REMARK    5  A    between atoms: C_14  and  C_15
REMARK    6  A    between atoms: C_21  and  O_22
REMARK    7  A    between atoms: O_22  and  C_23
REMARK    8  A    between atoms: C_23  and  C_24
REMARK    9  A    between atoms: N_30  and  C_41
REMARK                            x       y       z     vdW  Elec       q    Type
REMARK                         _______ _______ _______ _____ _____    ______ ____
ROOT
ATOM      1  C   UNL A   1     -22.006   1.809  27.763  0.00  0.00    +0.241 C 
ATOM      2  O   UNL A   1     -21.953   2.104  26.434  0.00  0.00    -0.302 OA
ATOM      3  O   UNL A   1     -20.560   1.669  28.146  0.00  0.00    -0.330 OA
ATOM      4  C   UNL A   1     -20.534   0.271  28.670  0.00  0.00    +0.148 C 
ATOM      5  C   UNL A   1     -19.991  -0.439  27.780  0.00  0.00    +0.035 C 
ATOM      6  C   UNL A   1     -24.231   1.513  26.689  0.00  0.00    +0.089 C 
ATOM      7  C   UNL A   1     -22.783   0.761  28.202  0.00  0.00    +0.109 C 
ATOM      8  O   UNL A   1     -22.073  -0.422  30.200  0.00  0.00    -0.220 OA
ATOM      9  F   UNL A   1     -23.047   2.473  24.713  0.00  0.00    -0.204 F 
ATOM     10  C   UNL A   1     -22.015   0.014  28.951  0.00  0.00    +0.185 C 
ATOM     11  C   UNL A   1     -23.945   0.841  27.796  0.00  0.00    +0.108 C 
ATOM     12  C   UNL A   1     -23.097   2.027  25.987  0.00  0.00    +0.282 C 
ENDROOT
BRANCH   6  13
ATOM     13  C   UNL A   1     -25.688   1.614  26.461  0.00  0.00    +0.077 C 
ATOM     14  C   UNL A   1     -26.250   2.920  26.395  0.00  0.00    +0.055 C 
ATOM     15  C   UNL A   1     -27.438   3.091  25.645  0.00  0.00    +0.102 C 
ATOM     16  N   UNL A   1     -28.075   2.089  25.003  0.00  0.00    -0.212 NA
ATOM     17  C   UNL A   1     -27.543   0.849  25.079  0.00  0.00    +0.234 C 
ATOM     18  C   UNL A   1     -26.354   0.576  25.777  0.00  0.00    +0.240 C 
ATOM     19  F   UNL A   1     -25.860  -0.681  25.795  0.00  0.00    -0.227 F 
BRANCH  14  20
ATOM     20  C   UNL A   1     -25.642   4.093  27.123  0.00  0.00    +0.262 C 
ATOM     21  N   UNL A   1     -25.614   5.252  26.449  0.00  0.00    -0.200 NA
ATOM     22  C   UNL A   1     -25.026   6.479  26.963  0.00  0.00    +0.139 C 
ATOM     23  O   UNL A   1     -25.143   3.966  28.243  0.00  0.00    -0.269 OA
ENDBRANCH  14  20
BRANCH  17  24
ATOM     24  O   UNL A   1     -28.193  -0.208  24.477  0.00  0.00    -0.459 OA
BRANCH  24  25
ATOM     25  C   UNL A   1     -29.460   0.005  23.866  0.00  0.00    +0.242 C 
BRANCH  25  26
ATOM     26  C   UNL A   1     -30.065  -1.377  23.573  0.00  0.00    +0.229 C 
ATOM     27  O   UNL A   1     -30.729  -1.878  24.721  0.00  0.00    -0.216 OA
ENDBRANCH  25  26
ENDBRANCH  24  25
ENDBRANCH  17  24
ENDBRANCH   6  13
BRANCH  11  28
ATOM     28  N   UNL A   1     -24.921   1.097  28.814  0.00  0.00    -0.206 NA
ATOM     29  O   UNL A   1     -26.635  -0.509  28.523  0.00  0.00    -0.273 OA
ATOM     30  C   UNL A   1     -25.608  -0.109  29.081  0.00  0.00    +0.246 C 
BRANCH  30  31
ATOM     31  C   UNL A   1     -24.855  -1.012  30.143  0.00  0.00    +0.116 C 
BRANCH  31  32
ATOM     32  C   UNL A   1     -24.973  -2.505  29.788  0.00  0.00    -0.013 C 
ATOM     33  C   UNL A   1     -23.906  -3.173  29.146  0.00  0.00    -0.004 C 
ATOM     34  C   UNL A   1     -23.989  -4.549  28.853  0.00  0.00    -0.000 C 
ATOM     35  C   UNL A   1     -25.137  -5.280  29.205  0.00  0.00    -0.000 C 
ATOM     36  C   UNL A   1     -26.232  -4.611  29.784  0.00  0.00    -0.000 C 
ATOM     37  C   UNL A   1     -26.155  -3.232  30.065  0.00  0.00    -0.004 C 
ENDBRANCH  31  32
BRANCH  31  38
ATOM     38  C   UNL A   1     -25.387  -0.679  31.571  0.00  0.00    +0.086 C 
ATOM     39  C   UNL A   1     -25.189   0.773  32.028  0.00  0.00    +0.020 C 
ATOM     40  C   UNL A   1     -25.336   0.684  33.544  0.00  0.00    +0.020 C 
ATOM     41  C   UNL A   1     -24.829  -0.715  33.905  0.00  0.00    +0.089 C 
ATOM     42  N   UNL A   1     -24.758  -1.481  32.646  0.00  0.00    -0.219 NA
ENDBRANCH  31  38
ENDBRANCH  30  31
ENDBRANCH  11  28
TORSDOF 9
