MODEL 4178
MODEL 1
REMARK VINA RESULT:    -4.412      0.000      0.000
REMARK INTER + INTRA:          -4.412
REMARK INTER:                  -4.412
REMARK INTRA:                   0.000
REMARK UNBOUND:                 0.000
REMARK  Name = No_4178-gen_results/8p0m/2024-11-27-11-27-31/
REMARK  0 active torsions:
REMARK  status: ('A' for Active; 'I' for Inactive)
REMARK                            x       y       z     vdW  Elec       q    Type
REMARK                         _______ _______ _______ _____ _____    ______ ____
ROOT
ATOM      1  C   UNL A   1      -9.134  -9.282  20.018  0.00  0.00    +0.011 A 
ATOM      2  C   UNL A   1      -8.334  -9.895  19.713  0.00  0.00    +0.058 A 
ATOM      3  C   UNL A   1     -10.301  -9.209  19.059  0.00  0.00    +0.001 A 
ATOM      4  C   UNL A   1     -10.316 -10.047  17.924  0.00  0.00    +0.000 A 
ATOM      5  C   UNL A   1      -8.116 -10.876  18.625  0.00  0.00    +0.011 A 
ATOM      6  C   UNL A   1      -9.172 -10.842  17.725  0.00  0.00    +0.001 A 
ATOM      7 CL   UNL A   1      -7.001  -9.817  20.929  0.00  0.00    -0.082 Cl
ENDROOT
TORSDOF 0
ENDMDL
ENDMDL
