MODEL 4179
MODEL 1
REMARK VINA RESULT:    -6.646      0.000      0.000
REMARK INTER + INTRA:          -7.829
REMARK INTER:                  -7.424
REMARK INTRA:                  -0.405
REMARK UNBOUND:                -0.405
REMARK  Name = No_4179-gen_results/8p0m/2024-11-27-11-27-31/
REMARK  2 active torsions:
REMARK  status: ('A' for Active; 'I' for Inactive)
REMARK    1  A    between atoms: C_2  and  N_7
REMARK    2  A    between atoms: N_7  and  C_8
REMARK                            x       y       z     vdW  Elec       q    Type
REMARK                         _______ _______ _______ _____ _____    ______ ____
ROOT
ATOM      1  N   UNL A   1     -25.094  -1.256  29.552  0.00  0.00    -0.212 NA
ENDROOT
BRANCH   1   2
ATOM      2  C   UNL A   1     -24.615  -0.384  28.447  0.00  0.00    +0.070 A 
ATOM      3  C   UNL A   1     -23.463   0.288  28.473  0.00  0.00    +0.012 A 
ATOM      4  C   UNL A   1     -23.091   1.022  27.335  0.00  0.00    -0.021 A 
ATOM      5  C   UNL A   1     -23.960   1.114  26.243  0.00  0.00    -0.004 A 
ATOM      6  C   UNL A   1     -25.402  -0.382  27.291  0.00  0.00    +0.017 A 
ATOM      7  C   UNL A   1     -25.104   0.394  26.227  0.00  0.00    +0.001 A 
ATOM      8  C   UNL A   1     -21.811   1.831  27.294  0.00  0.00    +0.031 C 
ENDBRANCH   1   2
BRANCH   1  10
ATOM      9  C   UNL A   1     -26.037  -3.209  29.843  0.00  0.00    +0.017 A 
ATOM     10  C   UNL A   1     -25.049  -2.650  29.426  0.00  0.00    +0.070 A 
ATOM     11  C   UNL A   1     -24.009  -3.291  28.835  0.00  0.00    +0.017 A 
ATOM     12  C   UNL A   1     -24.077  -4.690  28.695  0.00  0.00    +0.001 A 
ATOM     13  C   UNL A   1     -26.217  -4.625  29.647  0.00  0.00    +0.001 A 
ATOM     14  C   UNL A   1     -25.188  -5.319  29.085  0.00  0.00    +0.000 A 
ENDBRANCH   1  10
TORSDOF 2
ENDMDL
ENDMDL
