MODEL 417
MODEL 1
REMARK VINA RESULT:    -6.187      0.000      0.000
REMARK INTER + INTRA:          -7.268
REMARK INTER:                  -6.910
REMARK INTRA:                  -0.358
REMARK UNBOUND:                -0.358
REMARK  Name = No_417-gen_results/8p0m/2024-11-27-11-27-31/
REMARK  2 active torsions:
REMARK  status: ('A' for Active; 'I' for Inactive)
REMARK    1  A    between atoms: C_3  and  C_14
REMARK    2  A    between atoms: C_5  and  C_11
REMARK                            x       y       z     vdW  Elec       q    Type
REMARK                         _______ _______ _______ _____ _____    ______ ____
ROOT
ATOM      1  C   UNL A   1     -30.798  -9.865  29.786  0.00  0.00    +0.021 A 
ATOM      2  C   UNL A   1     -29.989 -10.241  30.603  0.00  0.00    +0.004 A 
ATOM      3  C   UNL A   1     -29.157 -11.338  30.454  0.00  0.00    +0.026 A 
ATOM      4  C   UNL A   1     -28.243 -11.857  31.442  0.00  0.00    +0.006 A 
ATOM      5  C   UNL A   1     -28.157 -11.203  32.694  0.00  0.00    +0.080 A 
ATOM      6  C   UNL A   1     -28.982 -10.068  32.911  0.00  0.00    +0.009 A 
ATOM      7  C   UNL A   1     -29.834  -9.673  31.927  0.00  0.00    +0.029 A 
ATOM      8  C   UNL A   1     -31.547  -8.588  30.012  0.00  0.00    +0.100 A 
ATOM      9  N   UNL A   1     -31.540  -8.054  31.276  0.00  0.00    -0.232 NA
ATOM     10  C   UNL A   1     -30.678  -8.521  32.233  0.00  0.00    +0.138 A 
ATOM     11 CL   UNL A   1     -30.605  -7.720  33.686  0.00  0.00    -0.061 Cl
ENDROOT
BRANCH   5  12
ATOM     12  C   UNL A   1     -27.214 -11.673  33.733  0.00  0.00    +0.388 C 
ATOM     13  O   UNL A   1     -27.014 -10.892  34.685  0.00  0.00    -0.241 OA
ATOM     14  O   UNL A   1     -26.727 -12.840  33.695  0.00  0.00    -0.241 OA
ENDBRANCH   5  12
BRANCH   3  15
ATOM     15  C   UNL A   1     -29.210 -12.158  29.215  0.00  0.00    +0.262 C 
ATOM     16 CL   UNL A   1     -29.843 -13.570  29.130  0.00  0.00    -0.072 Cl
ATOM     17  F   UNL A   1     -28.517 -11.738  28.237  0.00  0.00    -0.214 F 
ENDBRANCH   3  15
TORSDOF 2
ENDMDL
ENDMDL
