MODEL 4180
MODEL 1
REMARK VINA RESULT:    -7.681      0.000      0.000
REMARK INTER + INTRA:         -10.584
REMARK INTER:                  -9.478
REMARK INTRA:                  -1.106
REMARK UNBOUND:                -1.106
REMARK  Name = No_4180-gen_results/8p0m/2024-11-27-11-27-31/
REMARK  4 active torsions:
REMARK  status: ('A' for Active; 'I' for Inactive)
REMARK    1  A    between atoms: C_4  and  C_11
REMARK    2  A    between atoms: C_7  and  C_18
REMARK    3  A    between atoms: N_20  and  C_21
REMARK    4  A    between atoms: C_21  and  C_22
REMARK                            x       y       z     vdW  Elec       q    Type
REMARK                         _______ _______ _______ _____ _____    ______ ____
ROOT
ATOM      1  C   UNL A   1     -27.846   1.948  24.013  0.00  0.00    +0.005 A 
ATOM      2  C   UNL A   1     -28.971   1.993  23.572  0.00  0.00    +0.000 A 
ATOM      3  C   UNL A   1     -29.807   0.882  23.476  0.00  0.00    +0.000 A 
ATOM      4  C   UNL A   1     -31.183   0.845  22.943  0.00  0.00    +0.002 A 
ATOM      5  C   UNL A   1     -32.005  -0.331  22.820  0.00  0.00    +0.000 A 
ATOM      6  C   UNL A   1     -31.494  -1.471  23.450  0.00  0.00    +0.000 A 
ATOM      7  C   UNL A   1     -27.279   0.590  24.320  0.00  0.00    +0.055 A 
ATOM      8  C   UNL A   1     -28.056  -0.546  24.338  0.00  0.00    +0.005 A 
ATOM      9  C   UNL A   1     -29.358  -0.477  23.875  0.00  0.00    +0.000 A 
ATOM     10  C   UNL A   1     -30.191  -1.595  23.881  0.00  0.00    +0.000 A 
ENDROOT
BRANCH   4  11
ATOM     11  C   UNL A   1     -31.822   2.100  22.430  0.00  0.00    +0.028 A 
ATOM     12  C   UNL A   1     -32.369   2.884  23.286  0.00  0.00    +0.140 A 
ATOM     13  C   UNL A   1     -33.139   3.983  22.864  0.00  0.00    +0.030 A 
ATOM     14  C   UNL A   1     -31.810   2.326  21.078  0.00  0.00    +0.002 A 
ATOM     15  C   UNL A   1     -32.457   3.453  20.557  0.00  0.00    +0.000 A 
ATOM     16  C   UNL A   1     -33.053   4.347  21.474  0.00  0.00    +0.002 A 
ATOM     17  F   UNL A   1     -32.420   2.706  24.596  0.00  0.00    -0.204 F 
ENDBRANCH   4  11
BRANCH   7  18
ATOM     18  C   UNL A   1     -25.850   0.546  24.808  0.00  0.00    +0.265 C 
ATOM     19  O   UNL A   1     -24.988   0.004  24.353  0.00  0.00    -0.268 OA
ATOM     20  N   UNL A   1     -25.763   0.916  26.180  0.00  0.00    -0.195 NA
BRANCH  20  21
ATOM     21  C   UNL A   1     -24.467   1.003  26.865  0.00  0.00    +0.161 C 
BRANCH  21  22
ATOM     22  C   UNL A   1     -24.305   0.041  27.870  0.00  0.00    +0.081 A 
ATOM     23  N   UNL A   1     -25.144  -0.900  27.857  0.00  0.00    -0.246 NA
ATOM     24  C   UNL A   1     -24.998  -2.062  28.444  0.00  0.00    +0.099 A 
ATOM     25  C   UNL A   1     -23.876  -2.179  29.265  0.00  0.00    +0.021 A 
ATOM     26  C   UNL A   1     -22.881  -1.126  29.313  0.00  0.00    +0.003 A 
ATOM     27  C   UNL A   1     -23.068  -0.083  28.500  0.00  0.00    +0.017 A 
ENDBRANCH  21  22
ENDBRANCH  20  21
ENDBRANCH   7  18
TORSDOF 4
ENDMDL
ENDMDL
