MODEL 4181
MODEL 1
REMARK VINA RESULT:    -4.740      0.000      0.000
REMARK INTER + INTRA:          -5.493
REMARK INTER:                  -5.294
REMARK INTRA:                  -0.200
REMARK UNBOUND:                -0.200
REMARK  Name = No_4181-gen_results/8p0m/2024-11-27-11-27-31/
REMARK  3 active torsions:
REMARK  status: ('A' for Active; 'I' for Inactive)
REMARK    1  A    between atoms: C_1  and  C_3
REMARK    2  A    between atoms: C_2  and  C_6
REMARK    3  A    between atoms: C_4  and  C_5
REMARK                            x       y       z     vdW  Elec       q    Type
REMARK                         _______ _______ _______ _____ _____    ______ ____
ROOT
ATOM      1  C   UNL A   1     -24.328  -1.097  28.505  0.00  0.00    +0.060 C 
ATOM      2  C   UNL A   1     -24.953  -2.386  28.523  0.00  0.00    +0.091 C 
ATOM      3 CL   UNL A   1     -24.834  -2.590  28.788  0.00  0.00    -0.082 Cl
ENDROOT
BRANCH   2   4
ATOM      4  C   UNL A   1     -24.234  -3.440  29.177  0.00  0.00    +0.273 C 
ATOM      5 CL   UNL A   1     -23.904  -4.854  28.328  0.00  0.00    -0.071 Cl
ATOM      6  F   UNL A   1     -25.236  -3.884  29.388  0.00  0.00    -0.213 F 
ENDBRANCH   2   4
BRANCH   1   7
ATOM      7  C   UNL A   1     -23.033  -1.194  29.070  0.00  0.00    -0.062 C 
ATOM      8  C   UNL A   1     -22.077  -0.751  29.094  0.00  0.00    -0.068 C 
BRANCH   8   9
ATOM      9  C   UNL A   1     -22.089   0.566  28.337  0.00  0.00    +0.170 C 
ATOM     10 CL   UNL A   1     -21.675   1.202  27.819  0.00  0.00    -0.098 Cl
ENDBRANCH   8   9
ENDBRANCH   1   7
TORSDOF 3
ENDMDL
ENDMDL
