REMARK  Name = No_4183-gen_results/8p0m/2024-11-27-11-27-31/
REMARK  8 active torsions:
REMARK  status: ('A' for Active; 'I' for Inactive)
REMARK    1  A    between atoms: C_2  and  C_8
REMARK    2  A    between atoms: C_3  and  C_11
REMARK    3  A    between atoms: C_11  and  C_12
REMARK    4  A    between atoms: C_12  and  C_14
REMARK    5  A    between atoms: C_13  and  C_16
REMARK    6  A    between atoms: C_15  and  C_17
REMARK    7  A    between atoms: C_18  and  C_19
REMARK    8  A    between atoms: C_21  and  C_22
REMARK                            x       y       z     vdW  Elec       q    Type
REMARK                         _______ _______ _______ _____ _____    ______ ____
ROOT
ATOM      1  C   UNL A   1     -25.970   0.240  26.647  0.00  0.00    -0.022 C 
ATOM      2  C   UNL A   1     -25.054   0.658  25.777  0.00  0.00    -0.030 C 
ENDROOT
BRANCH   1   3
ATOM      3  C   UNL A   1     -27.278   0.157  26.019  0.00  0.00    -0.004 C 
ATOM      4  C   UNL A   1     -27.577   0.790  24.849  0.00  0.00    -0.000 C 
BRANCH   4   5
ATOM      5  C   UNL A   1     -28.936   0.862  24.542  0.00  0.00    -0.000 C 
ATOM      6  C   UNL A   1     -29.814   0.386  25.323  0.00  0.00    -0.000 C 
BRANCH   6   7
ATOM      7  C   UNL A   1     -31.184   0.417  24.858  0.00  0.00    -0.000 C 
ATOM      8  C   UNL A   1     -32.258  -0.157  25.645  0.00  0.00    -0.000 C 
BRANCH   8   9
ATOM      9  C   UNL A   1     -33.519  -0.100  25.263  0.00  0.00    -0.005 C 
ATOM     10  C   UNL A   1     -33.803   0.509  24.008  0.00  0.00    -0.026 C 
ATOM     11  C   UNL A   1     -32.828   1.066  23.221  0.00  0.00    +0.031 C 
ENDBRANCH   8   9
ENDBRANCH   6   7
ENDBRANCH   4   5
ENDBRANCH   1   3
BRANCH   2  12
ATOM     12  C   UNL A   1     -23.603   0.785  26.254  0.00  0.00    +0.026 C 
ATOM     13  C   UNL A   1     -23.265   0.726  27.589  0.00  0.00    +0.005 C 
ENDBRANCH   2  12
BRANCH   1  14
ATOM     14  C   UNL A   1     -25.645  -0.700  27.654  0.00  0.00    +0.053 C 
BRANCH  14  17
ATOM     15  C   UNL A   1     -28.016  -0.814  28.878  0.00  0.00    +0.004 A 
ATOM     16  C   UNL A   1     -28.469  -0.785  29.829  0.00  0.00    +0.080 A 
ATOM     17  C   UNL A   1     -26.504  -0.778  28.877  0.00  0.00    -0.007 A 
ATOM     18  C   UNL A   1     -25.810  -0.853  30.103  0.00  0.00    +0.054 A 
ATOM     19  C   UNL A   1     -27.991  -0.892  31.226  0.00  0.00    +0.007 A 
ATOM     20  C   UNL A   1     -26.604  -0.868  31.265  0.00  0.00    +0.011 A 
ATOM     21 CL   UNL A   1     -24.165  -0.791  30.172  0.00  0.00    -0.083 Cl
BRANCH  16  22
ATOM     22  C   UNL A   1     -30.099  -0.836  29.851  0.00  0.00    +0.388 C 
ATOM     23  O   UNL A   1     -30.743  -1.667  30.199  0.00  0.00    -0.241 OA
ATOM     24  O   UNL A   1     -30.623   0.227  29.282  0.00  0.00    -0.241 OA
ENDBRANCH  16  22
ENDBRANCH  14  17
ENDBRANCH   1  14
TORSDOF 8
