MODEL 4183
MODEL 1
REMARK VINA RESULT:    -6.454      0.000      0.000
REMARK INTER + INTRA:         -11.287
REMARK INTER:                  -9.472
REMARK INTRA:                  -1.815
REMARK UNBOUND:                -1.815
REMARK  Name = No_4183-gen_results/8p0m/2024-11-27-11-27-31/
REMARK  8 active torsions:
REMARK  status: ('A' for Active; 'I' for Inactive)
REMARK    1  A    between atoms: C_2  and  C_8
REMARK    2  A    between atoms: C_3  and  C_11
REMARK    3  A    between atoms: C_11  and  C_12
REMARK    4  A    between atoms: C_12  and  C_14
REMARK    5  A    between atoms: C_13  and  C_16
REMARK    6  A    between atoms: C_15  and  C_17
REMARK    7  A    between atoms: C_18  and  C_19
REMARK    8  A    between atoms: C_21  and  C_22
REMARK                            x       y       z     vdW  Elec       q    Type
REMARK                         _______ _______ _______ _____ _____    ______ ____
ROOT
ATOM      1  C   UNL A   1     -24.871   0.708  27.787  0.00  0.00    -0.022 C 
ATOM      2  C   UNL A   1     -23.708   0.695  27.141  0.00  0.00    -0.030 C 
ENDROOT
BRANCH   1   3
ATOM      3  C   UNL A   1     -25.964   0.378  26.887  0.00  0.00    -0.004 C 
ATOM      4  C   UNL A   1     -25.765  -0.032  25.602  0.00  0.00    -0.000 C 
BRANCH   4   5
ATOM      5  C   UNL A   1     -26.898  -0.015  24.790  0.00  0.00    -0.000 C 
ATOM      6  C   UNL A   1     -27.193   1.001  24.091  0.00  0.00    -0.000 C 
BRANCH   6   7
ATOM      7  C   UNL A   1     -28.446   0.953  23.369  0.00  0.00    -0.000 C 
ATOM      8  C   UNL A   1     -29.660   0.472  24.001  0.00  0.00    -0.000 C 
BRANCH   8   9
ATOM      9  C   UNL A   1     -30.822   0.462  23.378  0.00  0.00    -0.005 C 
ATOM     10  C   UNL A   1     -31.581  -0.742  23.413  0.00  0.00    -0.026 C 
ATOM     11  C   UNL A   1     -31.128  -1.882  24.025  0.00  0.00    +0.031 C 
ENDBRANCH   8   9
ENDBRANCH   6   7
ENDBRANCH   4   5
ENDBRANCH   1   3
BRANCH   2  12
ATOM     12  C   UNL A   1     -22.433   0.998  27.936  0.00  0.00    +0.026 C 
ATOM     13  C   UNL A   1     -21.379   1.698  27.388  0.00  0.00    +0.005 C 
ENDBRANCH   2  12
BRANCH   1  14
ATOM     14  C   UNL A   1     -24.962   0.294  29.137  0.00  0.00    +0.053 C 
BRANCH  14  17
ATOM     15  C   UNL A   1     -24.702  -2.362  29.047  0.00  0.00    +0.004 A 
ATOM     16  C   UNL A   1     -25.209  -3.260  29.264  0.00  0.00    +0.080 A 
ATOM     17  C   UNL A   1     -25.428  -1.095  29.440  0.00  0.00    -0.007 A 
ATOM     18  C   UNL A   1     -26.628  -1.186  30.177  0.00  0.00    +0.054 A 
ATOM     19  C   UNL A   1     -26.418  -3.627  30.035  0.00  0.00    +0.007 A 
ATOM     20  C   UNL A   1     -27.110  -2.486  30.418  0.00  0.00    +0.011 A 
ATOM     21 CL   UNL A   1     -27.481   0.155  30.611  0.00  0.00    -0.083 Cl
BRANCH  16  22
ATOM     22  C   UNL A   1     -24.435  -4.638  28.860  0.00  0.00    +0.388 C 
ATOM     23  O   UNL A   1     -23.502  -4.740  28.273  0.00  0.00    -0.241 OA
ATOM     24  O   UNL A   1     -25.118  -5.700  29.226  0.00  0.00    -0.241 OA
ENDBRANCH  16  22
ENDBRANCH  14  17
ENDBRANCH   1  14
TORSDOF 8
ENDMDL
ENDMDL
