REMARK  Name = No_4184-gen_results/8p0m/2024-11-27-11-27-31/
REMARK  5 active torsions:
REMARK  status: ('A' for Active; 'I' for Inactive)
REMARK    1  A    between atoms: C_5  and  C_8
REMARK    2  A    between atoms: C_7  and  O_16
REMARK    3  A    between atoms: O_16  and  C_17
REMARK    4  A    between atoms: C_20  and  C_23
REMARK    5  A    between atoms: N_24  and  C_25
REMARK                            x       y       z     vdW  Elec       q    Type
REMARK                         _______ _______ _______ _____ _____    ______ ____
ROOT
ATOM      1 CL   UNL A   1     -28.149  -0.820  28.908  0.00  0.00    -0.079 Cl
ATOM      2  C   UNL A   1     -27.834   0.496  29.060  0.00  0.00    +0.092 A 
ATOM      3  C   UNL A   1     -27.602   1.013  30.297  0.00  0.00    +0.015 A 
ATOM      4  C   UNL A   1     -27.170   2.396  30.534  0.00  0.00    +0.006 A 
ATOM      5  C   UNL A   1     -26.913   3.183  29.368  0.00  0.00    +0.057 A 
ATOM      6  C   UNL A   1     -27.055   2.622  28.138  0.00  0.00    +0.043 A 
ATOM      7  C   UNL A   1     -27.462   1.335  27.967  0.00  0.00    +0.156 A 
ENDROOT
BRANCH   5   8
ATOM      8  C   UNL A   1     -26.451   4.568  29.581  0.00  0.00    +0.249 C 
ATOM      9  N   UNL A   1     -27.109   5.554  29.369  0.00  0.00    -0.276 N 
ATOM     10  O   UNL A   1     -25.206   4.713  30.040  0.00  0.00    -0.270 OA
ATOM     11  C   UNL A   1     -26.583   6.981  29.527  0.00  0.00    +0.094 C 
ATOM     12  C   UNL A   1     -28.443   5.502  28.781  0.00  0.00    +0.094 C 
ATOM     13  C   UNL A   1     -26.632   7.757  28.730  0.00  0.00    +0.022 C 
ATOM     14  C   UNL A   1     -27.996   8.053  28.143  0.00  0.00    +0.004 C 
ATOM     15  C   UNL A   1     -28.651   6.694  27.789  0.00  0.00    +0.022 C 
ENDBRANCH   5   8
BRANCH   7  16
ATOM     16  O   UNL A   1     -27.593   0.856  26.737  0.00  0.00    -0.453 OA
BRANCH  16  17
ATOM     17  C   UNL A   1     -27.459   1.611  25.718  0.00  0.00    +0.145 A 
ATOM     18  C   UNL A   1     -27.715   0.902  24.547  0.00  0.00    +0.037 A 
ATOM     19  C   UNL A   1     -28.977   1.196  23.927  0.00  0.00    +0.005 A 
ATOM     20  C   UNL A   1     -29.725   2.235  24.334  0.00  0.00    +0.019 A 
ATOM     21  C   UNL A   1     -29.181   3.237  25.238  0.00  0.00    +0.005 A 
ATOM     22  C   UNL A   1     -27.780   2.975  25.655  0.00  0.00    +0.037 A 
BRANCH  20  23
ATOM     23  C   UNL A   1     -30.814   2.701  23.439  0.00  0.00    +0.099 C 
ATOM     24  N   UNL A   1     -31.465   1.827  22.745  0.00  0.00    -0.242 NA
BRANCH  24  25
ATOM     25  C   UNL A   1     -32.577   2.224  22.036  0.00  0.00    +0.099 C 
ATOM     26  C   UNL A   1     -33.219   1.415  21.182  0.00  0.00    +0.022 C 
ENDBRANCH  24  25
ENDBRANCH  20  23
ENDBRANCH  16  17
ENDBRANCH   7  16
TORSDOF 5
