MODEL 4184
MODEL 1
REMARK VINA RESULT:    -6.653      0.000      0.000
REMARK INTER + INTRA:          -9.527
REMARK INTER:                  -8.597
REMARK INTRA:                  -0.930
REMARK UNBOUND:                -0.930
REMARK  Name = No_4184-gen_results/8p0m/2024-11-27-11-27-31/
REMARK  5 active torsions:
REMARK  status: ('A' for Active; 'I' for Inactive)
REMARK    1  A    between atoms: C_5  and  C_8
REMARK    2  A    between atoms: C_7  and  O_16
REMARK    3  A    between atoms: O_16  and  C_17
REMARK    4  A    between atoms: C_20  and  C_23
REMARK    5  A    between atoms: N_24  and  C_25
REMARK                            x       y       z     vdW  Elec       q    Type
REMARK                         _______ _______ _______ _____ _____    ______ ____
ROOT
ATOM      1 CL   UNL A   1     -33.345 -14.167  10.628  0.00  0.00    -0.079 Cl
ATOM      2  C   UNL A   1     -32.886 -12.890  10.512  0.00  0.00    +0.092 A 
ATOM      3  C   UNL A   1     -33.522 -11.996   9.708  0.00  0.00    +0.015 A 
ATOM      4  C   UNL A   1     -33.143 -10.582   9.601  0.00  0.00    +0.006 A 
ATOM      5  C   UNL A   1     -32.093 -10.145  10.468  0.00  0.00    +0.057 A 
ATOM      6  C   UNL A   1     -31.533 -11.028  11.337  0.00  0.00    +0.043 A 
ATOM      7  C   UNL A   1     -31.915 -12.333  11.398  0.00  0.00    +0.156 A 
ENDROOT
BRANCH   5   8
ATOM      8  C   UNL A   1     -31.713  -8.722  10.399  0.00  0.00    +0.249 C 
ATOM      9  N   UNL A   1     -30.803  -8.283   9.744  0.00  0.00    -0.276 N 
ATOM     10  O   UNL A   1     -32.445  -7.877  11.128  0.00  0.00    -0.270 OA
ATOM     11  C   UNL A   1     -30.381  -6.813   9.745  0.00  0.00    +0.094 C 
ATOM     12  C   UNL A   1     -29.890  -9.135   8.989  0.00  0.00    +0.094 C 
ATOM     13  C   UNL A   1     -29.344  -6.460   9.947  0.00  0.00    +0.022 C 
ATOM     14  C   UNL A   1     -28.243  -7.039   9.084  0.00  0.00    +0.004 C 
ATOM     15  C   UNL A   1     -28.430  -8.577   9.067  0.00  0.00    +0.022 C 
ENDBRANCH   5   8
BRANCH   7  16
ATOM     16  O   UNL A   1     -31.316 -13.143  12.261  0.00  0.00    -0.453 OA
BRANCH  16  17
ATOM     17  C   UNL A   1     -30.105 -13.504  12.092  0.00  0.00    +0.145 A 
ATOM     18  C   UNL A   1     -29.940 -14.842  12.443  0.00  0.00    +0.037 A 
ATOM     19  C   UNL A   1     -29.798 -15.744  11.334  0.00  0.00    +0.005 A 
ATOM     20  C   UNL A   1     -29.612 -15.285  10.086  0.00  0.00    +0.019 A 
ATOM     21  C   UNL A   1     -29.303 -13.884   9.844  0.00  0.00    +0.005 A 
ATOM     22  C   UNL A   1     -29.245 -13.059  11.078  0.00  0.00    +0.037 A 
BRANCH  20  23
ATOM     23  C   UNL A   1     -29.116 -16.238   9.061  0.00  0.00    +0.099 C 
ATOM     24  N   UNL A   1     -27.983 -16.827   9.257  0.00  0.00    -0.242 NA
BRANCH  24  25
ATOM     25  C   UNL A   1     -27.588 -17.828   8.397  0.00  0.00    +0.099 C 
ATOM     26  C   UNL A   1     -28.055 -17.935   7.146  0.00  0.00    +0.022 C 
ENDBRANCH  24  25
ENDBRANCH  20  23
ENDBRANCH  16  17
ENDBRANCH   7  16
TORSDOF 5
ENDMDL
ENDMDL
