REMARK  Name = No_4185-gen_results/8p0m/2024-11-27-11-27-31/
REMARK  1 active torsions:
REMARK  status: ('A' for Active; 'I' for Inactive)
REMARK    1  A    between atoms: C_3  and  C_4
REMARK                            x       y       z     vdW  Elec       q    Type
REMARK                         _______ _______ _______ _____ _____    ______ ____
ROOT
ATOM      1  C   UNL A   1     -28.016  -0.814  28.878  0.00  0.00    -0.000 A 
ATOM      2  C   UNL A   1     -27.064  -0.119  28.608  0.00  0.00    -0.000 A 
ATOM      3  C   UNL A   1     -26.876   1.133  28.913  0.00  0.00    -0.000 A 
ATOM      4  C   UNL A   1     -29.093  -0.196  29.676  0.00  0.00    -0.000 A 
ATOM      5  C   UNL A   1     -29.043   1.085  30.017  0.00  0.00    -0.000 A 
ATOM      6  C   UNL A   1     -27.908   1.815  29.666  0.00  0.00    -0.000 A 
ENDROOT
BRANCH   3   7
ATOM      7  C   UNL A   1     -25.688   1.952  28.567  0.00  0.00    -0.005 C 
ATOM      8  C   UNL A   1     -24.639   1.283  27.875  0.00  0.00    -0.026 C 
ATOM      9  C   UNL A   1     -23.449   1.959  27.537  0.00  0.00    +0.031 C 
ENDBRANCH   3   7
TORSDOF 1
