MODEL 4185
MODEL 1
REMARK VINA RESULT:    -5.202      0.000      0.000
REMARK INTER + INTRA:          -5.669
REMARK INTER:                  -5.506
REMARK INTRA:                  -0.163
REMARK UNBOUND:                -0.163
REMARK  Name = No_4185-gen_results/8p0m/2024-11-27-11-27-31/
REMARK  1 active torsions:
REMARK  status: ('A' for Active; 'I' for Inactive)
REMARK    1  A    between atoms: C_3  and  C_4
REMARK                            x       y       z     vdW  Elec       q    Type
REMARK                         _______ _______ _______ _____ _____    ______ ____
ROOT
ATOM      1  C   UNL A   1     -24.189  -4.955  28.605  0.00  0.00    -0.000 A 
ATOM      2  C   UNL A   1     -23.854  -3.794  28.566  0.00  0.00    -0.000 A 
ATOM      3  C   UNL A   1     -24.507  -2.758  29.009  0.00  0.00    -0.000 A 
ATOM      4  C   UNL A   1     -25.477  -5.260  29.258  0.00  0.00    -0.000 A 
ATOM      5  C   UNL A   1     -26.259  -4.291  29.716  0.00  0.00    -0.000 A 
ATOM      6  C   UNL A   1     -25.796  -2.978  29.632  0.00  0.00    -0.000 A 
ENDROOT
BRANCH   3   7
ATOM      7  C   UNL A   1     -24.058  -1.345  28.947  0.00  0.00    -0.005 C 
ATOM      8  C   UNL A   1     -22.652  -1.126  28.987  0.00  0.00    -0.026 C 
ATOM      9  C   UNL A   1     -22.123   0.180  28.976  0.00  0.00    +0.031 C 
ENDBRANCH   3   7
TORSDOF 1
ENDMDL
ENDMDL
