MODEL 4187
MODEL 1
REMARK VINA RESULT:    -8.230      0.000      0.000
REMARK INTER + INTRA:         -12.543
REMARK INTER:                 -11.116
REMARK INTRA:                  -1.427
REMARK UNBOUND:                -1.427
REMARK  Name = No_4187-gen_results/8p0m/2024-11-27-11-27-31/
REMARK  6 active torsions:
REMARK  status: ('A' for Active; 'I' for Inactive)
REMARK    1  A    between atoms: C_6  and  C_18
REMARK    2  A    between atoms: C_13  and  C_15
REMARK    3  A    between atoms: N_20  and  C_21
REMARK    4  A    between atoms: C_21  and  C_22
REMARK    5  A    between atoms: C_25  and  C_28
REMARK    6  A    between atoms: C_28  and  C_29
REMARK                            x       y       z     vdW  Elec       q    Type
REMARK                         _______ _______ _______ _____ _____    ______ ____
ROOT
ATOM      1  C   UNL A   1     -16.684   4.123  37.174  0.00  0.00    +0.265 C 
ATOM      2  O   UNL A   1     -16.935   4.917  36.447  0.00  0.00    -0.268 OA
ATOM      3  N   UNL A   1     -15.643   3.209  36.991  0.00  0.00    -0.197 NA
ENDROOT
BRANCH   1   9
ATOM      4  C   UNL A   1     -17.059   2.861  39.355  0.00  0.00    +0.004 A 
ATOM      5  C   UNL A   1     -17.639   2.661  40.397  0.00  0.00    -0.004 A 
ATOM      6  C   UNL A   1     -18.798   3.359  40.719  0.00  0.00    -0.021 A 
ATOM      7  C   UNL A   1     -19.319   4.375  39.841  0.00  0.00    -0.004 A 
ATOM      8  C   UNL A   1     -18.573   4.558  38.670  0.00  0.00    +0.004 A 
ATOM      9  C   UNL A   1     -17.474   3.884  38.420  0.00  0.00    +0.055 A 
ATOM     10  C   UNL A   1     -17.231   1.672  41.431  0.00  0.00    -0.004 A 
ATOM     11  C   UNL A   1     -16.490   0.969  41.449  0.00  0.00    -0.000 A 
ATOM     12  C   UNL A   1     -16.193  -0.070  42.440  0.00  0.00    -0.000 A 
ATOM     13  C   UNL A   1     -17.036  -0.150  43.566  0.00  0.00    -0.000 A 
ATOM     14  C   UNL A   1     -18.121   0.716  43.641  0.00  0.00    -0.004 A 
ATOM     15  C   UNL A   1     -18.297   1.630  42.671  0.00  0.00    -0.011 A 
ATOM     16  C   UNL A   1     -19.429   2.477  42.772  0.00  0.00    +0.130 C 
ATOM     17  C   UNL A   1     -19.645   3.261  41.849  0.00  0.00    +0.042 C 
BRANCH  16  18
ATOM     18  C   UNL A   1     -20.260   2.318  44.011  0.00  0.00    +0.369 C 
ATOM     19  O   UNL A   1     -21.188   1.599  44.205  0.00  0.00    -0.245 OA
ATOM     20  O   UNL A   1     -19.878   3.152  45.070  0.00  0.00    -0.245 OA
ENDBRANCH  16  18
ENDBRANCH   1   9
BRANCH   3  21
ATOM     21  C   UNL A   1     -14.684   3.440  36.136  0.00  0.00    +0.142 C 
BRANCH  21  22
ATOM     22  C   UNL A   1     -13.448   2.869  36.297  0.00  0.00    -0.001 A 
ATOM     23  C   UNL A   1     -13.045   2.704  37.609  0.00  0.00    -0.003 A 
ATOM     24  C   UNL A   1     -12.263   1.658  37.909  0.00  0.00    -0.004 A 
ATOM     25  C   UNL A   1     -11.532   0.991  36.816  0.00  0.00    -0.018 A 
ATOM     26  C   UNL A   1     -11.832   1.361  35.500  0.00  0.00    -0.004 A 
ATOM     27  C   UNL A   1     -12.876   2.237  35.256  0.00  0.00    -0.003 A 
BRANCH  25  28
ATOM     28  C   UNL A   1     -10.390   0.078  37.066  0.00  0.00    +0.045 C 
ATOM     29  C   UNL A   1      -9.284   0.032  36.329  0.00  0.00    +0.009 C 
BRANCH  28  30
ATOM     30  C   UNL A   1     -10.712  -0.866  38.159  0.00  0.00    -0.018 A 
ATOM     31  C   UNL A   1     -10.046  -0.716  39.366  0.00  0.00    -0.004 A 
ATOM     32  C   UNL A   1     -11.772  -1.816  37.964  0.00  0.00    -0.004 A 
ATOM     33  C   UNL A   1     -10.475  -1.493  40.526  0.00  0.00    -0.000 A 
ATOM     34  C   UNL A   1     -12.104  -2.623  39.086  0.00  0.00    -0.000 A 
ATOM     35  C   UNL A   1     -11.470  -2.512  40.283  0.00  0.00    -0.000 A 
ENDBRANCH  28  30
ENDBRANCH  25  28
ENDBRANCH  21  22
ENDBRANCH   3  21
TORSDOF 6
ENDMDL
ENDMDL
