MODEL 4188
MODEL 1
REMARK VINA RESULT:    -3.702      0.000      0.000
REMARK INTER + INTRA:          -3.974
REMARK INTER:                  -3.919
REMARK INTRA:                  -0.055
REMARK UNBOUND:                -0.055
REMARK  Name = No_4188-gen_results/8p0m/2024-11-27-11-27-31/
REMARK  1 active torsions:
REMARK  status: ('A' for Active; 'I' for Inactive)
REMARK    1  A    between atoms: N_2  and  C_4
REMARK                            x       y       z     vdW  Elec       q    Type
REMARK                         _______ _______ _______ _____ _____    ______ ____
ROOT
ATOM      1  C   UNL A   1     -22.887  -1.070  29.217  0.00  0.00    +0.073 C 
ATOM      2  N   UNL A   1     -23.021  -2.053  28.919  0.00  0.00    -0.247 NA
ATOM      3  C   UNL A   1     -21.958  -0.493  29.129  0.00  0.00    +0.053 C 
ENDROOT
BRANCH   2   4
ATOM      4  C   UNL A   1     -24.090  -3.041  29.235  0.00  0.00    +0.094 C 
ATOM      5  C   UNL A   1     -23.918  -4.299  28.651  0.00  0.00    -0.005 C 
ATOM      6  C   UNL A   1     -24.846  -5.360  28.943  0.00  0.00    +0.032 C 
ENDBRANCH   2   4
TORSDOF 1
ENDMDL
ENDMDL
