REMARK  Name = No_4189-gen_results/8p0m/2024-11-27-11-27-31/
REMARK  8 active torsions:
REMARK  status: ('A' for Active; 'I' for Inactive)
REMARK    1  A    between atoms: C_1  and  C_8
REMARK    2  A    between atoms: C_3  and  C_20
REMARK    3  A    between atoms: C_5  and  C_12
REMARK    4  A    between atoms: C_7  and  C_15
REMARK    5  A    between atoms: N_16  and  C_17
REMARK    6  A    between atoms: N_16  and  C_18
REMARK    7  A    between atoms: C_26  and  C_32
REMARK    8  A    between atoms: C_33  and  C_34
REMARK                            x       y       z     vdW  Elec       q    Type
REMARK                         _______ _______ _______ _____ _____    ______ ____
ROOT
ATOM      1  C   UNL A   1     -28.016  -0.814  28.878  0.00  0.00    +0.050 C 
ATOM      2  C   UNL A   1     -27.064  -0.119  28.608  0.00  0.00    -0.032 C 
ATOM      3  C   UNL A   1     -25.765  -0.390  29.036  0.00  0.00    +0.019 C 
ATOM      4  C   UNL A   1     -24.552   0.406  28.765  0.00  0.00    +0.015 C 
ATOM      5  C   UNL A   1     -24.696   1.448  27.799  0.00  0.00    +0.104 C 
ATOM      6  C   UNL A   1     -25.976   1.725  27.308  0.00  0.00    +0.024 C 
ATOM      7  C   UNL A   1     -27.072   1.013  27.654  0.00  0.00    +0.096 C 
ENDROOT
BRANCH   1   8
ATOM      8  C   UNL A   1     -28.604  -0.474  30.232  0.00  0.00    +0.248 C 
ATOM      9  N   UNL A   1     -28.247   0.291  30.900  0.00  0.00    -0.276 N 
ATOM     10  O   UNL A   1     -29.771  -1.190  30.462  0.00  0.00    -0.270 OA
ATOM     11  C   UNL A   1     -28.877   0.617  32.262  0.00  0.00    +0.094 C 
ATOM     12  C   UNL A   1     -28.640   1.691  32.735  0.00  0.00    +0.022 C 
ATOM     13  C   UNL A   1     -28.406   2.764  32.241  0.00  0.00    +0.004 C 
ATOM     14  C   UNL A   1     -27.638   2.687  30.976  0.00  0.00    +0.022 C 
ATOM     15  C   UNL A   1     -27.759   1.596  30.429  0.00  0.00    +0.094 C 
ENDBRANCH   1   8
BRANCH   5  16
ATOM     16  C   UNL A   1     -23.519   2.257  27.521  0.00  0.00    +0.364 C 
ATOM     17  O   UNL A   1     -23.631   3.336  27.069  0.00  0.00    -0.246 OA
ATOM     18  O   UNL A   1     -22.293   1.778  27.620  0.00  0.00    -0.246 OA
ENDBRANCH   5  16
BRANCH   7  19
ATOM     19  C   UNL A   1     -28.386   1.305  27.056  0.00  0.00    +0.236 C 
ATOM     20  N   UNL A   1     -29.038   2.107  27.391  0.00  0.00    -0.236 N 
ATOM     21  O   UNL A   1     -28.624   0.501  26.017  0.00  0.00    -0.274 OA
BRANCH  20  22
ATOM     22  C   UNL A   1     -30.478   1.880  27.720  0.00  0.00    +0.058 A 
ATOM     23  C   UNL A   1     -31.437   2.761  27.216  0.00  0.00    +0.015 A 
ATOM     24  C   UNL A   1     -32.546   2.806  27.898  0.00  0.00    +0.001 A 
ATOM     25  C   UNL A   1     -32.960   1.747  28.764  0.00  0.00    +0.000 A 
ATOM     26  C   UNL A   1     -31.998   0.810  29.156  0.00  0.00    +0.001 A 
ATOM     27  C   UNL A   1     -30.748   0.969  28.723  0.00  0.00    +0.015 A 
ENDBRANCH  20  22
BRANCH  20  28
ATOM     28  C   UNL A   1     -28.655   3.361  27.643  0.00  0.00    +0.072 C 
ATOM     29  C   UNL A   1     -28.500   4.287  27.116  0.00  0.00    +0.017 C 
BRANCH  29  30
ATOM     30  C   UNL A   1     -27.884   5.569  27.507  0.00  0.00    +0.001 C 
ATOM     31  C   UNL A   1     -27.653   6.659  26.700  0.00  0.00    +0.000 C 
BRANCH  31  32
ATOM     32  C   UNL A   1     -28.511   6.715  25.526  0.00  0.00    +0.000 C 
ATOM     33  C   UNL A   1     -29.260   5.630  25.161  0.00  0.00    +0.000 C 
ENDBRANCH  31  32
ENDBRANCH  29  30
ENDBRANCH  20  28
ENDBRANCH   7  19
BRANCH   3  34
ATOM     34  C   UNL A   1     -25.451  -1.512  30.019  0.00  0.00    +0.004 C 
ATOM     35  C   UNL A   1     -24.358  -2.245  29.839  0.00  0.00    +0.000 C 
ENDBRANCH   3  34
TORSDOF 8
