MODEL 418
MODEL 1
REMARK VINA RESULT:    -6.896      0.000      0.000
REMARK INTER + INTRA:          -8.311
REMARK INTER:                  -7.703
REMARK INTRA:                  -0.608
REMARK UNBOUND:                -0.608
REMARK  Name = No_418-gen_results/8p0m/2024-11-27-11-27-31/
REMARK  2 active torsions:
REMARK  status: ('A' for Active; 'I' for Inactive)
REMARK    1  A    between atoms: C_8  and  C_15
REMARK    2  A    between atoms: C_16  and  C_17
REMARK                            x       y       z     vdW  Elec       q    Type
REMARK                         _______ _______ _______ _____ _____    ______ ____
ROOT
ATOM      1  C   UNL A   1     -24.621  -2.043  29.745  0.00  0.00    +0.000 A 
ATOM      2  C   UNL A   1     -24.653  -1.887  30.786  0.00  0.00    +0.000 A 
ATOM      3  C   UNL A   1     -23.925  -0.963  28.947  0.00  0.00    +0.000 A 
ATOM      4  C   UNL A   1     -24.427  -0.472  27.730  0.00  0.00    +0.000 A 
ATOM      5  C   UNL A   1     -25.302  -0.806  27.114  0.00  0.00    +0.000 A 
ATOM      6  C   UNL A   1     -25.698  -0.352  25.833  0.00  0.00    +0.000 A 
ATOM      7  C   UNL A   1     -25.032   0.787  25.329  0.00  0.00    +0.000 A 
ATOM      8  C   UNL A   1     -24.040   1.396  26.084  0.00  0.00    +0.000 A 
ATOM      9  C   UNL A   1     -23.706   0.837  27.287  0.00  0.00    +0.000 A 
ATOM     10  C   UNL A   1     -23.548  -1.414  31.676  0.00  0.00    +0.000 A 
ATOM     11  C   UNL A   1     -22.680  -0.555  30.969  0.00  0.00    +0.000 A 
ATOM     12  C   UNL A   1     -22.839  -0.301  29.689  0.00  0.00    +0.000 A 
ATOM     13  C   UNL A   1     -22.086   0.721  28.980  0.00  0.00    +0.000 A 
ATOM     14  C   UNL A   1     -22.550   1.387  27.958  0.00  0.00    +0.000 A 
ENDROOT
BRANCH   8  15
ATOM     15  C   UNL A   1     -23.507   2.649  25.614  0.00  0.00    +0.000 C 
ATOM     16  C   UNL A   1     -23.811   3.608  25.574  0.00  0.00    +0.000 C 
BRANCH  16  17
ATOM     17  C   UNL A   1     -24.943   4.268  26.390  0.00  0.00    +0.000 C 
ATOM     18  C   UNL A   1     -24.726   4.917  26.934  0.00  0.00    +0.000 C 
ENDBRANCH  16  17
ENDBRANCH   8  15
TORSDOF 2
ENDMDL
ENDMDL
