MODEL 4190
MODEL 1
REMARK VINA RESULT:    -8.632      0.000      0.000
REMARK INTER + INTRA:         -10.363
REMARK INTER:                  -9.641
REMARK INTRA:                  -0.721
REMARK UNBOUND:                -0.721
REMARK  Name = No_4190-gen_results/8p0m/2024-11-27-11-27-31/
REMARK  2 active torsions:
REMARK  status: ('A' for Active; 'I' for Inactive)
REMARK    1  A    between atoms: C_3  and  C_4
REMARK    2  A    between atoms: C_18  and  C_19
REMARK                            x       y       z     vdW  Elec       q    Type
REMARK                         _______ _______ _______ _____ _____    ______ ____
ROOT
ATOM      1  C   UNL A   1      -7.453   1.648  10.292  0.00  0.00    +0.145 A 
ATOM      2  C   UNL A   1      -7.992   2.729  10.236  0.00  0.00    +0.037 A 
ATOM      3  C   UNL A   1      -8.665   3.136   9.090  0.00  0.00    +0.003 A 
ATOM      4  C   UNL A   1      -7.337   0.817   9.083  0.00  0.00    +0.110 A 
ATOM      5  C   UNL A   1      -8.021   1.093   7.936  0.00  0.00    +0.009 A 
ATOM      6  C   UNL A   1      -8.735   2.302   7.895  0.00  0.00    +0.000 A 
ATOM      7  C   UNL A   1      -6.591  -0.487   9.090  0.00  0.00    +0.349 C 
ATOM      8  O   UNL A   1      -5.661  -0.643   8.231  0.00  0.00    -0.418 OA
ATOM      9  O   UNL A   1      -6.908  -1.432   9.829  0.00  0.00    -0.244 OA
ATOM     10  O   UNL A   1      -6.783   1.215  11.349  0.00  0.00    -0.467 OA
ATOM     11  C   UNL A   1      -6.084   2.124  12.100  0.00  0.00    +0.272 C 
ATOM     12  C   UNL A   1      -4.752   2.504  11.728  0.00  0.00    +0.082 C 
ATOM     13  C   UNL A   1      -4.130   1.866  10.704  0.00  0.00    -0.018 A 
ATOM     14  C   UNL A   1      -2.855   2.327  10.297  0.00  0.00    -0.004 A 
ATOM     15  C   UNL A   1      -2.241   1.835   9.152  0.00  0.00    -0.001 A 
ATOM     16  C   UNL A   1      -2.907   0.772   8.462  0.00  0.00    -0.004 A 
ATOM     17  C   UNL A   1      -3.975   0.203   8.954  0.00  0.00    -0.018 A 
ATOM     18  C   UNL A   1      -4.596   0.904  10.077  0.00  0.00    -0.008 A 
ATOM     19  C   UNL A   1      -3.115  -0.591   8.983  0.00  0.00    +0.048 C 
ATOM     20  C   UNL A   1      -2.232  -0.994   9.753  0.00  0.00    -0.026 C 
ATOM     21  C   UNL A   1      -5.462  -1.201   7.155  0.00  0.00    +0.178 C 
ATOM     22  C   UNL A   1      -1.902  -2.423  10.041  0.00  0.00    -0.030 C 
ATOM     23  C   UNL A   1      -3.489  -1.870   8.170  0.00  0.00    +0.038 C 
ATOM     24  C   UNL A   1      -4.190  -1.762   7.289  0.00  0.00    +0.015 C 
ATOM     25  C   UNL A   1      -2.638  -2.900   8.752  0.00  0.00    +0.031 C 
ENDROOT
BRANCH   3  26
ATOM     26  C   UNL A   1      -9.358   4.442   8.893  0.00  0.00    +0.002 A 
ATOM     27  C   UNL A   1      -9.335   5.224   7.686  0.00  0.00    +0.000 A 
ATOM     28  C   UNL A   1     -10.040   6.393   7.651  0.00  0.00    +0.002 A 
ATOM     29  C   UNL A   1     -10.976   6.814   8.545  0.00  0.00    +0.030 A 
ATOM     30  C   UNL A   1     -10.307   4.903   9.879  0.00  0.00    +0.030 A 
ATOM     31  C   UNL A   1     -11.067   6.054   9.690  0.00  0.00    +0.140 A 
ATOM     32  F   UNL A   1     -11.918   6.379  10.670  0.00  0.00    -0.204 F 
ENDBRANCH   3  26
BRANCH  11  33
ATOM     33  C   UNL A   1      -6.696   2.357  13.366  0.00  0.00    +0.404 C 
ATOM     34  O   UNL A   1      -6.465   3.196  13.921  0.00  0.00    -0.242 OA
ATOM     35  O   UNL A   1      -7.560   1.479  13.771  0.00  0.00    -0.242 OA
ENDBRANCH  11  33
TORSDOF 2
ENDMDL
ENDMDL
