REMARK  Name = outputs/IAG933/test6/raw/output_4190_IAG933_linker_design_.xyz
REMARK  17 active torsions:
REMARK  status: ('A' for Active; 'I' for Inactive)
REMARK    1  A    between atoms: C_1  and  C_2
REMARK    2  A    between atoms: C_1  and  C_8
REMARK    3  A    between atoms: C_1  and  C_35
REMARK    4  A    between atoms: C_13  and  C_40
REMARK    5  A    between atoms: C_14  and  C_15
REMARK    6  A    between atoms: C_21  and  O_22
REMARK    7  A    between atoms: O_22  and  C_23
REMARK    8  A    between atoms: C_23  and  C_24
REMARK    9  A    between atoms: C_28  and  C_37
REMARK   10  A    between atoms: C_28  and  C_39
REMARK   11  A    between atoms: C_32  and  C_38
REMARK   12  A    between atoms: C_32  and  C_39
REMARK   13  A    between atoms: C_35  and  N_36
REMARK   14  A    between atoms: C_35  and  C_43
REMARK   15  A    between atoms: N_36  and  C_42
REMARK   16  A    between atoms: C_37  and  C_42
REMARK   17  A    between atoms: C_42  and  C_44
REMARK                            x       y       z     vdW  Elec       q    Type
REMARK                         _______ _______ _______ _____ _____    ______ ____
ROOT
ATOM      1  C   UNL A   1     -25.290  -0.026  29.024  0.00  0.00    +0.080 C 
ENDROOT
BRANCH   1   6
ATOM      2  S   UNL A   1     -23.002   1.608  26.204  0.00  0.00    -0.137 S 
ATOM      3  C   UNL A   1     -21.914   1.317  27.592  0.00  0.00    +0.058 C 
ATOM      4  C   UNL A   1     -22.669   0.757  28.790  0.00  0.00    +0.014 C 
ATOM      5  C   UNL A   1     -24.407   1.351  27.154  0.00  0.00    +0.074 C 
ATOM      6  C   UNL A   1     -24.179   1.080  28.706  0.00  0.00    +0.031 C 
BRANCH   5   7
ATOM      7  C   UNL A   1     -25.688   1.614  26.461  0.00  0.00    +0.026 C 
ATOM      8  C   UNL A   1     -26.250   2.920  26.395  0.00  0.00    +0.073 C 
ATOM      9  C   UNL A   1     -27.438   3.091  25.645  0.00  0.00    +0.106 C 
ATOM     10  N   UNL A   1     -28.075   2.089  25.003  0.00  0.00    -0.208 NA
ATOM     11  C   UNL A   1     -27.543   0.849  25.079  0.00  0.00    +0.253 C 
ATOM     12  C   UNL A   1     -26.354   0.576  25.777  0.00  0.00    +0.190 C 
ATOM     13  F   UNL A   1     -25.860  -0.681  25.795  0.00  0.00    -0.200 F 
BRANCH   8  14
ATOM     14  C   UNL A   1     -25.642   4.093  27.123  0.00  0.00    +0.266 C 
ATOM     15  N   UNL A   1     -25.614   5.252  26.449  0.00  0.00    -0.200 NA
ATOM     16  C   UNL A   1     -25.026   6.479  26.963  0.00  0.00    +0.139 C 
ATOM     17  O   UNL A   1     -25.143   3.966  28.243  0.00  0.00    -0.268 OA
ENDBRANCH   8  14
BRANCH  11  18
ATOM     18  O   UNL A   1     -28.193  -0.208  24.477  0.00  0.00    -0.456 OA
BRANCH  18  19
ATOM     19  C   UNL A   1     -29.460   0.005  23.866  0.00  0.00    +0.243 C 
BRANCH  19  20
ATOM     20  C   UNL A   1     -30.065  -1.377  23.573  0.00  0.00    +0.229 C 
ATOM     21  O   UNL A   1     -30.729  -1.878  24.721  0.00  0.00    -0.216 OA
ENDBRANCH  19  20
ENDBRANCH  18  19
ENDBRANCH  11  18
ENDBRANCH   5   7
ENDBRANCH   1   6
BRANCH   1  22
ATOM     22  C   UNL A   1     -24.855  -1.012  30.143  0.00  0.00    +0.054 C 
BRANCH  22  23
ATOM     23  C   UNL A   1     -24.973  -2.505  29.788  0.00  0.00    -0.020 C 
ATOM     24  C   UNL A   1     -23.906  -3.173  29.146  0.00  0.00    -0.004 C 
ATOM     25  C   UNL A   1     -23.989  -4.549  28.853  0.00  0.00    -0.000 C 
ATOM     26  C   UNL A   1     -25.137  -5.280  29.205  0.00  0.00    -0.000 C 
ATOM     27  C   UNL A   1     -26.232  -4.611  29.784  0.00  0.00    -0.000 C 
ATOM     28  C   UNL A   1     -26.155  -3.232  30.065  0.00  0.00    -0.004 C 
ENDBRANCH  22  23
BRANCH  22  29
ATOM     29  C   UNL A   1     -25.387  -0.679  31.571  0.00  0.00    +0.078 C 
ATOM     30  C   UNL A   1     -25.189   0.773  32.028  0.00  0.00    +0.019 C 
ATOM     31  C   UNL A   1     -25.336   0.684  33.544  0.00  0.00    +0.020 C 
ATOM     32  C   UNL A   1     -24.829  -0.715  33.905  0.00  0.00    +0.089 C 
ATOM     33  N   UNL A   1     -24.758  -1.481  32.646  0.00  0.00    -0.219 NA
ENDBRANCH  22  29
ENDBRANCH   1  22
BRANCH   1  34
ATOM     34  N   UNL A   1     -26.479   0.724  29.132  0.00  0.00    -0.211 NA
BRANCH  34  35
ATOM     35  C   UNL A   1     -27.835   1.074  29.497  0.00  0.00    +0.152 C 
BRANCH  35  38
ATOM     36  O   UNL A   1     -28.512  -0.938  28.484  0.00  0.00    -0.270 OA
ATOM     37  N   UNL A   1     -29.842   0.855  28.235  0.00  0.00    -0.087 NA
ATOM     38  C   UNL A   1     -28.719   0.209  28.678  0.00  0.00    +0.277 C 
ENDBRANCH  35  38
BRANCH  35  39
ATOM     39  C   UNL A   1     -28.855   2.037  30.363  0.00  0.00    +0.027 C 
BRANCH  39  40
ATOM     40  C   UNL A   1     -29.096   3.237  29.516  0.00  0.00    +0.002 C 
BRANCH  40  41
ATOM     41  C   UNL A   1     -27.883   4.126  29.297  0.00  0.00    +0.002 C 
BRANCH  41  42
ATOM     42  C   UNL A   1     -27.797   5.324  30.306  0.00  0.00    +0.021 C 
BRANCH  42  44
ATOM     43  N   UNL A   1     -27.355   4.448  32.780  0.00  0.00    -0.131 NA
ATOM     44  C   UNL A   1     -28.194   5.112  31.783  0.00  0.00    +0.109 C 
ENDBRANCH  42  44
ENDBRANCH  41  42
ENDBRANCH  40  41
ENDBRANCH  39  40
ENDBRANCH  35  39
ENDBRANCH  34  35
ENDBRANCH   1  34
TORSDOF 17
