MODEL 4191
MODEL 1
REMARK VINA RESULT:    -6.523      0.000      0.000
REMARK INTER + INTRA:          -7.237
REMARK INTER:                  -6.904
REMARK INTRA:                  -0.333
REMARK UNBOUND:                -0.333
REMARK  Name = No_4191-gen_results/8p0m/2024-11-27-11-27-31/
REMARK  1 active torsions:
REMARK  status: ('A' for Active; 'I' for Inactive)
REMARK    1  A    between atoms: C_3  and  C_7
REMARK                            x       y       z     vdW  Elec       q    Type
REMARK                         _______ _______ _______ _____ _____    ______ ____
ROOT
ATOM      1  C   UNL A   1     -26.530  -3.596  29.870  0.00  0.00    +0.000 A 
ATOM      2  C   UNL A   1     -25.891  -2.598  29.627  0.00  0.00    +0.000 A 
ATOM      3  C   UNL A   1     -24.643  -2.614  29.005  0.00  0.00    +0.000 A 
ATOM      4  C   UNL A   1     -24.034  -3.888  28.677  0.00  0.00    +0.000 A 
ATOM      5  C   UNL A   1     -24.796  -5.013  28.993  0.00  0.00    +0.000 A 
ATOM      6  C   UNL A   1     -25.966  -4.906  29.592  0.00  0.00    +0.000 A 
ENDROOT
BRANCH   3   7
ATOM      7  C   UNL A   1     -23.803  -1.429  28.667  0.00  0.00    +0.000 A 
ATOM      8  C   UNL A   1     -22.641  -1.229  29.214  0.00  0.00    +0.000 A 
ATOM      9  C   UNL A   1     -21.895  -0.169  29.000  0.00  0.00    +0.000 A 
ATOM     10  C   UNL A   1     -22.309   0.918  28.261  0.00  0.00    +0.000 A 
ATOM     11  C   UNL A   1     -24.336  -0.355  27.858  0.00  0.00    +0.000 A 
ATOM     12  C   UNL A   1     -23.560   0.820  27.660  0.00  0.00    +0.000 A 
ENDBRANCH   3   7
TORSDOF 1
ENDMDL
ENDMDL
