REMARK  Name = outputs/IAG933/test6/raw/output_4192_IAG933_linker_design_.xyz
REMARK  13 active torsions:
REMARK  status: ('A' for Active; 'I' for Inactive)
REMARK    1  A    between atoms: C_1  and  C_2
REMARK    2  A    between atoms: C_1  and  C_8
REMARK    3  A    between atoms: C_1  and  C_42
REMARK    4  A    between atoms: C_13  and  N_32
REMARK    5  A    between atoms: C_14  and  C_15
REMARK    6  A    between atoms: C_15  and  O_18
REMARK    7  A    between atoms: O_18  and  S_41
REMARK    8  A    between atoms: C_21  and  O_22
REMARK    9  A    between atoms: O_22  and  C_23
REMARK   10  A    between atoms: C_23  and  C_24
REMARK   11  A    between atoms: C_37  and  N_44
REMARK   12  A    between atoms: C_37  and  C_46
REMARK   13  A    between atoms: S_41  and  N_44
REMARK                            x       y       z     vdW  Elec       q    Type
REMARK                         _______ _______ _______ _____ _____    ______ ____
ROOT
ATOM      1  O   UNL A   1     -21.459   2.171  26.029  0.00  0.00    -0.293 OA
ATOM      2  C   UNL A   1     -22.703   2.264  26.167  0.00  0.00    +0.372 C 
ATOM      3  C   UNL A   1     -24.107   0.319  27.939  0.00  0.00    +0.144 C 
ATOM      4  O   UNL A   1     -23.341   3.073  25.521  0.00  0.00    -0.245 OA
ATOM      5  N   UNL A   1     -24.563   1.288  27.337  0.00  0.00    -0.292 N 
ATOM      6  O   UNL A   1     -20.909   1.664  27.182  0.00  0.00    -0.158 OA
ATOM      7  O   UNL A   1     -20.333  -0.273  28.863  0.00  0.00    -0.247 OA
ATOM      8  O   UNL A   1     -22.557  -0.343  29.662  0.00  0.00    -0.448 OA
ATOM      9  C   UNL A   1     -21.911   0.893  27.863  0.00  0.00    +0.290 C 
ATOM     10  C   UNL A   1     -21.615   0.098  28.812  0.00  0.00    +0.351 C 
ATOM     11  C   UNL A   1     -23.286   1.160  27.297  0.00  0.00    +0.211 C 
ATOM     12  C   UNL A   1     -23.849  -0.292  29.278  0.00  0.00    +0.194 C 
ENDROOT
BRANCH   5  13
ATOM     13  C   UNL A   1     -25.688   1.614  26.461  0.00  0.00    +0.087 C 
ATOM     14  C   UNL A   1     -26.250   2.920  26.395  0.00  0.00    +0.090 C 
ATOM     15  C   UNL A   1     -27.438   3.091  25.645  0.00  0.00    +0.108 C 
ATOM     16  N   UNL A   1     -28.075   2.089  25.003  0.00  0.00    -0.208 NA
ATOM     17  C   UNL A   1     -27.543   0.849  25.079  0.00  0.00    +0.255 C 
ATOM     18  C   UNL A   1     -26.354   0.576  25.777  0.00  0.00    +0.206 C 
ATOM     19  F   UNL A   1     -25.860  -0.681  25.795  0.00  0.00    -0.198 F 
BRANCH  14  20
ATOM     20  C   UNL A   1     -25.642   4.093  27.123  0.00  0.00    +0.255 C 
ATOM     21  N   UNL A   1     -25.614   5.252  26.449  0.00  0.00    -0.234 NA
ATOM     22  C   UNL A   1     -25.026   6.479  26.963  0.00  0.00    +0.155 C 
BRANCH  20  23
ATOM     23  O   UNL A   1     -25.143   3.966  28.243  0.00  0.00    -0.328 OA
BRANCH  23  24
ATOM     24  S   UNL A   1     -25.354   3.063  29.574  0.00  0.00    +0.107 S 
ATOM     25  O   UNL A   1     -26.325   2.098  29.109  0.00  0.00    -0.044 OA
ATOM     26  O   UNL A   1     -24.079   2.365  29.843  0.00  0.00    -0.044 OA
BRANCH  24  27
ATOM     27  N   UNL A   1     -25.565   4.000  30.893  0.00  0.00    -0.068 NA
BRANCH  27  28
ATOM     28  C   UNL A   1     -26.766   4.773  31.075  0.00  0.00    +0.117 C 
BRANCH  28  30
ATOM     29  C   UNL A   1     -25.278   6.790  30.858  0.00  0.00    +0.002 C 
ATOM     30  C   UNL A   1     -26.623   6.182  30.471  0.00  0.00    +0.021 C 
ENDBRANCH  28  30
ENDBRANCH  27  28
ENDBRANCH  24  27
ENDBRANCH  23  24
ENDBRANCH  20  23
ENDBRANCH  14  20
BRANCH  17  31
ATOM     31  O   UNL A   1     -28.193  -0.208  24.477  0.00  0.00    -0.456 OA
BRANCH  31  32
ATOM     32  C   UNL A   1     -29.460   0.005  23.866  0.00  0.00    +0.243 C 
BRANCH  32  33
ATOM     33  C   UNL A   1     -30.065  -1.377  23.573  0.00  0.00    +0.229 C 
ATOM     34  O   UNL A   1     -30.729  -1.878  24.721  0.00  0.00    -0.216 OA
ENDBRANCH  32  33
ENDBRANCH  31  32
ENDBRANCH  17  31
ENDBRANCH   5  13
BRANCH  12  35
ATOM     35  C   UNL A   1     -24.855  -1.012  30.143  0.00  0.00    +0.080 C 
BRANCH  35  36
ATOM     36  C   UNL A   1     -24.973  -2.505  29.788  0.00  0.00    -0.018 C 
ATOM     37  C   UNL A   1     -23.906  -3.173  29.146  0.00  0.00    -0.004 C 
ATOM     38  C   UNL A   1     -23.989  -4.549  28.853  0.00  0.00    -0.000 C 
ATOM     39  C   UNL A   1     -25.137  -5.280  29.205  0.00  0.00    -0.000 C 
ATOM     40  C   UNL A   1     -26.232  -4.611  29.784  0.00  0.00    -0.000 C 
ATOM     41  C   UNL A   1     -26.155  -3.232  30.065  0.00  0.00    -0.004 C 
ENDBRANCH  35  36
BRANCH  35  42
ATOM     42  C   UNL A   1     -25.387  -0.679  31.571  0.00  0.00    +0.080 C 
ATOM     43  C   UNL A   1     -25.189   0.773  32.028  0.00  0.00    +0.019 C 
ATOM     44  C   UNL A   1     -25.336   0.684  33.544  0.00  0.00    +0.020 C 
ATOM     45  C   UNL A   1     -24.829  -0.715  33.905  0.00  0.00    +0.089 C 
ATOM     46  N   UNL A   1     -24.758  -1.481  32.646  0.00  0.00    -0.219 NA
ENDBRANCH  35  42
ENDBRANCH  12  35
TORSDOF 13
