MODEL 4193
MODEL 1
REMARK VINA RESULT:    -7.537      0.000      0.000
REMARK INTER + INTRA:         -11.209
REMARK INTER:                 -10.180
REMARK INTRA:                  -1.028
REMARK UNBOUND:                -1.028
REMARK  Name = No_4193-gen_results/8p0m/2024-11-27-11-27-31/
REMARK  6 active torsions:
REMARK  status: ('A' for Active; 'I' for Inactive)
REMARK    1  A    between atoms: C_3  and  C_4
REMARK    2  A    between atoms: C_6  and  C_13
REMARK    3  A    between atoms: N_14  and  C_16
REMARK    4  A    between atoms: C_16  and  C_18
REMARK    5  A    between atoms: C_22  and  C_24
REMARK    6  A    between atoms: C_24  and  C_26
REMARK                            x       y       z     vdW  Elec       q    Type
REMARK                         _______ _______ _______ _____ _____    ______ ____
ROOT
ATOM      1  C   UNL A   1     -25.309   2.474  25.971  0.00  0.00    +0.265 C 
ATOM      2  N   UNL A   1     -24.366   1.749  26.348  0.00  0.00    -0.197 NA
ATOM      3  O   UNL A   1     -25.304   3.710  26.223  0.00  0.00    -0.268 OA
ENDROOT
BRANCH   1   7
ATOM      4  C   UNL A   1     -26.474   0.489  24.774  0.00  0.00    +0.005 A 
ATOM      5  C   UNL A   1     -27.476   0.005  24.302  0.00  0.00    +0.000 A 
ATOM      6  C   UNL A   1     -28.613   0.776  24.086  0.00  0.00    +0.000 A 
ATOM      7  C   UNL A   1     -26.496   1.862  25.304  0.00  0.00    +0.055 A 
ATOM      8  C   UNL A   1     -27.550   2.709  25.066  0.00  0.00    +0.005 A 
ATOM      9  C   UNL A   1     -28.716   2.195  24.472  0.00  0.00    +0.000 A 
BRANCH   6  10
ATOM     10  C   UNL A   1     -29.908   0.297  23.524  0.00  0.00    +0.002 A 
ATOM     11  C   UNL A   1     -30.491  -0.997  23.758  0.00  0.00    +0.000 A 
ATOM     12  C   UNL A   1     -31.737  -1.279  23.239  0.00  0.00    +0.002 A 
ATOM     13  C   UNL A   1     -32.600  -0.401  22.657  0.00  0.00    +0.030 A 
ATOM     14  C   UNL A   1     -30.827   1.231  22.900  0.00  0.00    +0.030 A 
ATOM     15  C   UNL A   1     -32.110   0.855  22.478  0.00  0.00    +0.140 A 
ATOM     16  F   UNL A   1     -32.835   1.813  21.896  0.00  0.00    -0.204 F 
ENDBRANCH   6  10
ENDBRANCH   1   7
BRANCH   2  17
ATOM     17  C   UNL A   1     -23.150   2.269  26.984  0.00  0.00    +0.142 C 
BRANCH  17  18
ATOM     18  C   UNL A   1     -22.473   1.405  27.625  0.00  0.00    -0.001 A 
ATOM     19  C   UNL A   1     -21.482   1.125  27.747  0.00  0.00    -0.003 A 
ATOM     20  C   UNL A   1     -20.774  -0.018  28.502  0.00  0.00    -0.001 A 
ATOM     21  C   UNL A   1     -21.657  -0.853  29.157  0.00  0.00    -0.003 A 
ATOM     22  C   UNL A   1     -22.986  -0.692  29.066  0.00  0.00    -0.006 A 
ATOM     23  C   UNL A   1     -23.493   0.332  28.353  0.00  0.00    -0.006 A 
BRANCH  22  24
ATOM     24  C   UNL A   1     -23.914  -1.619  29.771  0.00  0.00    +0.121 C 
ATOM     25 CL   UNL A   1     -24.362  -1.786  30.724  0.00  0.00    -0.109 Cl
BRANCH  24  26
ATOM     26  C   UNL A   1     -24.463  -2.628  28.578  0.00  0.00    +0.130 C 
ATOM     27  N   UNL A   1     -23.840  -3.838  28.650  0.00  0.00    -0.130 NA
ENDBRANCH  24  26
ENDBRANCH  22  24
ENDBRANCH  17  18
ENDBRANCH   2  17
TORSDOF 6
ENDMDL
ENDMDL
