REMARK  Name = outputs/IAG933/test6/raw/output_4194_IAG933_linker_design_.xyz
REMARK  11 active torsions:
REMARK  status: ('A' for Active; 'I' for Inactive)
REMARK    1  A    between atoms: C_1  and  C_2
REMARK    2  A    between atoms: C_1  and  C_8
REMARK    3  A    between atoms: C_9  and  C_45
REMARK    4  A    between atoms: C_13  and  C_35
REMARK    5  A    between atoms: C_14  and  C_15
REMARK    6  A    between atoms: C_21  and  O_22
REMARK    7  A    between atoms: O_22  and  C_23
REMARK    8  A    between atoms: C_23  and  C_24
REMARK    9  A    between atoms: C_32  and  O_39
REMARK   10  A    between atoms: C_32  and  C_43
REMARK   11  A    between atoms: O_39  and  C_45
REMARK                            x       y       z     vdW  Elec       q    Type
REMARK                         _______ _______ _______ _____ _____    ______ ____
ROOT
ATOM      1  C   UNL A   1     -21.646   1.629  27.627  0.00  0.00    +0.288 C 
ATOM      2  C   UNL A   1     -23.988   1.073  27.841  0.00  0.00    +0.032 C 
ATOM      3  O   UNL A   1     -21.886   2.216  26.359  0.00  0.00    -0.450 OA
ATOM      4  C   UNL A   1     -20.899  -0.264  29.359  0.00  0.00    +0.035 C 
ATOM      5  C   UNL A   1     -24.395   1.569  26.767  0.00  0.00    +0.000 C 
ATOM      6  C   UNL A   1     -23.255   2.180  25.888  0.00  0.00    +0.167 C 
ATOM      7  C   UNL A   1     -19.927   0.073  28.369  0.00  0.00    +0.146 C 
ATOM      8  O   UNL A   1     -20.198   1.355  27.799  0.00  0.00    -0.321 OA
ATOM      9  C   UNL A   1     -22.293   0.466  29.481  0.00  0.00    +0.039 C 
ATOM     10  C   UNL A   1     -22.605   0.505  28.008  0.00  0.00    +0.077 C 
ENDROOT
BRANCH   5  11
ATOM     11  C   UNL A   1     -25.688   1.614  26.461  0.00  0.00    +0.091 C 
ATOM     12  C   UNL A   1     -26.250   2.920  26.395  0.00  0.00    +0.059 C 
ATOM     13  C   UNL A   1     -27.438   3.091  25.645  0.00  0.00    +0.102 C 
ATOM     14  N   UNL A   1     -28.075   2.089  25.003  0.00  0.00    -0.212 NA
ATOM     15  C   UNL A   1     -27.543   0.849  25.079  0.00  0.00    +0.234 C 
ATOM     16  C   UNL A   1     -26.354   0.576  25.777  0.00  0.00    +0.244 C 
ATOM     17  F   UNL A   1     -25.860  -0.681  25.795  0.00  0.00    -0.227 F 
BRANCH  12  18
ATOM     18  C   UNL A   1     -25.642   4.093  27.123  0.00  0.00    +0.263 C 
ATOM     19  N   UNL A   1     -25.614   5.252  26.449  0.00  0.00    -0.200 NA
ATOM     20  C   UNL A   1     -25.026   6.479  26.963  0.00  0.00    +0.139 C 
ATOM     21  O   UNL A   1     -25.143   3.966  28.243  0.00  0.00    -0.269 OA
ENDBRANCH  12  18
BRANCH  15  22
ATOM     22  O   UNL A   1     -28.193  -0.208  24.477  0.00  0.00    -0.459 OA
BRANCH  22  23
ATOM     23  C   UNL A   1     -29.460   0.005  23.866  0.00  0.00    +0.242 C 
BRANCH  23  24
ATOM     24  C   UNL A   1     -30.065  -1.377  23.573  0.00  0.00    +0.229 C 
ATOM     25  O   UNL A   1     -30.729  -1.878  24.721  0.00  0.00    -0.216 OA
ENDBRANCH  23  24
ENDBRANCH  22  23
ENDBRANCH  15  22
ENDBRANCH   5  11
BRANCH   9  26
ATOM     26  C   UNL A   1     -22.989   1.692  30.206  0.00  0.00    +0.143 C 
BRANCH  26  27
ATOM     27  O   UNL A   1     -24.518   2.105  30.068  0.00  0.00    -0.353 OA
BRANCH  27  33
ATOM     28  C   UNL A   1     -24.131   3.627  32.048  0.00  0.00    +0.058 C 
ATOM     29  C   UNL A   1     -25.919   4.960  33.238  0.00  0.00    -0.025 C 
ATOM     30  N   UNL A   1     -27.788   2.573  31.339  0.00  0.00    -0.155 NA
ATOM     31  C   UNL A   1     -26.697   2.915  31.906  0.00  0.00    +0.087 C 
ATOM     32  C   UNL A   1     -24.609   4.849  32.796  0.00  0.00    -0.028 C 
ATOM     33  C   UNL A   1     -25.168   2.396  31.481  0.00  0.00    +0.131 C 
ATOM     34  C   UNL A   1     -26.947   4.034  32.814  0.00  0.00    +0.071 C 
BRANCH  33  36
ATOM     35  C   UNL A   1     -25.387  -0.679  31.571  0.00  0.00    +0.080 C 
ATOM     36  C   UNL A   1     -25.189   0.773  32.028  0.00  0.00    +0.048 C 
ATOM     37  C   UNL A   1     -25.336   0.684  33.544  0.00  0.00    +0.023 C 
ATOM     38  C   UNL A   1     -24.829  -0.715  33.905  0.00  0.00    +0.089 C 
ATOM     39  N   UNL A   1     -24.758  -1.481  32.646  0.00  0.00    -0.219 NA
BRANCH  35  40
ATOM     40  C   UNL A   1     -24.855  -1.012  30.143  0.00  0.00    +0.044 C 
BRANCH  40  41
ATOM     41  C   UNL A   1     -24.973  -2.505  29.788  0.00  0.00    -0.021 C 
ATOM     42  C   UNL A   1     -23.906  -3.173  29.146  0.00  0.00    -0.004 C 
ATOM     43  C   UNL A   1     -23.989  -4.549  28.853  0.00  0.00    -0.000 C 
ATOM     44  C   UNL A   1     -25.137  -5.280  29.205  0.00  0.00    -0.000 C 
ATOM     45  C   UNL A   1     -26.232  -4.611  29.784  0.00  0.00    -0.000 C 
ATOM     46  C   UNL A   1     -26.155  -3.232  30.065  0.00  0.00    -0.004 C 
ENDBRANCH  40  41
ENDBRANCH  35  40
ENDBRANCH  33  36
ENDBRANCH  27  33
ENDBRANCH  26  27
ENDBRANCH   9  26
TORSDOF 11
