REMARK  Name = outputs/IAG933/test6/raw/output_4195_IAG933_linker_design_.xyz
REMARK  9 active torsions:
REMARK  status: ('A' for Active; 'I' for Inactive)
REMARK    1  A    between atoms: C_1  and  C_2
REMARK    2  A    between atoms: C_1  and  C_8
REMARK    3  A    between atoms: C_9  and  N_30
REMARK    4  A    between atoms: C_13  and  C_35
REMARK    5  A    between atoms: C_14  and  C_15
REMARK    6  A    between atoms: C_21  and  O_22
REMARK    7  A    between atoms: O_22  and  C_23
REMARK    8  A    between atoms: C_23  and  C_24
REMARK    9  A    between atoms: N_33  and  C_40
REMARK                            x       y       z     vdW  Elec       q    Type
REMARK                         _______ _______ _______ _____ _____    ______ ____
ROOT
ATOM      1  F   UNL A   1     -23.340   1.640  25.064  0.00  0.00    -0.204 F 
ATOM      2  N   UNL A   1     -23.323   1.382  29.141  0.00  0.00    -0.032 NA
ATOM      3  C   UNL A   1     -24.532   1.352  28.502  0.00  0.00    +0.372 C 
ATOM      4  N   UNL A   1     -25.861   1.340  29.278  0.00  0.00    +0.035 NA
ATOM      5  C   UNL A   1     -23.379   1.541  26.406  0.00  0.00    +0.151 C 
ATOM      6  C   UNL A   1     -24.584   1.471  27.127  0.00  0.00    +0.116 C 
ATOM      7  C   UNL A   1     -22.170   1.454  28.430  0.00  0.00    +0.238 C 
ATOM      8  C   UNL A   1     -22.153   1.596  27.064  0.00  0.00    +0.080 C 
ENDROOT
BRANCH   4  15
ATOM      9  N   UNL A   1     -25.489   2.115  31.603  0.00  0.00    -0.178 N 
ATOM     10  N   UNL A   1     -28.939   4.639  31.977  0.00  0.00    -0.033 NA
ATOM     11  N   UNL A   1     -26.461   3.885  33.041  0.00  0.00    -0.088 NA
ATOM     12  C   UNL A   1     -27.571   2.721  30.917  0.00  0.00    +0.160 C 
ATOM     13  C   UNL A   1     -25.334   3.348  32.446  0.00  0.00    +0.311 C 
ATOM     14  O   UNL A   1     -28.610   2.804  33.322  0.00  0.00    -0.134 OA
ATOM     15  C   UNL A   1     -26.329   2.153  30.523  0.00  0.00    +0.329 C 
ATOM     16  S   UNL A   1     -27.825   3.513  32.345  0.00  0.00    +0.106 S 
BRANCH   9  18
ATOM     17  C   UNL A   1     -25.387  -0.679  31.571  0.00  0.00    +0.120 C 
ATOM     18  C   UNL A   1     -25.189   0.773  32.028  0.00  0.00    +0.179 C 
ATOM     19  C   UNL A   1     -25.336   0.684  33.544  0.00  0.00    +0.067 C 
ATOM     20  C   UNL A   1     -24.829  -0.715  33.905  0.00  0.00    +0.093 C 
ATOM     21  N   UNL A   1     -24.758  -1.481  32.646  0.00  0.00    -0.215 NA
BRANCH  17  22
ATOM     22  C   UNL A   1     -24.855  -1.012  30.143  0.00  0.00    +0.048 C 
BRANCH  22  23
ATOM     23  C   UNL A   1     -24.973  -2.505  29.788  0.00  0.00    -0.021 C 
ATOM     24  C   UNL A   1     -23.906  -3.173  29.146  0.00  0.00    -0.004 C 
ATOM     25  C   UNL A   1     -23.989  -4.549  28.853  0.00  0.00    -0.000 C 
ATOM     26  C   UNL A   1     -25.137  -5.280  29.205  0.00  0.00    -0.000 C 
ATOM     27  C   UNL A   1     -26.232  -4.611  29.784  0.00  0.00    -0.000 C 
ATOM     28  C   UNL A   1     -26.155  -3.232  30.065  0.00  0.00    -0.004 C 
ENDBRANCH  22  23
ENDBRANCH  17  22
ENDBRANCH   9  18
ENDBRANCH   4  15
BRANCH   6  29
ATOM     29  C   UNL A   1     -25.688   1.614  26.461  0.00  0.00    +0.048 C 
ATOM     30  C   UNL A   1     -26.250   2.920  26.395  0.00  0.00    +0.077 C 
ATOM     31  C   UNL A   1     -27.438   3.091  25.645  0.00  0.00    +0.107 C 
ATOM     32  N   UNL A   1     -28.075   2.089  25.003  0.00  0.00    -0.208 NA
ATOM     33  C   UNL A   1     -27.543   0.849  25.079  0.00  0.00    +0.253 C 
ATOM     34  C   UNL A   1     -26.354   0.576  25.777  0.00  0.00    +0.193 C 
ATOM     35  F   UNL A   1     -25.860  -0.681  25.795  0.00  0.00    -0.199 F 
BRANCH  30  36
ATOM     36  C   UNL A   1     -25.642   4.093  27.123  0.00  0.00    +0.266 C 
ATOM     37  N   UNL A   1     -25.614   5.252  26.449  0.00  0.00    -0.200 NA
ATOM     38  C   UNL A   1     -25.026   6.479  26.963  0.00  0.00    +0.139 C 
ATOM     39  O   UNL A   1     -25.143   3.966  28.243  0.00  0.00    -0.268 OA
ENDBRANCH  30  36
BRANCH  33  40
ATOM     40  O   UNL A   1     -28.193  -0.208  24.477  0.00  0.00    -0.456 OA
BRANCH  40  41
ATOM     41  C   UNL A   1     -29.460   0.005  23.866  0.00  0.00    +0.243 C 
BRANCH  41  42
ATOM     42  C   UNL A   1     -30.065  -1.377  23.573  0.00  0.00    +0.229 C 
ATOM     43  O   UNL A   1     -30.729  -1.878  24.721  0.00  0.00    -0.216 OA
ENDBRANCH  41  42
ENDBRANCH  40  41
ENDBRANCH  33  40
ENDBRANCH   6  29
TORSDOF 9
