MODEL 4196
MODEL 1
REMARK VINA RESULT:    -7.482      0.000      0.000
REMARK INTER + INTRA:          -9.380
REMARK INTER:                  -8.794
REMARK INTRA:                  -0.587
REMARK UNBOUND:                -0.587
REMARK  Name = No_4196-gen_results/8p0m/2024-11-27-11-27-31/
REMARK  3 active torsions:
REMARK  status: ('A' for Active; 'I' for Inactive)
REMARK    1  A    between atoms: C_1  and  C_2
REMARK    2  A    between atoms: C_7  and  C_15
REMARK    3  A    between atoms: C_16  and  C_17
REMARK                            x       y       z     vdW  Elec       q    Type
REMARK                         _______ _______ _______ _____ _____    ______ ____
ROOT
ATOM      1  C   UNL A   1     -27.083   2.259  25.388  0.00  0.00    +0.044 A 
ATOM      2  C   UNL A   1     -28.305   2.271  24.724  0.00  0.00    +0.002 A 
ATOM      3  C   UNL A   1     -28.946   1.111  24.040  0.00  0.00    +0.010 A 
ATOM      4  C   UNL A   1     -28.150  -0.067  23.932  0.00  0.00    +0.058 A 
ATOM      5  C   UNL A   1     -26.889  -0.038  24.561  0.00  0.00    +0.011 A 
ATOM      6  C   UNL A   1     -26.388   1.023  25.210  0.00  0.00    +0.002 A 
ATOM      7 CL   UNL A   1     -28.777  -1.500  23.348  0.00  0.00    -0.082 Cl
ATOM      8  C   UNL A   1     -30.281   1.165  23.416  0.00  0.00    +0.001 A 
ATOM      9  C   UNL A   1     -30.802   2.264  23.371  0.00  0.00    +0.000 A 
ATOM     10  C   UNL A   1     -30.406   3.402  24.061  0.00  0.00    -0.000 A 
ATOM     11  C   UNL A   1     -29.122   3.443  24.676  0.00  0.00    -0.000 A 
ENDROOT
BRANCH   1  12
ATOM     12  C   UNL A   1     -26.652   3.256  25.921  0.00  0.00    +0.341 C 
ATOM     13  F   UNL A   1     -26.558   3.378  27.162  0.00  0.00    -0.193 F 
ATOM     14  F   UNL A   1     -25.387   3.595  25.395  0.00  0.00    -0.193 F 
ENDBRANCH   1  12
BRANCH   6  15
ATOM     15  C   UNL A   1     -24.993   0.941  25.740  0.00  0.00    -0.004 C 
ATOM     16  C   UNL A   1     -24.862   0.727  27.081  0.00  0.00    -0.022 C 
ATOM     17  C   UNL A   1     -25.843  -0.417  27.564  0.00  0.00    +0.031 C 
BRANCH  16  18
ATOM     18  C   UNL A   1     -23.606   0.524  27.641  0.00  0.00    -0.004 A 
ATOM     19  C   UNL A   1     -23.352  -0.334  28.465  0.00  0.00    -0.000 A 
ATOM     20  C   UNL A   1     -22.107  -0.561  28.941  0.00  0.00    -0.000 A 
ATOM     21  C   UNL A   1     -21.053   0.339  28.504  0.00  0.00    -0.000 A 
ATOM     22  C   UNL A   1     -21.338   1.364  27.644  0.00  0.00    -0.000 A 
ATOM     23  C   UNL A   1     -22.649   1.482  27.133  0.00  0.00    -0.000 A 
ENDBRANCH  16  18
ENDBRANCH   6  15
TORSDOF 3
ENDMDL
ENDMDL
