REMARK  Name = outputs/IAG933/test6/raw/output_4196_IAG933_linker_design_.xyz
REMARK  16 active torsions:
REMARK  status: ('A' for Active; 'I' for Inactive)
REMARK    1  A    between atoms: C_1  and  C_2
REMARK    2  A    between atoms: C_1  and  C_8
REMARK    3  A    between atoms: C_1  and  C_42
REMARK    4  A    between atoms: C_13  and  C_36
REMARK    5  A    between atoms: C_14  and  C_15
REMARK    6  A    between atoms: C_21  and  O_22
REMARK    7  A    between atoms: O_22  and  C_23
REMARK    8  A    between atoms: C_23  and  C_24
REMARK    9  A    between atoms: C_28  and  C_35
REMARK   10  A    between atoms: N_29  and  C_42
REMARK   11  A    between atoms: C_30  and  C_35
REMARK   12  A    between atoms: C_30  and  C_41
REMARK   13  A    between atoms: C_31  and  C_38
REMARK   14  A    between atoms: C_31  and  C_42
REMARK   15  A    between atoms: C_34  and  C_36
REMARK   16  A    between atoms: C_38  and  N_39
REMARK                            x       y       z     vdW  Elec       q    Type
REMARK                         _______ _______ _______ _____ _____    ______ ____
ROOT
ATOM      1  C   UNL A   1     -24.255   0.532  28.154  0.00  0.00    -0.005 C 
ATOM      2  C   UNL A   1     -24.420   1.363  27.056  0.00  0.00    -0.002 C 
ENDROOT
BRANCH   2   3
ATOM      3  C   UNL A   1     -25.688   1.614  26.461  0.00  0.00    +0.038 C 
ATOM      4  C   UNL A   1     -26.250   2.920  26.395  0.00  0.00    +0.076 C 
ATOM      5  C   UNL A   1     -27.438   3.091  25.645  0.00  0.00    +0.107 C 
ATOM      6  N   UNL A   1     -28.075   2.089  25.003  0.00  0.00    -0.208 NA
ATOM      7  C   UNL A   1     -27.543   0.849  25.079  0.00  0.00    +0.253 C 
ATOM      8  C   UNL A   1     -26.354   0.576  25.777  0.00  0.00    +0.193 C 
ATOM      9  F   UNL A   1     -25.860  -0.681  25.795  0.00  0.00    -0.199 F 
BRANCH   4  10
ATOM     10  C   UNL A   1     -25.642   4.093  27.123  0.00  0.00    +0.266 C 
ATOM     11  N   UNL A   1     -25.614   5.252  26.449  0.00  0.00    -0.200 NA
ATOM     12  C   UNL A   1     -25.026   6.479  26.963  0.00  0.00    +0.139 C 
ATOM     13  O   UNL A   1     -25.143   3.966  28.243  0.00  0.00    -0.268 OA
ENDBRANCH   4  10
BRANCH   7  14
ATOM     14  O   UNL A   1     -28.193  -0.208  24.477  0.00  0.00    -0.456 OA
BRANCH  14  15
ATOM     15  C   UNL A   1     -29.460   0.005  23.866  0.00  0.00    +0.243 C 
BRANCH  15  16
ATOM     16  C   UNL A   1     -30.065  -1.377  23.573  0.00  0.00    +0.229 C 
ATOM     17  O   UNL A   1     -30.729  -1.878  24.721  0.00  0.00    -0.216 OA
ENDBRANCH  15  16
ENDBRANCH  14  15
ENDBRANCH   7  14
ENDBRANCH   2   3
BRANCH   2  18
ATOM     18  C   UNL A   1     -23.324   1.971  26.445  0.00  0.00    -0.001 C 
ATOM     19  C   UNL A   1     -22.015   1.765  26.785  0.00  0.00    -0.000 C 
ENDBRANCH   2  18
BRANCH   1  20
ATOM     20  C   UNL A   1     -22.865   0.468  28.432  0.00  0.00    +0.135 C 
BRANCH  20  22
ATOM     21  N   UNL A   1     -21.720   0.882  27.819  0.00  0.00    -0.020 NA
ATOM     22  N   UNL A   1     -22.189   0.304  28.532  0.00  0.00    -0.108 NA
ENDBRANCH  20  22
ENDBRANCH   1  20
BRANCH   1  23
ATOM     23  C   UNL A   1     -25.304  -0.150  28.946  0.00  0.00    +0.120 C 
BRANCH  23  24
ATOM     24  N   UNL A   1     -26.456   0.702  29.115  0.00  0.00    -0.203 NA
ATOM     25  O   UNL A   1     -28.372  -0.366  28.410  0.00  0.00    -0.273 OA
ATOM     26  C   UNL A   1     -27.740   0.647  28.666  0.00  0.00    +0.242 C 
BRANCH  26  27
ATOM     27  C   UNL A   1     -28.290   1.953  28.620  0.00  0.00    +0.087 C 
BRANCH  27  28
ATOM     28  C   UNL A   1     -28.975   2.139  30.023  0.00  0.00    +0.010 C 
BRANCH  28  29
ATOM     29  C   UNL A   1     -28.964   0.999  31.065  0.00  0.00    +0.001 C 
ATOM     30  C   UNL A   1     -29.024  -0.529  30.985  0.00  0.00    +0.000 C 
ENDBRANCH  28  29
ENDBRANCH  27  28
ENDBRANCH  26  27
ENDBRANCH  23  24
BRANCH  23  31
ATOM     31  C   UNL A   1     -24.855  -1.012  30.143  0.00  0.00    +0.062 C 
BRANCH  31  32
ATOM     32  C   UNL A   1     -24.973  -2.505  29.788  0.00  0.00    -0.019 C 
ATOM     33  C   UNL A   1     -23.906  -3.173  29.146  0.00  0.00    -0.004 C 
ATOM     34  C   UNL A   1     -23.989  -4.549  28.853  0.00  0.00    -0.000 C 
ATOM     35  C   UNL A   1     -25.137  -5.280  29.205  0.00  0.00    -0.000 C 
ATOM     36  C   UNL A   1     -26.232  -4.611  29.784  0.00  0.00    -0.000 C 
ATOM     37  C   UNL A   1     -26.155  -3.232  30.065  0.00  0.00    -0.004 C 
ENDBRANCH  31  32
BRANCH  31  38
ATOM     38  C   UNL A   1     -25.387  -0.679  31.571  0.00  0.00    +0.079 C 
ATOM     39  C   UNL A   1     -25.189   0.773  32.028  0.00  0.00    +0.019 C 
ATOM     40  C   UNL A   1     -25.336   0.684  33.544  0.00  0.00    +0.020 C 
ATOM     41  C   UNL A   1     -24.829  -0.715  33.905  0.00  0.00    +0.089 C 
ATOM     42  N   UNL A   1     -24.758  -1.481  32.646  0.00  0.00    -0.219 NA
ENDBRANCH  31  38
ENDBRANCH  23  31
ENDBRANCH   1  23
TORSDOF 16
