REMARK  Name = outputs/IAG933/test6/raw/output_4197_IAG933_linker_design_.xyz
REMARK  15 active torsions:
REMARK  status: ('A' for Active; 'I' for Inactive)
REMARK    1  A    between atoms: C_1  and  C_2
REMARK    2  A    between atoms: C_1  and  C_8
REMARK    3  A    between atoms: C_1  and  C_32
REMARK    4  A    between atoms: C_13  and  C_37
REMARK    5  A    between atoms: C_14  and  C_15
REMARK    6  A    between atoms: C_21  and  O_22
REMARK    7  A    between atoms: O_22  and  C_23
REMARK    8  A    between atoms: C_23  and  C_24
REMARK    9  A    between atoms: N_28  and  C_32
REMARK   10  A    between atoms: N_28  and  CA_33
REMARK   11  A    between atoms: N_30  and  C_32
REMARK   12  A    between atoms: N_30  and  C_36
REMARK   13  A    between atoms: C_31  and  N_34
REMARK   14  A    between atoms: CA_33  and  C_37
REMARK   15  A    between atoms: CA_33  and  C_38
REMARK                            x       y       z     vdW  Elec       q    Type
REMARK                         _______ _______ _______ _____ _____    ______ ____
ROOT
ATOM      1  C   UNL A   1     -25.318  -0.017  29.009  0.00  0.00    +0.285 C 
ENDROOT
BRANCH   1   2
ATOM      2  C   UNL A   1     -24.855  -1.012  30.143  0.00  0.00    +0.103 C 
BRANCH   2   3
ATOM      3  C   UNL A   1     -24.973  -2.505  29.788  0.00  0.00    -0.016 C 
ATOM      4  C   UNL A   1     -23.906  -3.173  29.146  0.00  0.00    -0.004 C 
ATOM      5  C   UNL A   1     -23.989  -4.549  28.853  0.00  0.00    -0.000 C 
ATOM      6  C   UNL A   1     -25.137  -5.280  29.205  0.00  0.00    -0.000 C 
ATOM      7  C   UNL A   1     -26.232  -4.611  29.784  0.00  0.00    -0.000 C 
ATOM      8  C   UNL A   1     -26.155  -3.232  30.065  0.00  0.00    -0.004 C 
ENDBRANCH   2   3
BRANCH   2   9
ATOM      9  C   UNL A   1     -25.387  -0.679  31.571  0.00  0.00    +0.082 C 
ATOM     10  C   UNL A   1     -25.189   0.773  32.028  0.00  0.00    +0.019 C 
ATOM     11  C   UNL A   1     -25.336   0.684  33.544  0.00  0.00    +0.020 C 
ATOM     12  C   UNL A   1     -24.829  -0.715  33.905  0.00  0.00    +0.089 C 
ATOM     13  N   UNL A   1     -24.758  -1.481  32.646  0.00  0.00    -0.219 NA
ENDBRANCH   2   9
ENDBRANCH   1   2
BRANCH   1  14
ATOM     14  N   UNL A   1     -24.272   1.064  28.974  0.00  0.00    -0.173 NA
BRANCH  14  15
ATOM     15  CA  UNL A   1     -23.592   1.395  27.805  0.00  0.00    +0.110 C 
BRANCH  15  17
ATOM     16  O   UNL A   1     -21.153   1.127  28.244  0.00  0.00    -0.219 OA
ATOM     17  C   UNL A   1     -22.185   1.311  27.245  0.00  0.00    +0.199 C 
ENDBRANCH  15  17
BRANCH  15  18
ATOM     18  C   UNL A   1     -24.167   1.383  26.916  0.00  0.00    +0.028 C 
BRANCH  18  19
ATOM     19  C   UNL A   1     -25.688   1.614  26.461  0.00  0.00    +0.072 C 
ATOM     20  C   UNL A   1     -26.250   2.920  26.395  0.00  0.00    +0.055 C 
ATOM     21  C   UNL A   1     -27.438   3.091  25.645  0.00  0.00    +0.102 C 
ATOM     22  N   UNL A   1     -28.075   2.089  25.003  0.00  0.00    -0.212 NA
ATOM     23  C   UNL A   1     -27.543   0.849  25.079  0.00  0.00    +0.234 C 
ATOM     24  C   UNL A   1     -26.354   0.576  25.777  0.00  0.00    +0.240 C 
ATOM     25  F   UNL A   1     -25.860  -0.681  25.795  0.00  0.00    -0.227 F 
BRANCH  20  26
ATOM     26  C   UNL A   1     -25.642   4.093  27.123  0.00  0.00    +0.262 C 
ATOM     27  N   UNL A   1     -25.614   5.252  26.449  0.00  0.00    -0.200 NA
ATOM     28  C   UNL A   1     -25.026   6.479  26.963  0.00  0.00    +0.139 C 
ATOM     29  O   UNL A   1     -25.143   3.966  28.243  0.00  0.00    -0.269 OA
ENDBRANCH  20  26
BRANCH  23  30
ATOM     30  O   UNL A   1     -28.193  -0.208  24.477  0.00  0.00    -0.459 OA
BRANCH  30  31
ATOM     31  C   UNL A   1     -29.460   0.005  23.866  0.00  0.00    +0.242 C 
BRANCH  31  32
ATOM     32  C   UNL A   1     -30.065  -1.377  23.573  0.00  0.00    +0.229 C 
ATOM     33  O   UNL A   1     -30.729  -1.878  24.721  0.00  0.00    -0.216 OA
ENDBRANCH  31  32
ENDBRANCH  30  31
ENDBRANCH  23  30
ENDBRANCH  18  19
ENDBRANCH  15  18
ENDBRANCH  14  15
ENDBRANCH   1  14
BRANCH   1  34
ATOM     34  N   UNL A   1     -26.739   0.382  29.204  0.00  0.00    -0.018 NA
BRANCH  34  37
ATOM     35  N   UNL A   1     -28.769   1.535  29.441  0.00  0.00    -0.122 N 
ATOM     36  O   UNL A   1     -28.400   3.449  30.707  0.00  0.00    -0.425 OA
ATOM     37  C   UNL A   1     -27.511   1.506  29.622  0.00  0.00    +0.353 C 
ATOM     38  C   UNL A   1     -29.381   2.894  29.673  0.00  0.00    +0.427 C 
ATOM     39  C   UNL A   1     -27.309   2.653  30.420  0.00  0.00    +0.263 C 
BRANCH  35  40
ATOM     40  C   UNL A   1     -29.764   0.296  29.094  0.00  0.00    +0.391 C 
ATOM     41  O   UNL A   1     -29.115  -0.288  27.975  0.00  0.00    -0.164 OA
ENDBRANCH  35  40
ENDBRANCH  34  37
ENDBRANCH   1  34
TORSDOF 15
