MODEL 4197
MODEL 1
REMARK VINA RESULT:    -8.029      0.000      0.000
REMARK INTER + INTRA:         -11.544
REMARK INTER:                 -11.783
REMARK INTRA:                   0.240
REMARK UNBOUND:                 0.240
REMARK  Name = No_4197-gen_results/8p0m/2024-11-27-11-27-31/
REMARK  9 active torsions:
REMARK  status: ('A' for Active; 'I' for Inactive)
REMARK    1  A    between atoms: C_2  and  C_4
REMARK    2  A    between atoms: C_4  and  N_15
REMARK    3  A    between atoms: C_10  and  C_11
REMARK    4  A    between atoms: C_11  and  C_12
REMARK    5  A    between atoms: N_15  and  C_16
REMARK    6  A    between atoms: C_16  and  C_17
REMARK    7  A    between atoms: C_17  and  C_23
REMARK    8  A    between atoms: C_19  and  C_29
REMARK    9  A    between atoms: C_23  and  C_24
REMARK                            x       y       z     vdW  Elec       q    Type
REMARK                         _______ _______ _______ _____ _____    ______ ____
ROOT
ATOM      1  C   UNL A   1     -24.278   1.001  30.034  0.00  0.00    +0.029 C 
ATOM      2  C   UNL A   1     -24.729  -0.270  30.046  0.00  0.00    +0.006 C 
ATOM      3  C   UNL A   1     -24.007  -1.317  29.574  0.00  0.00    +0.022 C 
ATOM      4  C   UNL A   1     -22.737  -1.166  29.377  0.00  0.00    +0.004 C 
ATOM      5  C   UNL A   1     -22.175   0.187  29.381  0.00  0.00    +0.000 C 
ATOM      6  C   UNL A   1     -23.018   1.239  29.524  0.00  0.00    +0.002 C 
ENDROOT
BRANCH   3   7
ATOM      7  C   UNL A   1     -24.501  -2.737  29.515  0.00  0.00    -0.023 A 
ATOM      8  C   UNL A   1     -23.897  -3.584  28.932  0.00  0.00    -0.004 A 
ATOM      9  C   UNL A   1     -24.375  -4.956  28.684  0.00  0.00    -0.001 A 
ATOM     10  C   UNL A   1     -25.653  -5.207  29.143  0.00  0.00    -0.004 A 
ATOM     11  C   UNL A   1     -26.403  -4.264  29.769  0.00  0.00    -0.022 A 
ATOM     12  C   UNL A   1     -25.932  -2.964  29.940  0.00  0.00    -0.009 A 
ATOM     13  C   UNL A   1     -27.767  -4.585  30.239  0.00  0.00    +0.031 C 
ENDBRANCH   3   7
BRANCH   1  14
ATOM     14  C   UNL A   1     -25.261   1.906  29.490  0.00  0.00    +0.113 C 
BRANCH  14  15
ATOM     15  N   UNL A   1     -24.792   2.889  28.695  0.00  0.00    -0.233 NA
BRANCH  15  16
ATOM     16  C   UNL A   1     -25.263   3.300  27.390  0.00  0.00    +0.115 C 
ATOM     17  C   UNL A   1     -25.684   4.179  27.080  0.00  0.00    -0.004 C 
BRANCH  16  19
ATOM     18  O   UNL A   1     -23.257   2.430  26.355  0.00  0.00    -0.269 OA
ATOM     19  C   UNL A   1     -24.472   2.218  26.272  0.00  0.00    +0.264 C 
ATOM     20  N   UNL A   1     -25.225   1.756  25.755  0.00  0.00    -0.274 N 
ATOM     21  C   UNL A   1     -24.825   0.705  24.751  0.00  0.00    +0.094 C 
ATOM     22  C   UNL A   1     -25.337  -0.319  24.627  0.00  0.00    +0.023 C 
ATOM     23  C   UNL A   1     -26.793  -0.487  24.907  0.00  0.00    +0.020 C 
ATOM     24  C   UNL A   1     -27.384   0.624  25.626  0.00  0.00    +0.100 C 
ATOM     25  C   UNL A   1     -26.599   1.609  26.066  0.00  0.00    +0.110 C 
ATOM     26 CL   UNL A   1     -29.022   0.435  26.119  0.00  0.00    -0.113 Cl
ENDBRANCH  16  19
BRANCH  17  27
ATOM     27  C   UNL A   1     -25.867   5.298  28.060  0.00  0.00    +0.048 C 
BRANCH  27  28
ATOM     28  C   UNL A   1     -25.236   6.519  27.702  0.00  0.00    +0.114 C 
ATOM     29  N   UNL A   1     -24.469   6.815  27.063  0.00  0.00    -0.131 NA
ENDBRANCH  27  28
ENDBRANCH  17  27
ENDBRANCH  15  16
ENDBRANCH  14  15
ENDBRANCH   1  14
BRANCH   1  30
ATOM     30  C   UNL A   1     -24.189   1.499  31.557  0.00  0.00    +0.087 C 
BRANCH  30  31
ATOM     31  C   UNL A   1     -25.278   1.137  32.412  0.00  0.00    +0.226 C 
ATOM     32  O   UNL A   1     -26.191   1.795  32.520  0.00  0.00    -0.275 OA
ATOM     33  N   UNL A   1     -25.030   0.158  33.283  0.00  0.00    -0.276 N 
ATOM     34  C   UNL A   1     -24.003  -0.789  33.319  0.00  0.00    +0.115 C 
ATOM     35  C   UNL A   1     -26.081  -0.093  34.350  0.00  0.00    +0.115 C 
ENDBRANCH  30  31
ENDBRANCH   1  30
TORSDOF 9
ENDMDL
ENDMDL
