REMARK  Name = outputs/IAG933/test6/raw/output_4198_IAG933_linker_design_.xyz
REMARK  15 active torsions:
REMARK  status: ('A' for Active; 'I' for Inactive)
REMARK    1  A    between atoms: C_1  and  C_2
REMARK    2  A    between atoms: C_1  and  C_8
REMARK    3  A    between atoms: C_1  and  C_44
REMARK    4  A    between atoms: C_13  and  N_35
REMARK    5  A    between atoms: C_14  and  C_15
REMARK    6  A    between atoms: C_21  and  O_22
REMARK    7  A    between atoms: O_22  and  C_23
REMARK    8  A    between atoms: C_23  and  C_24
REMARK    9  A    between atoms: C_28  and  C_29
REMARK   10  A    between atoms: C_28  and  N_35
REMARK   11  A    between atoms: C_28  and  C_44
REMARK   12  A    between atoms: C_29  and  O_36
REMARK   13  A    between atoms: C_32  and  N_34
REMARK   14  A    between atoms: C_37  and  O_40
REMARK   15  A    between atoms: O_40  and  C_44
REMARK                            x       y       z     vdW  Elec       q    Type
REMARK                         _______ _______ _______ _____ _____    ______ ____
ROOT
ATOM      1  C   UNL A   1     -25.372   0.028  29.318  0.00  0.00    +0.147 C 
ENDROOT
BRANCH   1   2
ATOM      2  C   UNL A   1     -24.855  -1.012  30.143  0.00  0.00    +0.067 C 
BRANCH   2   3
ATOM      3  C   UNL A   1     -24.973  -2.505  29.788  0.00  0.00    -0.019 C 
ATOM      4  C   UNL A   1     -23.906  -3.173  29.146  0.00  0.00    -0.004 C 
ATOM      5  C   UNL A   1     -23.989  -4.549  28.853  0.00  0.00    -0.000 C 
ATOM      6  C   UNL A   1     -25.137  -5.280  29.205  0.00  0.00    -0.000 C 
ATOM      7  C   UNL A   1     -26.232  -4.611  29.784  0.00  0.00    -0.000 C 
ATOM      8  C   UNL A   1     -26.155  -3.232  30.065  0.00  0.00    -0.004 C 
ENDBRANCH   2   3
BRANCH   2   9
ATOM      9  C   UNL A   1     -25.387  -0.679  31.571  0.00  0.00    +0.079 C 
ATOM     10  C   UNL A   1     -25.189   0.773  32.028  0.00  0.00    +0.019 C 
ATOM     11  C   UNL A   1     -25.336   0.684  33.544  0.00  0.00    +0.020 C 
ATOM     12  C   UNL A   1     -24.829  -0.715  33.905  0.00  0.00    +0.089 C 
ATOM     13  N   UNL A   1     -24.758  -1.481  32.646  0.00  0.00    -0.219 NA
ENDBRANCH   2   9
ENDBRANCH   1   2
BRANCH   1  14
ATOM     14  C   UNL A   1     -24.430   0.438  28.312  0.00  0.00    +0.199 C 
BRANCH  14  15
ATOM     15  C   UNL A   1     -23.083   0.714  28.376  0.00  0.00    +0.336 C 
ATOM     16  O   UNL A   1     -22.411  -0.058  29.128  0.00  0.00    -0.248 OA
BRANCH  15  18
ATOM     17  C   UNL A   1     -20.983   1.673  27.710  0.00  0.00    +0.256 C 
ATOM     18  O   UNL A   1     -22.444   1.727  27.661  0.00  0.00    -0.443 OA
ENDBRANCH  15  18
ENDBRANCH  14  15
BRANCH  14  19
ATOM     19  N   UNL A   1     -25.143   1.330  27.536  0.00  0.00    -0.200 NA
BRANCH  19  20
ATOM     20  C   UNL A   1     -25.688   1.614  26.461  0.00  0.00    +0.143 C 
ATOM     21  C   UNL A   1     -26.250   2.920  26.395  0.00  0.00    +0.071 C 
ATOM     22  C   UNL A   1     -27.438   3.091  25.645  0.00  0.00    +0.103 C 
ATOM     23  N   UNL A   1     -28.075   2.089  25.003  0.00  0.00    -0.212 NA
ATOM     24  C   UNL A   1     -27.543   0.849  25.079  0.00  0.00    +0.236 C 
ATOM     25  C   UNL A   1     -26.354   0.576  25.777  0.00  0.00    +0.256 C 
ATOM     26  F   UNL A   1     -25.860  -0.681  25.795  0.00  0.00    -0.225 F 
BRANCH  21  27
ATOM     27  C   UNL A   1     -25.642   4.093  27.123  0.00  0.00    +0.264 C 
ATOM     28  N   UNL A   1     -25.614   5.252  26.449  0.00  0.00    -0.200 NA
ATOM     29  C   UNL A   1     -25.026   6.479  26.963  0.00  0.00    +0.139 C 
ATOM     30  O   UNL A   1     -25.143   3.966  28.243  0.00  0.00    -0.269 OA
ENDBRANCH  21  27
BRANCH  24  31
ATOM     31  O   UNL A   1     -28.193  -0.208  24.477  0.00  0.00    -0.459 OA
BRANCH  31  32
ATOM     32  C   UNL A   1     -29.460   0.005  23.866  0.00  0.00    +0.242 C 
BRANCH  32  33
ATOM     33  C   UNL A   1     -30.065  -1.377  23.573  0.00  0.00    +0.229 C 
ATOM     34  O   UNL A   1     -30.729  -1.878  24.721  0.00  0.00    -0.216 OA
ENDBRANCH  32  33
ENDBRANCH  31  32
ENDBRANCH  24  31
ENDBRANCH  19  20
ENDBRANCH  14  19
ENDBRANCH   1  14
BRANCH   1  35
ATOM     35  O   UNL A   1     -26.735   0.080  28.883  0.00  0.00    -0.355 OA
BRANCH  35  38
ATOM     36  C   UNL A   1     -28.957  -0.253  28.036  0.00  0.00    +0.032 C 
ATOM     37  N   UNL A   1     -29.542   2.349  29.660  0.00  0.00    -0.272 NA
ATOM     38  C   UNL A   1     -28.039   0.458  29.067  0.00  0.00    +0.131 C 
ATOM     39  C   UNL A   1     -30.439   0.095  28.359  0.00  0.00    +0.020 C 
ATOM     40  C   UNL A   1     -30.608   1.447  29.168  0.00  0.00    +0.072 C 
ATOM     41  C   UNL A   1     -28.142   2.020  29.263  0.00  0.00    +0.102 C 
BRANCH  37  42
ATOM     42  C   UNL A   1     -29.796   3.370  30.416  0.00  0.00    +0.058 C 
ATOM     43  C   UNL A   1     -28.834   3.944  31.458  0.00  0.00    +0.017 C 
ATOM     44  C   UNL A   1     -31.222   3.981  30.495  0.00  0.00    +0.017 C 
ENDBRANCH  37  42
ENDBRANCH  35  38
ENDBRANCH   1  35
TORSDOF 15
