MODEL 4199
MODEL 1
REMARK VINA RESULT:    -5.321      0.000      0.000
REMARK INTER + INTRA:          -5.783
REMARK INTER:                  -5.632
REMARK INTRA:                  -0.151
REMARK UNBOUND:                -0.151
REMARK  Name = No_4199-gen_results/8p0m/2024-11-27-11-27-31/
REMARK  1 active torsions:
REMARK  status: ('A' for Active; 'I' for Inactive)
REMARK    1  A    between atoms: C_4  and  C_7
REMARK                            x       y       z     vdW  Elec       q    Type
REMARK                         _______ _______ _______ _____ _____    ______ ____
ROOT
ATOM      1  C   UNL A   1     -26.597  -3.979  29.857  0.00  0.00    -0.000 A 
ATOM      2  C   UNL A   1     -26.080  -4.871  29.639  0.00  0.00    -0.000 A 
ATOM      3  C   UNL A   1     -25.824  -2.703  29.611  0.00  0.00    -0.000 A 
ATOM      4  C   UNL A   1     -24.559  -2.770  28.991  0.00  0.00    -0.000 A 
ATOM      5  C   UNL A   1     -24.804  -5.211  28.970  0.00  0.00    -0.000 A 
ATOM      6  C   UNL A   1     -24.067  -4.061  28.722  0.00  0.00    -0.000 A 
ENDROOT
BRANCH   4   7
ATOM      7  C   UNL A   1     -23.779  -1.604  28.751  0.00  0.00    -0.005 C 
ATOM      8  C   UNL A   1     -22.688  -1.348  29.343  0.00  0.00    -0.026 C 
ATOM      9  C   UNL A   1     -21.823  -0.209  28.988  0.00  0.00    +0.031 C 
ENDBRANCH   4   7
TORSDOF 1
ENDMDL
ENDMDL
