MODEL 419
MODEL 1
REMARK VINA RESULT:    -4.952      0.000      0.000
REMARK INTER + INTRA:          -5.277
REMARK INTER:                  -5.241
REMARK INTRA:                  -0.036
REMARK UNBOUND:                -0.036
REMARK  Name = No_419-gen_results/8p0m/2024-11-27-11-27-31/
REMARK  1 active torsions:
REMARK  status: ('A' for Active; 'I' for Inactive)
REMARK    1  A    between atoms: C_2  and  C_7
REMARK                            x       y       z     vdW  Elec       q    Type
REMARK                         _______ _______ _______ _____ _____    ______ ____
ROOT
ATOM      1  C   UNL A   1     -28.950 -10.402  32.714  0.00  0.00    +0.007 A 
ATOM      2  C   UNL A   1     -28.216 -11.148  32.595  0.00  0.00    +0.080 A 
ATOM      3  C   UNL A   1     -29.844 -10.174  31.515  0.00  0.00    +0.000 A 
ATOM      4  C   UNL A   1     -29.637 -10.790  30.498  0.00  0.00    +0.000 A 
ATOM      5  C   UNL A   1     -27.840 -12.059  31.511  0.00  0.00    +0.007 A 
ATOM      6  C   UNL A   1     -28.623 -11.817  30.392  0.00  0.00    +0.000 A 
ENDROOT
BRANCH   2   7
ATOM      7  C   UNL A   1     -27.216 -11.638  33.784  0.00  0.00    +0.388 C 
ATOM      8  O   UNL A   1     -26.842 -12.777  33.819  0.00  0.00    -0.241 OA
ATOM      9  O   UNL A   1     -27.030 -10.830  34.792  0.00  0.00    -0.241 OA
ENDBRANCH   2   7
TORSDOF 1
ENDMDL
ENDMDL
