MODEL 41
MODEL 1
REMARK VINA RESULT:    -6.101      0.000      0.000
REMARK INTER + INTRA:          -3.566
REMARK INTER:                  -6.814
REMARK INTRA:                   3.248
REMARK UNBOUND:                 3.248
REMARK  Name = No_41-gen_results/8p0m/2024-11-27-11-27-31/
REMARK  3 active torsions:
REMARK  status: ('A' for Active; 'I' for Inactive)
REMARK    1  A    between atoms: C_3  and  C_7
REMARK    2  A    between atoms: C_8  and  C_9
REMARK    3  A    between atoms: C_10  and  C_11
REMARK                            x       y       z     vdW  Elec       q    Type
REMARK                         _______ _______ _______ _____ _____    ______ ____
ROOT
ATOM      1  C   UNL A   1     -22.866  -0.827  29.871  0.00  0.00    +0.002 C 
ATOM      2  C   UNL A   1     -23.447  -1.730  28.941  0.00  0.00    +0.032 C 
ENDROOT
BRANCH   1   5
ATOM      3  C   UNL A   1     -24.795   0.026  31.291  0.00  0.00    +0.000 A 
ATOM      4  C   UNL A   1     -25.273   0.120  32.226  0.00  0.00    +0.000 A 
ATOM      5  C   UNL A   1     -23.573  -0.681  31.245  0.00  0.00    +0.000 A 
ATOM      6  C   UNL A   1     -23.136  -1.248  32.145  0.00  0.00    +0.000 A 
ATOM      7  C   UNL A   1     -24.910  -0.480  33.509  0.00  0.00    +0.000 A 
ATOM      8  C   UNL A   1     -23.763  -1.198  33.442  0.00  0.00    +0.000 A 
ENDBRANCH   1   5
BRANCH   2   9
ATOM      9  C   UNL A   1     -24.129  -2.856  29.469  0.00  0.00    +0.165 C 
ATOM     10  C   UNL A   1     -24.200  -4.080  28.634  0.00  0.00    +0.161 C 
ATOM     11  F   UNL A   1     -23.634  -3.469  29.365  0.00  0.00    -0.202 F 
ATOM     12  F   UNL A   1     -24.692  -3.251  28.187  0.00  0.00    -0.205 F 
BRANCH  10  13
ATOM     13  C   UNL A   1     -24.918  -5.212  29.209  0.00  0.00    +0.153 C 
ATOM     14 CL   UNL A   1     -24.630  -4.942  28.934  0.00  0.00    -0.106 Cl
ENDBRANCH  10  13
ENDBRANCH   2   9
TORSDOF 3
ENDMDL
ENDMDL
