REMARK  Name = No_420-gen_results/8p0m/2024-11-27-11-27-31/
REMARK  1 active torsions:
REMARK  status: ('A' for Active; 'I' for Inactive)
REMARK    1  A    between atoms: C_2  and  N_8
REMARK                            x       y       z     vdW  Elec       q    Type
REMARK                         _______ _______ _______ _____ _____    ______ ____
ROOT
ATOM      1  C   UNL A   1     -28.016  -0.814  28.878  0.00  0.00    +0.034 A 
ATOM      2  C   UNL A   1     -28.469  -0.785  29.829  0.00  0.00    +0.125 A 
ATOM      3  C   UNL A   1     -27.087   0.290  28.638  0.00  0.00    +0.059 A 
ATOM      4  C   UNL A   1     -26.832   1.249  29.587  0.00  0.00    +0.011 A 
ATOM      5  C   UNL A   1     -28.391   0.080  31.006  0.00  0.00    +0.023 A 
ATOM      6  C   UNL A   1     -27.494   1.152  30.784  0.00  0.00    +0.003 A 
ATOM      7 CL   UNL A   1     -26.209   0.394  27.165  0.00  0.00    -0.082 Cl
ENDROOT
BRANCH   2   8
ATOM      8  N   UNL A   1     -29.406  -1.921  30.198  0.00  0.00    -0.029 NA
ATOM      9  O   UNL A   1     -29.166  -3.074  30.168  0.00  0.00    -0.143 OA
ENDBRANCH   2   8
TORSDOF 1
