REMARK  Name = outputs/IAG933/test6/raw/output_4200_IAG933_linker_design_.xyz
REMARK  14 active torsions:
REMARK  status: ('A' for Active; 'I' for Inactive)
REMARK    1  A    between atoms: C_1  and  C_2
REMARK    2  A    between atoms: C_1  and  C_8
REMARK    3  A    between atoms: C_1  and  C_34
REMARK    4  A    between atoms: C_13  and  C_33
REMARK    5  A    between atoms: C_14  and  C_15
REMARK    6  A    between atoms: C_21  and  O_22
REMARK    7  A    between atoms: O_22  and  C_23
REMARK    8  A    between atoms: C_23  and  C_24
REMARK    9  A    between atoms: C_28  and  C_32
REMARK   10  A    between atoms: C_28  and  C_33
REMARK   11  A    between atoms: C_28  and  C_34
REMARK   12  A    between atoms: C_34  and  C_37
REMARK   13  A    between atoms: N_35  and  C_36
REMARK   14  A    between atoms: C_36  and  C_39
REMARK                            x       y       z     vdW  Elec       q    Type
REMARK                         _______ _______ _______ _____ _____    ______ ____
ROOT
ATOM      1  C   UNL A   1     -24.017   0.274  27.837  0.00  0.00    +0.067 C 
ENDROOT
BRANCH   1   3
ATOM      2  C   UNL A   1     -21.549   1.313  27.320  0.00  0.00    +0.072 C 
ATOM      3  C   UNL A   1     -22.511   0.547  28.265  0.00  0.00    +0.151 C 
ATOM      4  O   UNL A   1     -22.165   0.180  29.358  0.00  0.00    -0.296 OA
ENDBRANCH   1   3
BRANCH   1   5
ATOM      5  C   UNL A   1     -24.242   1.368  26.665  0.00  0.00    +0.016 C 
BRANCH   5   6
ATOM      6  C   UNL A   1     -25.688   1.614  26.461  0.00  0.00    +0.071 C 
ATOM      7  C   UNL A   1     -26.250   2.920  26.395  0.00  0.00    +0.055 C 
ATOM      8  C   UNL A   1     -27.438   3.091  25.645  0.00  0.00    +0.102 C 
ATOM      9  N   UNL A   1     -28.075   2.089  25.003  0.00  0.00    -0.212 NA
ATOM     10  C   UNL A   1     -27.543   0.849  25.079  0.00  0.00    +0.234 C 
ATOM     11  C   UNL A   1     -26.354   0.576  25.777  0.00  0.00    +0.240 C 
ATOM     12  F   UNL A   1     -25.860  -0.681  25.795  0.00  0.00    -0.227 F 
BRANCH   7  13
ATOM     13  C   UNL A   1     -25.642   4.093  27.123  0.00  0.00    +0.262 C 
ATOM     14  N   UNL A   1     -25.614   5.252  26.449  0.00  0.00    -0.200 NA
ATOM     15  C   UNL A   1     -25.026   6.479  26.963  0.00  0.00    +0.139 C 
ATOM     16  O   UNL A   1     -25.143   3.966  28.243  0.00  0.00    -0.269 OA
ENDBRANCH   7  13
BRANCH  10  17
ATOM     17  O   UNL A   1     -28.193  -0.208  24.477  0.00  0.00    -0.459 OA
BRANCH  17  18
ATOM     18  C   UNL A   1     -29.460   0.005  23.866  0.00  0.00    +0.242 C 
BRANCH  18  19
ATOM     19  C   UNL A   1     -30.065  -1.377  23.573  0.00  0.00    +0.229 C 
ATOM     20  O   UNL A   1     -30.729  -1.878  24.721  0.00  0.00    -0.216 OA
ENDBRANCH  18  19
ENDBRANCH  17  18
ENDBRANCH  10  17
ENDBRANCH   5   6
ENDBRANCH   1   5
BRANCH   1  21
ATOM     21  C   UNL A   1     -25.195   0.238  28.989  0.00  0.00    +0.090 C 
BRANCH  21  24
ATOM     22  O   UNL A   1     -27.451  -0.714  28.669  0.00  0.00    -0.273 OA
ATOM     23  N   UNL A   1     -27.546   1.194  29.590  0.00  0.00    -0.193 NA
ATOM     24  C   UNL A   1     -26.815   0.257  29.058  0.00  0.00    +0.242 C 
BRANCH  23  25
ATOM     25  C   UNL A   1     -27.955   2.534  29.234  0.00  0.00    +0.228 C 
BRANCH  25  28
ATOM     26  O   UNL A   1     -29.413   2.853  31.074  0.00  0.00    -0.244 OA
ATOM     27  O   UNL A   1     -27.962   4.367  30.605  0.00  0.00    -0.244 OA
ATOM     28  C   UNL A   1     -28.540   3.329  30.415  0.00  0.00    +0.387 C 
ENDBRANCH  25  28
ENDBRANCH  23  25
ENDBRANCH  21  24
BRANCH  21  29
ATOM     29  C   UNL A   1     -24.855  -1.012  30.143  0.00  0.00    +0.047 C 
BRANCH  29  30
ATOM     30  C   UNL A   1     -24.973  -2.505  29.788  0.00  0.00    -0.021 C 
ATOM     31  C   UNL A   1     -23.906  -3.173  29.146  0.00  0.00    -0.004 C 
ATOM     32  C   UNL A   1     -23.989  -4.549  28.853  0.00  0.00    -0.000 C 
ATOM     33  C   UNL A   1     -25.137  -5.280  29.205  0.00  0.00    -0.000 C 
ATOM     34  C   UNL A   1     -26.232  -4.611  29.784  0.00  0.00    -0.000 C 
ATOM     35  C   UNL A   1     -26.155  -3.232  30.065  0.00  0.00    -0.004 C 
ENDBRANCH  29  30
BRANCH  29  36
ATOM     36  C   UNL A   1     -25.387  -0.679  31.571  0.00  0.00    +0.077 C 
ATOM     37  C   UNL A   1     -25.189   0.773  32.028  0.00  0.00    +0.019 C 
ATOM     38  C   UNL A   1     -25.336   0.684  33.544  0.00  0.00    +0.020 C 
ATOM     39  C   UNL A   1     -24.829  -0.715  33.905  0.00  0.00    +0.089 C 
ATOM     40  N   UNL A   1     -24.758  -1.481  32.646  0.00  0.00    -0.219 NA
ENDBRANCH  29  36
ENDBRANCH  21  29
ENDBRANCH   1  21
TORSDOF 14
