MODEL 4200
MODEL 1
REMARK VINA RESULT:    -7.028      0.000      0.000
REMARK INTER + INTRA:         -10.382
REMARK INTER:                  -9.082
REMARK INTRA:                  -1.300
REMARK UNBOUND:                -1.300
REMARK  Name = No_4200-gen_results/8p0m/2024-11-27-11-27-31/
REMARK  5 active torsions:
REMARK  status: ('A' for Active; 'I' for Inactive)
REMARK    1  A    between atoms: C_3  and  C_7
REMARK    2  A    between atoms: C_7  and  C_8
REMARK    3  A    between atoms: C_7  and  C_17
REMARK    4  A    between atoms: C_8  and  C_9
REMARK    5  A    between atoms: C_9  and  C_10
REMARK                            x       y       z     vdW  Elec       q    Type
REMARK                         _______ _______ _______ _____ _____    ______ ____
ROOT
ATOM      1  C   UNL A   1     -25.471  -1.457  29.462  0.00  0.00    +0.087 C 
ENDROOT
BRANCH   1   4
ATOM      2  C   UNL A   1     -26.216  -3.860  29.798  0.00  0.00    -0.004 A 
ATOM      3  C   UNL A   1     -26.081  -4.882  29.581  0.00  0.00    -0.000 A 
ATOM      4  C   UNL A   1     -25.233  -2.963  29.261  0.00  0.00    -0.015 A 
ATOM      5  C   UNL A   1     -24.114  -3.381  28.662  0.00  0.00    -0.004 A 
ATOM      6  C   UNL A   1     -24.944  -5.557  28.971  0.00  0.00    -0.000 A 
ATOM      7  C   UNL A   1     -24.015  -4.743  28.489  0.00  0.00    -0.000 A 
ENDBRANCH   1   4
BRANCH   1   8
ATOM      8  C   UNL A   1     -26.250  -0.763  28.568  0.00  0.00    +0.211 C 
ATOM      9  O   UNL A   1     -25.881  -0.277  27.613  0.00  0.00    -0.288 OA
ENDBRANCH   1   8
BRANCH   1  10
ATOM     10  C   UNL A   1     -24.868  -0.861  30.668  0.00  0.00    +0.017 C 
BRANCH  10  11
ATOM     11  C   UNL A   1     -23.474  -0.704  30.736  0.00  0.00    +0.023 C 
ATOM     12  C   UNL A   1     -22.978  -0.845  32.120  0.00  0.00    +0.005 C 
BRANCH  11  13
ATOM     13  C   UNL A   1     -22.765  -0.023  29.986  0.00  0.00    -0.022 A 
ATOM     14  C   UNL A   1     -23.200   1.159  29.363  0.00  0.00    -0.004 A 
ATOM     15  C   UNL A   1     -22.589   1.655  28.270  0.00  0.00    -0.000 A 
ATOM     16  C   UNL A   1     -21.357   1.107  27.868  0.00  0.00    -0.000 A 
ATOM     17  C   UNL A   1     -20.885  -0.039  28.391  0.00  0.00    -0.000 A 
ATOM     18  C   UNL A   1     -21.628  -0.676  29.387  0.00  0.00    -0.004 A 
ENDBRANCH  11  13
ENDBRANCH  10  11
ENDBRANCH   1  10
TORSDOF 5
ENDMDL
ENDMDL
