MODEL 4201
MODEL 1
REMARK VINA RESULT:    -7.672      0.000      0.000
REMARK INTER + INTRA:          -8.819
REMARK INTER:                  -8.569
REMARK INTRA:                  -0.250
REMARK UNBOUND:                -0.250
REMARK  Name = No_4201-gen_results/8p0m/2024-11-27-11-27-31/
REMARK  2 active torsions:
REMARK  status: ('A' for Active; 'I' for Inactive)
REMARK    1  A    between atoms: C_2  and  C_3
REMARK    2  A    between atoms: C_9  and  C_15
REMARK                            x       y       z     vdW  Elec       q    Type
REMARK                         _______ _______ _______ _____ _____    ______ ____
ROOT
ATOM      1  C   UNL A   1     -23.524  -0.353  28.586  0.00  0.00    +0.054 A 
ATOM      2  C   UNL A   1     -23.352   0.922  28.232  0.00  0.00    +0.004 A 
ATOM      3  C   UNL A   1     -23.947   1.541  27.054  0.00  0.00    +0.000 A 
ATOM      4  C   UNL A   1     -25.097   0.857  26.592  0.00  0.00    +0.000 A 
ATOM      5  C   UNL A   1     -25.369  -0.441  27.006  0.00  0.00    +0.000 A 
ATOM      6  C   UNL A   1     -24.652  -1.024  28.002  0.00  0.00    +0.004 A 
ENDROOT
BRANCH   1   8
ATOM      7  O   UNL A   1     -21.802  -1.321  29.581  0.00  0.00    -0.270 OA
ATOM      8  C   UNL A   1     -22.833  -0.817  29.687  0.00  0.00    +0.249 C 
ATOM      9  N   UNL A   1     -23.446  -0.482  30.985  0.00  0.00    -0.276 N 
ATOM     10  C   UNL A   1     -22.728  -0.885  32.165  0.00  0.00    +0.094 C 
ATOM     11  C   UNL A   1     -24.653   0.181  31.114  0.00  0.00    +0.094 C 
ATOM     12  C   UNL A   1     -25.489  -0.135  31.871  0.00  0.00    +0.022 C 
ATOM     13  C   UNL A   1     -25.063  -0.380  33.232  0.00  0.00    +0.004 C 
ATOM     14  C   UNL A   1     -23.813  -1.235  33.248  0.00  0.00    +0.022 C 
ENDBRANCH   1   8
BRANCH   6  15
ATOM     15  C   UNL A   1     -24.904  -2.304  28.530  0.00  0.00    +0.000 A 
ATOM     16  C   UNL A   1     -24.073  -3.392  28.226  0.00  0.00    +0.000 A 
ATOM     17  C   UNL A   1     -26.006  -2.679  29.355  0.00  0.00    +0.000 A 
ATOM     18  C   UNL A   1     -26.242  -4.068  29.755  0.00  0.00    +0.000 A 
ATOM     19  C   UNL A   1     -24.235  -4.708  28.613  0.00  0.00    +0.000 A 
ATOM     20  C   UNL A   1     -25.340  -5.025  29.327  0.00  0.00    +0.000 A 
ENDBRANCH   6  15
TORSDOF 2
ENDMDL
ENDMDL
