MODEL 4202
MODEL 1
REMARK VINA RESULT:    -6.717      0.000      0.000
REMARK INTER + INTRA:         -15.010
REMARK INTER:                 -10.643
REMARK INTRA:                  -4.367
REMARK UNBOUND:                -4.367
REMARK  Name = No_4202-gen_results/8p0m/2024-11-27-11-27-31/
REMARK  10 active torsions:
REMARK  status: ('A' for Active; 'I' for Inactive)
REMARK    1  A    between atoms: C_2  and  O_16
REMARK    2  A    between atoms: C_3  and  C_8
REMARK    3  A    between atoms: C_10  and  O_14
REMARK    4  A    between atoms: O_16  and  C_17
REMARK    5  A    between atoms: C_17  and  C_18
REMARK    6  A    between atoms: C_18  and  C_19
REMARK    7  A    between atoms: C_23  and  O_25
REMARK    8  A    between atoms: O_25  and  C_26
REMARK    9  A    between atoms: C_29  and  C_32
REMARK   10  A    between atoms: C_32  and  N_34
REMARK                            x       y       z     vdW  Elec       q    Type
REMARK                         _______ _______ _______ _____ _____    ______ ____
ROOT
ATOM      1  C   UNL A   1     -23.540  -1.146  32.066  0.00  0.00    +0.074 C 
ENDROOT
BRANCH   1   2
ATOM      2  C   UNL A   1     -24.400  -0.294  32.440  0.00  0.00    -0.015 A 
ATOM      3  C   UNL A   1     -25.096  -0.476  33.601  0.00  0.00    -0.004 A 
ATOM      4  C   UNL A   1     -26.039   0.410  34.181  0.00  0.00    +0.003 A 
ATOM      5  C   UNL A   1     -26.268   1.537  33.474  0.00  0.00    +0.037 A 
ATOM      6  C   UNL A   1     -25.643   1.812  32.306  0.00  0.00    +0.145 A 
ATOM      7  C   UNL A   1     -24.736   0.949  31.806  0.00  0.00    +0.033 A 
BRANCH   6   8
ATOM      8  O   UNL A   1     -26.205   2.850  31.674  0.00  0.00    -0.454 OA
BRANCH   8   9
ATOM      9  C   UNL A   1     -26.553   2.695  30.408  0.00  0.00    +0.145 A 
ATOM     10  C   UNL A   1     -27.638   1.848  30.132  0.00  0.00    +0.037 A 
ATOM     11  C   UNL A   1     -28.014   1.748  28.794  0.00  0.00    +0.000 A 
ATOM     12  C   UNL A   1     -27.274   2.490  27.806  0.00  0.00    -0.006 A 
ATOM     13  C   UNL A   1     -26.362   3.405  28.138  0.00  0.00    +0.000 A 
ATOM     14  C   UNL A   1     -25.955   3.485  29.411  0.00  0.00    +0.037 A 
BRANCH  12  15
ATOM     15  C   UNL A   1     -27.791   2.343  26.384  0.00  0.00    +0.095 C 
ATOM     16  C   UNL A   1     -26.850   2.781  25.466  0.00  0.00    +0.024 C 
BRANCH  15  17
ATOM     17  N   UNL A   1     -28.065   0.989  26.032  0.00  0.00    -0.213 NA
ATOM     18  C   UNL A   1     -27.802   0.377  25.257  0.00  0.00    +0.108 C 
ENDBRANCH  15  17
ENDBRANCH  12  15
ENDBRANCH   8   9
ENDBRANCH   6   8
ENDBRANCH   1   2
BRANCH   1  19
ATOM     19  C   UNL A   1     -22.534  -0.797  31.254  0.00  0.00    +0.210 C 
BRANCH  19  20
ATOM     20  O   UNL A   1     -22.593  -1.235  29.971  0.00  0.00    -0.475 OA
BRANCH  20  22
ATOM     21  C   UNL A   1     -22.433   0.495  28.513  0.00  0.00    +0.067 A 
ATOM     22  C   UNL A   1     -23.055  -0.458  28.922  0.00  0.00    +0.141 A 
ATOM     23  C   UNL A   1     -24.229  -0.925  28.331  0.00  0.00    +0.034 A 
ATOM     24  C   UNL A   1     -24.782  -0.208  27.198  0.00  0.00    +0.005 A 
ATOM     25  C   UNL A   1     -24.007   0.898  26.782  0.00  0.00    +0.030 A 
ATOM     26  C   UNL A   1     -22.917   1.265  27.407  0.00  0.00    +0.143 A 
ATOM     27  F   UNL A   1     -22.274   2.329  26.947  0.00  0.00    -0.204 F 
BRANCH  23  28
ATOM     28  C   UNL A   1     -25.054  -2.092  28.788  0.00  0.00    +0.006 A 
ATOM     29  C   UNL A   1     -26.133  -1.889  29.556  0.00  0.00    +0.037 A 
ATOM     30  C   UNL A   1     -26.865  -3.017  30.059  0.00  0.00    +0.139 A 
ATOM     31  C   UNL A   1     -26.434  -4.312  29.875  0.00  0.00    +0.037 A 
ATOM     32  C   UNL A   1     -24.598  -3.425  28.648  0.00  0.00    +0.000 A 
ATOM     33  C   UNL A   1     -25.303  -4.536  29.172  0.00  0.00    +0.003 A 
BRANCH  30  34
ATOM     34  O   UNL A   1     -27.938  -2.905  30.869  0.00  0.00    -0.471 OA
ATOM     35  C   UNL A   1     -27.997  -1.752  31.517  0.00  0.00    +0.253 C 
ENDBRANCH  30  34
ENDBRANCH  23  28
ENDBRANCH  20  22
ENDBRANCH  19  20
ENDBRANCH   1  19
TORSDOF 10
ENDMDL
ENDMDL
