MODEL 4203
MODEL 1
REMARK VINA RESULT:    -6.214      0.000      0.000
REMARK INTER + INTRA:          -7.962
REMARK INTER:                  -7.304
REMARK INTRA:                  -0.658
REMARK UNBOUND:                -0.658
REMARK  Name = No_4203-gen_results/8p0m/2024-11-27-11-27-31/
REMARK  3 active torsions:
REMARK  status: ('A' for Active; 'I' for Inactive)
REMARK    1  A    between atoms: C_4  and  C_6
REMARK    2  A    between atoms: C_6  and  C_9
REMARK    3  A    between atoms: C_10  and  C_11
REMARK                            x       y       z     vdW  Elec       q    Type
REMARK                         _______ _______ _______ _____ _____    ______ ____
ROOT
ATOM      1  C   UNL A   1     -24.598  -0.820  28.511  0.00  0.00    +0.044 C 
ATOM      2  C   UNL A   1     -25.650  -0.835  28.883  0.00  0.00    +0.009 C 
ENDROOT
BRANCH   1   6
ATOM      3  C   UNL A   1     -22.227   1.874  27.133  0.00  0.00    -0.000 A 
ATOM      4  C   UNL A   1     -22.808   2.101  26.284  0.00  0.00    -0.000 A 
ATOM      5  C   UNL A   1     -22.818   0.843  28.068  0.00  0.00    -0.004 A 
ATOM      6  C   UNL A   1     -23.996   0.163  27.693  0.00  0.00    -0.018 A 
ATOM      7  C   UNL A   1     -24.021   1.531  25.656  0.00  0.00    -0.000 A 
ATOM      8  C   UNL A   1     -24.590   0.538  26.490  0.00  0.00    -0.004 A 
ENDBRANCH   1   6
BRANCH   1   9
ATOM      9  C   UNL A   1     -23.744  -1.979  28.913  0.00  0.00    -0.022 C 
ATOM     10  C   UNL A   1     -24.047  -3.044  29.605  0.00  0.00    -0.005 C 
BRANCH  10  11
ATOM     11  C   UNL A   1     -24.198  -4.357  28.858  0.00  0.00    -0.005 C 
ATOM     12  C   UNL A   1     -25.258  -5.178  29.089  0.00  0.00    -0.026 C 
ATOM     13  C   UNL A   1     -26.394  -4.644  29.725  0.00  0.00    +0.031 C 
ENDBRANCH  10  11
ENDBRANCH   1   9
TORSDOF 3
ENDMDL
ENDMDL
