REMARK  Name = No_4203-gen_results/8p0m/2024-11-27-11-27-31/
REMARK  3 active torsions:
REMARK  status: ('A' for Active; 'I' for Inactive)
REMARK    1  A    between atoms: C_4  and  C_6
REMARK    2  A    between atoms: C_6  and  C_9
REMARK    3  A    between atoms: C_10  and  C_11
REMARK                            x       y       z     vdW  Elec       q    Type
REMARK                         _______ _______ _______ _____ _____    ______ ____
ROOT
ATOM      1  C   UNL A   1     -24.398  -0.836  30.177  0.00  0.00    +0.044 C 
ATOM      2  C   UNL A   1     -23.771  -0.918  31.096  0.00  0.00    +0.009 C 
ENDROOT
BRANCH   1   6
ATOM      3  C   UNL A   1     -28.016  -0.814  28.878  0.00  0.00    -0.000 A 
ATOM      4  C   UNL A   1     -28.469  -0.785  29.829  0.00  0.00    -0.000 A 
ATOM      5  C   UNL A   1     -26.504  -0.778  28.877  0.00  0.00    -0.004 A 
ATOM      6  C   UNL A   1     -25.810  -0.853  30.103  0.00  0.00    -0.018 A 
ATOM      7  C   UNL A   1     -27.991  -0.892  31.226  0.00  0.00    -0.000 A 
ATOM      8  C   UNL A   1     -26.575  -0.890  31.266  0.00  0.00    -0.004 A 
ENDBRANCH   1   6
BRANCH   1   9
ATOM      9  C   UNL A   1     -23.656  -0.714  28.886  0.00  0.00    -0.022 C 
ATOM     10  C   UNL A   1     -23.936  -0.014  27.820  0.00  0.00    -0.005 C 
BRANCH  10  11
ATOM     11  C   UNL A   1     -23.121   1.241  27.560  0.00  0.00    -0.005 C 
ATOM     12  C   UNL A   1     -21.997   1.509  28.278  0.00  0.00    -0.026 C 
ATOM     13  C   UNL A   1     -21.384   0.457  28.983  0.00  0.00    +0.031 C 
ENDBRANCH  10  11
ENDBRANCH   1   9
TORSDOF 3
