REMARK  Name = outputs/IAG933/test6/raw/output_4204_IAG933_linker_design_.xyz
REMARK  10 active torsions:
REMARK  status: ('A' for Active; 'I' for Inactive)
REMARK    1  A    between atoms: C_1  and  C_2
REMARK    2  A    between atoms: C_1  and  C_8
REMARK    3  A    between atoms: C_1  and  N_34
REMARK    4  A    between atoms: C_13  and  N_30
REMARK    5  A    between atoms: C_14  and  C_15
REMARK    6  A    between atoms: C_21  and  O_22
REMARK    7  A    between atoms: O_22  and  C_23
REMARK    8  A    between atoms: C_23  and  C_24
REMARK    9  A    between atoms: C_32  and  C_37
REMARK   10  A    between atoms: O_33  and  C_41
REMARK                            x       y       z     vdW  Elec       q    Type
REMARK                         _______ _______ _______ _____ _____    ______ ____
ROOT
ATOM      1  O   UNL A   1     -22.088  -0.954  29.028  0.00  0.00    -0.233 OA
ATOM      2  N   UNL A   1     -24.531   1.353  27.220  0.00  0.00    -0.268 N 
ATOM      3  C   UNL A   1     -22.022   1.121  27.680  0.00  0.00    +0.213 C 
ATOM      4  C   UNL A   1     -24.725   0.899  28.596  0.00  0.00    +0.173 C 
ATOM      5  N   UNL A   1     -24.126  -0.078  29.468  0.00  0.00    -0.216 NA
ATOM      6  C   UNL A   1     -22.540   1.260  28.902  0.00  0.00    +0.105 C 
ATOM      7  C   UNL A   1     -22.754  -0.178  29.555  0.00  0.00    +0.253 C 
ATOM      8  N   UNL A   1     -22.217  -0.947  30.228  0.00  0.00    -0.038 NA
ATOM      9  F   UNL A   1     -20.962   2.036  27.629  0.00  0.00    -0.233 F 
ATOM     10  C   UNL A   1     -23.123   1.803  26.814  0.00  0.00    +0.227 C 
ENDROOT
BRANCH   2  11
ATOM     11  C   UNL A   1     -25.688   1.614  26.461  0.00  0.00    +0.089 C 
ATOM     12  C   UNL A   1     -26.250   2.920  26.395  0.00  0.00    +0.090 C 
ATOM     13  C   UNL A   1     -27.438   3.091  25.645  0.00  0.00    +0.108 C 
ATOM     14  N   UNL A   1     -28.075   2.089  25.003  0.00  0.00    -0.208 NA
ATOM     15  C   UNL A   1     -27.543   0.849  25.079  0.00  0.00    +0.255 C 
ATOM     16  C   UNL A   1     -26.354   0.576  25.777  0.00  0.00    +0.206 C 
ATOM     17  F   UNL A   1     -25.860  -0.681  25.795  0.00  0.00    -0.198 F 
BRANCH  12  18
ATOM     18  C   UNL A   1     -25.642   4.093  27.123  0.00  0.00    +0.268 C 
ATOM     19  N   UNL A   1     -25.614   5.252  26.449  0.00  0.00    -0.200 NA
ATOM     20  C   UNL A   1     -25.026   6.479  26.963  0.00  0.00    +0.139 C 
ATOM     21  O   UNL A   1     -25.143   3.966  28.243  0.00  0.00    -0.268 OA
ENDBRANCH  12  18
BRANCH  15  22
ATOM     22  O   UNL A   1     -28.193  -0.208  24.477  0.00  0.00    -0.456 OA
BRANCH  22  23
ATOM     23  C   UNL A   1     -29.460   0.005  23.866  0.00  0.00    +0.243 C 
BRANCH  23  24
ATOM     24  C   UNL A   1     -30.065  -1.377  23.573  0.00  0.00    +0.229 C 
ATOM     25  O   UNL A   1     -30.729  -1.878  24.721  0.00  0.00    -0.216 OA
ENDBRANCH  23  24
ENDBRANCH  22  23
ENDBRANCH  15  22
ENDBRANCH   2  11
BRANCH   4  27
ATOM     26  O   UNL A   1     -26.873   0.827  29.498  0.00  0.00    -0.217 OA
ATOM     27  C   UNL A   1     -26.108   0.349  28.526  0.00  0.00    +0.219 C 
ENDBRANCH   4  27
BRANCH  10  28
ATOM     28  O   UNL A   1     -22.412   2.207  25.650  0.00  0.00    -0.333 OA
ATOM     29  C   UNL A   1     -23.116   1.419  24.582  0.00  0.00    +0.176 C 
ENDBRANCH  10  28
BRANCH   5  30
ATOM     30  C   UNL A   1     -24.855  -1.012  30.143  0.00  0.00    +0.101 C 
BRANCH  30  31
ATOM     31  C   UNL A   1     -24.973  -2.505  29.788  0.00  0.00    -0.006 C 
ATOM     32  C   UNL A   1     -23.906  -3.173  29.146  0.00  0.00    -0.003 C 
ATOM     33  C   UNL A   1     -23.989  -4.549  28.853  0.00  0.00    -0.000 C 
ATOM     34  C   UNL A   1     -25.137  -5.280  29.205  0.00  0.00    -0.000 C 
ATOM     35  C   UNL A   1     -26.232  -4.611  29.784  0.00  0.00    -0.000 C 
ATOM     36  C   UNL A   1     -26.155  -3.232  30.065  0.00  0.00    -0.003 C 
ENDBRANCH  30  31
BRANCH  30  37
ATOM     37  C   UNL A   1     -25.387  -0.679  31.571  0.00  0.00    +0.092 C 
ATOM     38  C   UNL A   1     -25.189   0.773  32.028  0.00  0.00    +0.021 C 
ATOM     39  C   UNL A   1     -25.336   0.684  33.544  0.00  0.00    +0.020 C 
ATOM     40  C   UNL A   1     -24.829  -0.715  33.905  0.00  0.00    +0.089 C 
ATOM     41  N   UNL A   1     -24.758  -1.481  32.646  0.00  0.00    -0.218 NA
ENDBRANCH  30  37
ENDBRANCH   5  30
TORSDOF 10
