REMARK  Name = outputs/IAG933/test6/raw/output_4205_IAG933_linker_design_.xyz
REMARK  15 active torsions:
REMARK  status: ('A' for Active; 'I' for Inactive)
REMARK    1  A    between atoms: C_1  and  C_2
REMARK    2  A    between atoms: C_1  and  C_8
REMARK    3  A    between atoms: C_1  and  O_34
REMARK    4  A    between atoms: C_14  and  C_15
REMARK    5  A    between atoms: C_15  and  O_18
REMARK    6  A    between atoms: O_18  and  C_39
REMARK    7  A    between atoms: C_21  and  O_22
REMARK    8  A    between atoms: O_22  and  C_23
REMARK    9  A    between atoms: C_23  and  C_24
REMARK   10  A    between atoms: C_29  and  C_31
REMARK   11  A    between atoms: C_29  and  O_34
REMARK   12  A    between atoms: C_31  and  C_37
REMARK   13  A    between atoms: C_31  and  C_40
REMARK   14  A    between atoms: C_33  and  N_36
REMARK   15  A    between atoms: C_37  and  C_39
REMARK                            x       y       z     vdW  Elec       q    Type
REMARK                         _______ _______ _______ _____ _____    ______ ____
ROOT
ATOM      1  C   UNL A   1     -25.757   3.962  30.326  0.00  0.00    +0.097 C 
ATOM      2  C   UNL A   1     -25.051   3.459  29.334  0.00  0.00    +0.140 C 
ENDROOT
BRANCH   1   5
ATOM      3  C   UNL A   1     -26.302   5.984  31.433  0.00  0.00    +0.241 C 
ATOM      4  O   UNL A   1     -27.302   5.384  32.274  0.00  0.00    -0.333 OA
ATOM      5  N   UNL A   1     -26.584   4.922  30.480  0.00  0.00    -0.277 N 
ATOM      6  C   UNL A   1     -28.504   5.387  31.626  0.00  0.00    +0.166 C 
ATOM      7  C   UNL A   1     -27.870   4.914  30.250  0.00  0.00    +0.125 C 
ENDBRANCH   1   5
BRANCH   2   8
ATOM      8  O   UNL A   1     -25.143   3.966  28.243  0.00  0.00    -0.439 OA
BRANCH   8   9
ATOM      9  C   UNL A   1     -25.642   4.093  27.123  0.00  0.00    +0.227 C 
ATOM     10  N   UNL A   1     -25.614   5.252  26.449  0.00  0.00    -0.235 NA
ATOM     11  C   UNL A   1     -25.026   6.479  26.963  0.00  0.00    +0.155 C 
BRANCH   9  13
ATOM     12  C   UNL A   1     -25.688   1.614  26.461  0.00  0.00    +0.041 C 
ATOM     13  C   UNL A   1     -26.250   2.920  26.395  0.00  0.00    +0.075 C 
ATOM     14  C   UNL A   1     -27.438   3.091  25.645  0.00  0.00    +0.107 C 
ATOM     15  N   UNL A   1     -28.075   2.089  25.003  0.00  0.00    -0.208 NA
ATOM     16  C   UNL A   1     -27.543   0.849  25.079  0.00  0.00    +0.253 C 
ATOM     17  C   UNL A   1     -26.354   0.576  25.777  0.00  0.00    +0.193 C 
ATOM     18  F   UNL A   1     -25.860  -0.681  25.795  0.00  0.00    -0.199 F 
BRANCH  16  19
ATOM     19  O   UNL A   1     -28.193  -0.208  24.477  0.00  0.00    -0.456 OA
BRANCH  19  20
ATOM     20  C   UNL A   1     -29.460   0.005  23.866  0.00  0.00    +0.243 C 
BRANCH  20  21
ATOM     21  C   UNL A   1     -30.065  -1.377  23.573  0.00  0.00    +0.229 C 
ATOM     22  O   UNL A   1     -30.729  -1.878  24.721  0.00  0.00    -0.216 OA
ENDBRANCH  20  21
ENDBRANCH  19  20
ENDBRANCH  16  19
ENDBRANCH   9  13
ENDBRANCH   8   9
ENDBRANCH   2   8
BRANCH   2  23
ATOM     23  C   UNL A   1     -24.158   2.303  29.735  0.00  0.00    +0.085 C 
BRANCH  23  24
ATOM     24  C   UNL A   1     -23.543   1.664  28.466  0.00  0.00    +0.164 C 
BRANCH  24  27
ATOM     25  C   UNL A   1     -21.049   1.449  27.570  0.00  0.00    +0.073 C 
ATOM     26  O   UNL A   1     -22.821   2.326  26.186  0.00  0.00    -0.295 OA
ATOM     27  C   UNL A   1     -22.483   1.893  27.331  0.00  0.00    +0.162 C 
ENDBRANCH  24  27
BRANCH  24  28
ATOM     28  C   UNL A   1     -23.523   0.285  29.135  0.00  0.00    +0.324 C 
ATOM     29  O   UNL A   1     -22.424  -0.243  29.792  0.00  0.00    -0.250 OA
BRANCH  28  30
ATOM     30  O   UNL A   1     -24.896  -0.105  29.109  0.00  0.00    -0.446 OA
BRANCH  30  31
ATOM     31  C   UNL A   1     -24.855  -1.012  30.143  0.00  0.00    +0.207 C 
BRANCH  31  32
ATOM     32  C   UNL A   1     -24.973  -2.505  29.788  0.00  0.00    +0.019 C 
ATOM     33  C   UNL A   1     -23.906  -3.173  29.146  0.00  0.00    -0.001 C 
ATOM     34  C   UNL A   1     -23.989  -4.549  28.853  0.00  0.00    -0.000 C 
ATOM     35  C   UNL A   1     -25.137  -5.280  29.205  0.00  0.00    -0.000 C 
ATOM     36  C   UNL A   1     -26.232  -4.611  29.784  0.00  0.00    -0.000 C 
ATOM     37  C   UNL A   1     -26.155  -3.232  30.065  0.00  0.00    -0.001 C 
ENDBRANCH  31  32
BRANCH  31  38
ATOM     38  C   UNL A   1     -25.387  -0.679  31.571  0.00  0.00    +0.117 C 
ATOM     39  C   UNL A   1     -25.189   0.773  32.028  0.00  0.00    +0.023 C 
ATOM     40  C   UNL A   1     -25.336   0.684  33.544  0.00  0.00    +0.020 C 
ATOM     41  C   UNL A   1     -24.829  -0.715  33.905  0.00  0.00    +0.089 C 
ATOM     42  N   UNL A   1     -24.758  -1.481  32.646  0.00  0.00    -0.215 NA
ENDBRANCH  31  38
ENDBRANCH  30  31
ENDBRANCH  28  30
ENDBRANCH  24  28
ENDBRANCH  23  24
ENDBRANCH   2  23
TORSDOF 15
