MODEL 4205
MODEL 1
REMARK VINA RESULT:    -7.162      0.000      0.000
REMARK INTER + INTRA:         -10.354
REMARK INTER:                  -9.255
REMARK INTRA:                  -1.099
REMARK UNBOUND:                -1.099
REMARK  Name = No_4205-gen_results/8p0m/2024-11-27-11-27-31/
REMARK  5 active torsions:
REMARK  status: ('A' for Active; 'I' for Inactive)
REMARK    1  A    between atoms: C_2  and  C_16
REMARK    2  A    between atoms: C_4  and  C_6
REMARK    3  A    between atoms: C_6  and  C_8
REMARK    4  A    between atoms: C_8  and  C_9
REMARK    5  A    between atoms: C_8  and  C_15
REMARK                            x       y       z     vdW  Elec       q    Type
REMARK                         _______ _______ _______ _____ _____    ______ ____
ROOT
ATOM      1  C   UNL A   1     -22.777  -0.292  30.514  0.00  0.00    +0.040 C 
ENDROOT
BRANCH   1   5
ATOM      2  C   UNL A   1     -22.108   1.360  27.130  0.00  0.00    +0.048 A 
ATOM      3  C   UNL A   1     -23.017   1.889  27.064  0.00  0.00    +0.083 A 
ATOM      4  C   UNL A   1     -21.888   0.577  28.356  0.00  0.00    +0.192 A 
ATOM      5  C   UNL A   1     -22.925   0.441  29.324  0.00  0.00    +0.017 A 
ATOM      6  C   UNL A   1     -24.259   1.873  27.884  0.00  0.00    +0.006 A 
ATOM      7  C   UNL A   1     -24.106   1.125  29.041  0.00  0.00    -0.001 A 
ATOM      8  O   UNL A   1     -20.746  -0.051  28.571  0.00  0.00    -0.287 OA
BRANCH   3   9
ATOM      9  C   UNL A   1     -23.257   2.795  25.735  0.00  0.00    +0.388 C 
ATOM     10  O   UNL A   1     -22.498   2.581  24.749  0.00  0.00    -0.241 OA
ATOM     11  O   UNL A   1     -24.193   3.573  25.745  0.00  0.00    -0.241 OA
ENDBRANCH   3   9
ENDBRANCH   1   5
BRANCH   1  12
ATOM     12  C   UNL A   1     -23.913  -1.037  30.910  0.00  0.00    +0.094 C 
BRANCH  12  13
ATOM     13  C   UNL A   1     -24.466  -2.037  30.184  0.00  0.00    -0.015 A 
ATOM     14  C   UNL A   1     -25.722  -2.353  30.555  0.00  0.00    -0.004 A 
ATOM     15  C   UNL A   1     -23.660  -2.989  29.577  0.00  0.00    +0.026 A 
ATOM     16  C   UNL A   1     -24.314  -4.050  28.839  0.00  0.00    +0.140 A 
ATOM     17  C   UNL A   1     -26.434  -3.427  29.908  0.00  0.00    +0.002 A 
ATOM     18  C   UNL A   1     -25.634  -4.342  29.180  0.00  0.00    +0.030 A 
ATOM     19  F   UNL A   1     -23.656  -4.976  28.197  0.00  0.00    -0.204 F 
ENDBRANCH  12  13
BRANCH  12  20
ATOM     20  C   UNL A   1     -24.393  -0.686  32.275  0.00  0.00    +0.323 C 
ATOM     21  F   UNL A   1     -23.853  -1.494  33.188  0.00  0.00    -0.198 F 
ATOM     22  F   UNL A   1     -25.133   0.172  32.560  0.00  0.00    -0.198 F 
ENDBRANCH  12  20
ENDBRANCH   1  12
TORSDOF 5
ENDMDL
ENDMDL
