MODEL 4206
MODEL 1
REMARK VINA RESULT:    -6.952      0.000      0.000
REMARK INTER + INTRA:          -8.261
REMARK INTER:                  -7.765
REMARK INTRA:                  -0.496
REMARK UNBOUND:                -0.496
REMARK  Name = No_4206-gen_results/8p0m/2024-11-27-11-27-31/
REMARK  2 active torsions:
REMARK  status: ('A' for Active; 'I' for Inactive)
REMARK    1  A    between atoms: C_3  and  C_4
REMARK    2  A    between atoms: C_6  and  C_12
REMARK                            x       y       z     vdW  Elec       q    Type
REMARK                         _______ _______ _______ _____ _____    ______ ____
ROOT
ATOM      1  C   UNL A   1     -23.640   1.480  29.908  0.00  0.00    +0.015 A 
ATOM      2  C   UNL A   1     -24.127   0.863  30.609  0.00  0.00    +0.058 A 
ATOM      3  C   UNL A   1     -23.208   0.770  28.704  0.00  0.00    +0.072 A 
ATOM      4  C   UNL A   1     -24.480  -0.549  30.670  0.00  0.00    +0.013 A 
ATOM      5  C   UNL A   1     -24.077  -1.256  29.556  0.00  0.00    +0.018 A 
ATOM      6  C   UNL A   1     -23.485  -0.612  28.534  0.00  0.00    +0.005 A 
ATOM      7 CL   UNL A   1     -24.751   1.834  32.033  0.00  0.00    -0.082 Cl
ENDROOT
BRANCH   5   8
ATOM      8  C   UNL A   1     -24.333  -2.738  29.479  0.00  0.00    +0.081 A 
ATOM      9  N   UNL A   1     -23.681  -3.465  28.908  0.00  0.00    -0.244 NA
ATOM     10  C   UNL A   1     -23.957  -4.651  28.444  0.00  0.00    +0.099 A 
ATOM     11  C   UNL A   1     -25.107  -5.282  28.909  0.00  0.00    +0.021 A 
ATOM     12  C   UNL A   1     -25.703  -3.148  29.909  0.00  0.00    +0.019 A 
ATOM     13  C   UNL A   1     -26.040  -4.506  29.624  0.00  0.00    +0.003 A 
ENDBRANCH   5   8
BRANCH   3  14
ATOM     14  C   UNL A   1     -22.596   1.436  27.533  0.00  0.00    +0.419 C 
ATOM     15  F   UNL A   1     -22.760   2.570  27.722  0.00  0.00    -0.166 F 
ATOM     16  F   UNL A   1     -21.314   1.075  27.420  0.00  0.00    -0.166 F 
ATOM     17  F   UNL A   1     -23.278   1.065  26.392  0.00  0.00    -0.166 F 
ENDBRANCH   3  14
TORSDOF 2
ENDMDL
ENDMDL
