MODEL 4207
MODEL 1
REMARK VINA RESULT:    -4.853      0.000      0.000
REMARK INTER + INTRA:          -5.238
REMARK INTER:                  -5.136
REMARK INTRA:                  -0.101
REMARK UNBOUND:                -0.101
REMARK  Name = No_4207-gen_results/8p0m/2024-11-27-11-27-31/
REMARK  1 active torsions:
REMARK  status: ('A' for Active; 'I' for Inactive)
REMARK    1  A    between atoms: C_4  and  C_5
REMARK                            x       y       z     vdW  Elec       q    Type
REMARK                         _______ _______ _______ _____ _____    ______ ____
ROOT
ATOM      1  C   UNL A   1     -24.581  -5.257  28.862  0.00  0.00    -0.000 A 
ATOM      2  C   UNL A   1     -25.540  -5.234  29.298  0.00  0.00    -0.000 A 
ATOM      3  C   UNL A   1     -23.922  -4.025  28.656  0.00  0.00    -0.004 A 
ATOM      4  C   UNL A   1     -24.504  -2.819  28.994  0.00  0.00    -0.022 A 
ATOM      5  C   UNL A   1     -26.382  -4.148  29.782  0.00  0.00    -0.000 A 
ATOM      6  C   UNL A   1     -25.797  -2.874  29.609  0.00  0.00    -0.004 A 
ENDROOT
BRANCH   4   7
ATOM      7  C   UNL A   1     -23.858  -1.530  28.800  0.00  0.00    +0.026 C 
ATOM      8  C   UNL A   1     -22.949  -1.258  29.131  0.00  0.00    +0.005 C 
ENDBRANCH   4   7
TORSDOF 1
ENDMDL
ENDMDL
