REMARK  Name = outputs/IAG933/test6/raw/output_4207_IAG933_linker_design_.xyz
REMARK  14 active torsions:
REMARK  status: ('A' for Active; 'I' for Inactive)
REMARK    1  A    between atoms: C_1  and  C_2
REMARK    2  A    between atoms: C_1  and  C_8
REMARK    3  A    between atoms: C_9  and  S_44
REMARK    4  A    between atoms: C_13  and  N_41
REMARK    5  A    between atoms: C_14  and  C_15
REMARK    6  A    between atoms: C_21  and  O_22
REMARK    7  A    between atoms: O_22  and  C_23
REMARK    8  A    between atoms: C_23  and  C_24
REMARK    9  A    between atoms: C_28  and  C_38
REMARK   10  A    between atoms: N_29  and  S_44
REMARK   11  A    between atoms: C_30  and  C_32
REMARK   12  A    between atoms: C_30  and  N_41
REMARK   13  A    between atoms: C_32  and  C_40
REMARK   14  A    between atoms: C_38  and  S_44
REMARK                            x       y       z     vdW  Elec       q    Type
REMARK                         _______ _______ _______ _____ _____    ______ ____
ROOT
ATOM      1  N   UNL A   1     -25.461   2.228  29.854  0.00  0.00    -0.189 NA
ATOM      2  C   UNL A   1     -25.306   1.373  28.792  0.00  0.00    +0.176 C 
ATOM      3  N   UNL A   1     -24.660   1.314  27.347  0.00  0.00    -0.268 N 
ENDROOT
BRANCH   3   4
ATOM      4  C   UNL A   1     -25.688   1.614  26.461  0.00  0.00    +0.091 C 
ATOM      5  C   UNL A   1     -26.250   2.920  26.395  0.00  0.00    +0.090 C 
ATOM      6  C   UNL A   1     -27.438   3.091  25.645  0.00  0.00    +0.108 C 
ATOM      7  N   UNL A   1     -28.075   2.089  25.003  0.00  0.00    -0.208 NA
ATOM      8  C   UNL A   1     -27.543   0.849  25.079  0.00  0.00    +0.255 C 
ATOM      9  C   UNL A   1     -26.354   0.576  25.777  0.00  0.00    +0.207 C 
ATOM     10  F   UNL A   1     -25.860  -0.681  25.795  0.00  0.00    -0.198 F 
BRANCH   5  11
ATOM     11  C   UNL A   1     -25.642   4.093  27.123  0.00  0.00    +0.268 C 
ATOM     12  N   UNL A   1     -25.614   5.252  26.449  0.00  0.00    -0.200 NA
ATOM     13  C   UNL A   1     -25.026   6.479  26.963  0.00  0.00    +0.139 C 
ATOM     14  O   UNL A   1     -25.143   3.966  28.243  0.00  0.00    -0.268 OA
ENDBRANCH   5  11
BRANCH   8  15
ATOM     15  O   UNL A   1     -28.193  -0.208  24.477  0.00  0.00    -0.456 OA
BRANCH  15  16
ATOM     16  C   UNL A   1     -29.460   0.005  23.866  0.00  0.00    +0.243 C 
BRANCH  16  17
ATOM     17  C   UNL A   1     -30.065  -1.377  23.573  0.00  0.00    +0.229 C 
ATOM     18  O   UNL A   1     -30.729  -1.878  24.721  0.00  0.00    -0.216 OA
ENDBRANCH  16  17
ENDBRANCH  15  16
ENDBRANCH   8  15
ENDBRANCH   3   4
BRANCH   1  20
ATOM     19  O   UNL A   1     -27.298   2.460  31.540  0.00  0.00    -0.150 OA
ATOM     20  S   UNL A   1     -25.775   2.269  31.279  0.00  0.00    +0.018 S 
BRANCH  20  22
ATOM     21  C   UNL A   1     -25.387  -0.679  31.571  0.00  0.00    +0.089 C 
ATOM     22  C   UNL A   1     -25.189   0.773  32.028  0.00  0.00    +0.095 C 
ATOM     23  C   UNL A   1     -25.336   0.684  33.544  0.00  0.00    +0.034 C 
ATOM     24  C   UNL A   1     -24.829  -0.715  33.905  0.00  0.00    +0.090 C 
ATOM     25  N   UNL A   1     -24.758  -1.481  32.646  0.00  0.00    -0.218 NA
BRANCH  21  26
ATOM     26  C   UNL A   1     -24.855  -1.012  30.143  0.00  0.00    +0.045 C 
BRANCH  26  27
ATOM     27  C   UNL A   1     -24.973  -2.505  29.788  0.00  0.00    -0.021 C 
ATOM     28  C   UNL A   1     -23.906  -3.173  29.146  0.00  0.00    -0.004 C 
ATOM     29  C   UNL A   1     -23.989  -4.549  28.853  0.00  0.00    -0.000 C 
ATOM     30  C   UNL A   1     -25.137  -5.280  29.205  0.00  0.00    -0.000 C 
ATOM     31  C   UNL A   1     -26.232  -4.611  29.784  0.00  0.00    -0.000 C 
ATOM     32  C   UNL A   1     -26.155  -3.232  30.065  0.00  0.00    -0.004 C 
ENDBRANCH  26  27
ENDBRANCH  21  26
ENDBRANCH  20  22
BRANCH  20  33
ATOM     33  C   UNL A   1     -24.727   3.362  31.946  0.00  0.00    +0.090 C 
BRANCH  33  34
ATOM     34  C   UNL A   1     -25.505   4.658  32.366  0.00  0.00    +0.031 C 
ATOM     35  C   UNL A   1     -26.699   5.688  32.041  0.00  0.00    +0.020 C 
ATOM     36  C   UNL A   1     -26.440   6.822  33.015  0.00  0.00    +0.072 C 
ATOM     37  N   UNL A   1     -24.924   6.697  33.378  0.00  0.00    -0.272 NA
ATOM     38  C   UNL A   1     -24.817   6.278  34.766  0.00  0.00    +0.090 C 
ATOM     39  C   UNL A   1     -24.305   5.571  32.691  0.00  0.00    +0.073 C 
ENDBRANCH  33  34
ENDBRANCH  20  33
ENDBRANCH   1  20
BRANCH   3  40
ATOM     40  C   UNL A   1     -23.370   1.156  26.516  0.00  0.00    +0.100 C 
BRANCH  40  42
ATOM     41  C   UNL A   1     -21.000   1.966  26.867  0.00  0.00    +0.004 C 
ATOM     42  C   UNL A   1     -22.358   1.806  27.395  0.00  0.00    +0.053 C 
BRANCH  42  43
ATOM     43  C   UNL A   1     -22.394   1.016  28.767  0.00  0.00    +0.184 C 
ATOM     44  O   UNL A   1     -22.970   1.734  29.726  0.00  0.00    -0.220 OA
ENDBRANCH  42  43
ENDBRANCH  40  42
ENDBRANCH   3  40
TORSDOF 14
