REMARK  Name = outputs/IAG933/test6/raw/output_4208_IAG933_linker_design_.xyz
REMARK  9 active torsions:
REMARK  status: ('A' for Active; 'I' for Inactive)
REMARK    1  A    between atoms: C_1  and  C_2
REMARK    2  A    between atoms: C_1  and  C_8
REMARK    3  A    between atoms: C_1  and  N_44
REMARK    4  A    between atoms: C_13  and  C_29
REMARK    5  A    between atoms: C_14  and  C_15
REMARK    6  A    between atoms: C_21  and  O_22
REMARK    7  A    between atoms: O_22  and  C_23
REMARK    8  A    between atoms: C_23  and  C_24
REMARK    9  A    between atoms: C_38  and  N_44
REMARK                            x       y       z     vdW  Elec       q    Type
REMARK                         _______ _______ _______ _____ _____    ______ ____
ROOT
ATOM      1  N   UNL A   1     -28.068   1.085  28.686  0.00  0.00    -0.255 N 
ATOM      2  C   UNL A   1     -28.070   1.962  29.842  0.00  0.00    +0.096 C 
ATOM      3  C   UNL A   1     -30.421   0.729  27.574  0.00  0.00    +0.262 C 
ATOM      4  C   UNL A   1     -29.171   0.216  28.247  0.00  0.00    +0.182 C 
ATOM      5  C   UNL A   1     -29.975   3.457  29.211  0.00  0.00    +0.025 C 
ATOM      6  O   UNL A   1     -27.057  -0.848  28.856  0.00  0.00    -0.252 OA
ATOM      7  C   UNL A   1     -28.540   3.405  29.724  0.00  0.00    +0.023 C 
ATOM      8  N   UNL A   1     -30.857   2.017  27.593  0.00  0.00    -0.204 NA
ATOM      9  C   UNL A   1     -26.803   0.111  28.887  0.00  0.00    +0.312 C 
ATOM     10  C   UNL A   1     -29.962   3.070  27.718  0.00  0.00    +0.115 C 
ATOM     11  O   UNL A   1     -31.021  -0.080  26.867  0.00  0.00    -0.272 OA
ATOM     12  N   UNL A   1     -25.062   0.006  29.119  0.00  0.00    -0.239 N 
ENDROOT
BRANCH  12  17
ATOM     13  C   UNL A   1     -24.392   1.274  27.134  0.00  0.00    +0.046 C 
ATOM     14  S   UNL A   1     -22.953   1.755  26.075  0.00  0.00    -0.085 S 
ATOM     15  C   UNL A   1     -22.495   0.698  28.558  0.00  0.00    +0.022 C 
ATOM     16  C   UNL A   1     -21.846   1.396  27.398  0.00  0.00    +0.037 C 
ATOM     17  C   UNL A   1     -24.048   0.655  28.355  0.00  0.00    +0.062 C 
BRANCH  13  18
ATOM     18  C   UNL A   1     -25.688   1.614  26.461  0.00  0.00    +0.045 C 
ATOM     19  C   UNL A   1     -26.250   2.920  26.395  0.00  0.00    +0.077 C 
ATOM     20  C   UNL A   1     -27.438   3.091  25.645  0.00  0.00    +0.107 C 
ATOM     21  N   UNL A   1     -28.075   2.089  25.003  0.00  0.00    -0.208 NA
ATOM     22  C   UNL A   1     -27.543   0.849  25.079  0.00  0.00    +0.253 C 
ATOM     23  C   UNL A   1     -26.354   0.576  25.777  0.00  0.00    +0.194 C 
ATOM     24  F   UNL A   1     -25.860  -0.681  25.795  0.00  0.00    -0.199 F 
BRANCH  19  25
ATOM     25  C   UNL A   1     -25.642   4.093  27.123  0.00  0.00    +0.266 C 
ATOM     26  N   UNL A   1     -25.614   5.252  26.449  0.00  0.00    -0.200 NA
ATOM     27  C   UNL A   1     -25.026   6.479  26.963  0.00  0.00    +0.139 C 
ATOM     28  O   UNL A   1     -25.143   3.966  28.243  0.00  0.00    -0.268 OA
ENDBRANCH  19  25
BRANCH  22  29
ATOM     29  O   UNL A   1     -28.193  -0.208  24.477  0.00  0.00    -0.456 OA
BRANCH  29  30
ATOM     30  C   UNL A   1     -29.460   0.005  23.866  0.00  0.00    +0.243 C 
BRANCH  30  31
ATOM     31  C   UNL A   1     -30.065  -1.377  23.573  0.00  0.00    +0.229 C 
ATOM     32  O   UNL A   1     -30.729  -1.878  24.721  0.00  0.00    -0.216 OA
ENDBRANCH  30  31
ENDBRANCH  29  30
ENDBRANCH  22  29
ENDBRANCH  13  18
ENDBRANCH  12  17
BRANCH  12  33
ATOM     33  C   UNL A   1     -24.855  -1.012  30.143  0.00  0.00    +0.119 C 
BRANCH  33  34
ATOM     34  C   UNL A   1     -24.973  -2.505  29.788  0.00  0.00    -0.003 C 
ATOM     35  C   UNL A   1     -23.906  -3.173  29.146  0.00  0.00    -0.003 C 
ATOM     36  C   UNL A   1     -23.989  -4.549  28.853  0.00  0.00    -0.000 C 
ATOM     37  C   UNL A   1     -25.137  -5.280  29.205  0.00  0.00    -0.000 C 
ATOM     38  C   UNL A   1     -26.232  -4.611  29.784  0.00  0.00    -0.000 C 
ATOM     39  C   UNL A   1     -26.155  -3.232  30.065  0.00  0.00    -0.003 C 
ENDBRANCH  33  34
BRANCH  33  40
ATOM     40  C   UNL A   1     -25.387  -0.679  31.571  0.00  0.00    +0.096 C 
ATOM     41  C   UNL A   1     -25.189   0.773  32.028  0.00  0.00    +0.021 C 
ATOM     42  C   UNL A   1     -25.336   0.684  33.544  0.00  0.00    +0.020 C 
ATOM     43  C   UNL A   1     -24.829  -0.715  33.905  0.00  0.00    +0.089 C 
ATOM     44  N   UNL A   1     -24.758  -1.481  32.646  0.00  0.00    -0.217 NA
ENDBRANCH  33  40
ENDBRANCH  12  33
TORSDOF 9
