MODEL 420
MODEL 1
REMARK VINA RESULT:    -4.715      0.000      0.000
REMARK INTER + INTRA:          -5.007
REMARK INTER:                  -4.991
REMARK INTRA:                  -0.017
REMARK UNBOUND:                -0.017
REMARK  Name = No_420-gen_results/8p0m/2024-11-27-11-27-31/
REMARK  1 active torsions:
REMARK  status: ('A' for Active; 'I' for Inactive)
REMARK    1  A    between atoms: C_2  and  N_8
REMARK                            x       y       z     vdW  Elec       q    Type
REMARK                         _______ _______ _______ _____ _____    ______ ____
ROOT
ATOM      1  C   UNL A   1     -29.988 -13.794  12.662  0.00  0.00    +0.034 A 
ATOM      2  C   UNL A   1     -29.813 -14.801  12.406  0.00  0.00    +0.125 A 
ATOM      3  C   UNL A   1     -30.681 -13.036  11.620  0.00  0.00    +0.059 A 
ATOM      4  C   UNL A   1     -31.072 -13.613  10.436  0.00  0.00    +0.011 A 
ATOM      5  C   UNL A   1     -30.109 -15.663  11.261  0.00  0.00    +0.023 A 
ATOM      6  C   UNL A   1     -30.780 -14.939  10.247  0.00  0.00    +0.003 A 
ATOM      7 CL   UNL A   1     -31.103 -11.389  11.865  0.00  0.00    -0.082 Cl
ENDROOT
BRANCH   2   8
ATOM      8  N   UNL A   1     -29.152 -15.688  13.445  0.00  0.00    -0.029 NA
ATOM      9  O   UNL A   1     -28.070 -16.152  13.394  0.00  0.00    -0.143 OA
ENDBRANCH   2   8
TORSDOF 1
ENDMDL
ENDMDL
