REMARK  Name = No_421-gen_results/8p0m/2024-11-27-11-27-31/
REMARK  4 active torsions:
REMARK  status: ('A' for Active; 'I' for Inactive)
REMARK    1  A    between atoms: C_2  and  N_7
REMARK    2  A    between atoms: N_7  and  C_8
REMARK    3  A    between atoms: C_9  and  C_10
REMARK    4  A    between atoms: C_11  and  C_13
REMARK                            x       y       z     vdW  Elec       q    Type
REMARK                         _______ _______ _______ _____ _____    ______ ____
ROOT
ATOM      1  C   UNL A   1     -26.512   2.088  27.851  0.00  0.00    +0.212 C 
ATOM      2  C   UNL A   1     -26.822   3.210  28.158  0.00  0.00    +0.047 C 
ATOM      3  F   UNL A   1     -25.002   2.016  27.276  0.00  0.00    -0.186 F 
ENDROOT
BRANCH   2   4
ATOM      4  C   UNL A   1     -25.949   4.423  28.187  0.00  0.00    +0.005 C 
ATOM      5  C   UNL A   1     -24.632   4.218  27.714  0.00  0.00    +0.045 C 
BRANCH   5   6
ATOM      6  C   UNL A   1     -24.277   2.951  27.226  0.00  0.00    +0.341 C 
ATOM      7  F   UNL A   1     -23.007   2.805  26.714  0.00  0.00    -0.193 F 
ATOM      8  F   UNL A   1     -24.133   2.823  26.228  0.00  0.00    -0.193 F 
ENDBRANCH   5   6
ENDBRANCH   2   4
BRANCH   1   9
ATOM      9  N   UNL A   1     -27.106   1.034  27.819  0.00  0.00    -0.186 NA
BRANCH   9  11
ATOM     10  C   UNL A   1     -28.016  -0.814  28.878  0.00  0.00    +0.017 A 
ATOM     11  C   UNL A   1     -27.064  -0.119  28.608  0.00  0.00    +0.073 A 
ATOM     12  C   UNL A   1     -25.792  -0.430  29.076  0.00  0.00    +0.017 A 
ATOM     13  C   UNL A   1     -25.576  -1.565  29.936  0.00  0.00    +0.001 A 
ATOM     14  C   UNL A   1     -26.735  -2.300  30.217  0.00  0.00    +0.000 A 
ATOM     15  C   UNL A   1     -27.918  -1.954  29.763  0.00  0.00    +0.001 A 
ENDBRANCH   9  11
ENDBRANCH   1   9
TORSDOF 4
