MODEL 4210
MODEL 1
REMARK VINA RESULT:    -5.774      0.000      0.000
REMARK INTER + INTRA:         -11.669
REMARK INTER:                 -10.162
REMARK INTRA:                  -1.507
REMARK UNBOUND:                -1.507
REMARK  Name = No_4210-gen_results/8p0m/2024-11-27-11-27-31/
REMARK  13 active torsions:
REMARK  status: ('A' for Active; 'I' for Inactive)
REMARK    1  A    between atoms: C_1  and  C_2
REMARK    2  A    between atoms: C_1  and  N_8
REMARK    3  A    between atoms: C_5  and  C_12
REMARK    4  A    between atoms: N_8  and  C_9
REMARK    5  A    between atoms: C_9  and  C_10
REMARK    6  A    between atoms: C_10  and  O_11
REMARK    7  A    between atoms: O_11  and  C_15
REMARK    8  A    between atoms: C_15  and  C_19
REMARK    9  A    between atoms: C_19  and  O_20
REMARK   10  A    between atoms: O_20  and  C_21
REMARK   11  A    between atoms: C_22  and  C_23
REMARK   12  A    between atoms: C_24  and  C_25
REMARK   13  A    between atoms: C_26  and  C_27
REMARK                            x       y       z     vdW  Elec       q    Type
REMARK                         _______ _______ _______ _____ _____    ______ ____
ROOT
ATOM      1  O   UNL A   1     -10.642   2.785  35.189  0.00  0.00    -0.470 OA
ENDROOT
BRANCH   1   2
ATOM      2  C   UNL A   1     -11.903   2.933  35.000  0.00  0.00    +0.216 C 
ATOM      3  C   UNL A   1     -12.457   2.125  34.078  0.00  0.00    +0.318 C 
ATOM      4  O   UNL A   1     -12.318   1.085  33.836  0.00  0.00    -0.264 OA
ATOM      5  N   UNL A   1     -13.719   2.705  33.484  0.00  0.00    -0.081 NA
BRANCH   2   6
ATOM      6  C   UNL A   1     -12.708   2.718  36.313  0.00  0.00    +0.273 C 
BRANCH   6   7
ATOM      7  O   UNL A   1     -12.072   2.792  37.309  0.00  0.00    -0.464 OA
BRANCH   7   8
ATOM      8  C   UNL A   1     -11.999   1.667  38.197  0.00  0.00    +0.173 C 
ATOM      9  C   UNL A   1     -11.119   0.735  37.697  0.00  0.00    +0.040 C 
BRANCH   9  10
ATOM     10  C   UNL A   1     -11.300  -0.379  37.472  0.00  0.00    +0.003 C 
ATOM     11  C   UNL A   1     -11.084  -1.417  38.088  0.00  0.00    +0.000 C 
BRANCH  11  12
ATOM     12  C   UNL A   1     -10.640  -1.670  39.110  0.00  0.00    +0.000 C 
ATOM     13  C   UNL A   1     -11.118  -1.770  40.483  0.00  0.00    +0.000 C 
BRANCH  13  14
ATOM     14  C   UNL A   1     -12.433  -1.498  40.606  0.00  0.00    +0.000 C 
ATOM     15  C   UNL A   1     -12.907  -0.408  41.377  0.00  0.00    +0.000 C 
ENDBRANCH  13  14
ENDBRANCH  11  12
ENDBRANCH   9  10
ENDBRANCH   7   8
ENDBRANCH   6   7
ENDBRANCH   2   6
ENDBRANCH   1   2
BRANCH   1  16
ATOM     16  C   UNL A   1      -9.784   3.234  34.296  0.00  0.00    +0.224 C 
BRANCH  16  17
ATOM     17  C   UNL A   1      -8.716   2.511  34.179  0.00  0.00    +0.136 C 
BRANCH  17  18
ATOM     18  N   UNL A   1      -8.787   1.183  34.110  0.00  0.00    -0.209 NA
BRANCH  18  19
ATOM     19  C   UNL A   1      -8.477   0.294  35.148  0.00  0.00    +0.115 C 
BRANCH  19  20
ATOM     20  C   UNL A   1      -7.382  -0.217  35.113  0.00  0.00    -0.005 A 
ATOM     21  C   UNL A   1      -7.186  -1.457  34.513  0.00  0.00    -0.003 A 
ATOM     22  C   UNL A   1      -5.894  -2.193  34.416  0.00  0.00    +0.006 A 
ATOM     23  C   UNL A   1      -4.735  -1.479  34.843  0.00  0.00    +0.080 A 
ATOM     24  C   UNL A   1      -4.949  -0.199  35.393  0.00  0.00    +0.006 A 
ATOM     25  C   UNL A   1      -6.148   0.390  35.502  0.00  0.00    -0.003 A 
BRANCH  23  26
ATOM     26  C   UNL A   1      -3.469  -2.164  34.721  0.00  0.00    +0.388 C 
ATOM     27  O   UNL A   1      -2.937  -2.468  33.627  0.00  0.00    -0.241 OA
ATOM     28  O   UNL A   1      -2.747  -2.205  35.855  0.00  0.00    -0.241 OA
ENDBRANCH  23  26
ENDBRANCH  19  20
ENDBRANCH  18  19
ENDBRANCH  17  18
ENDBRANCH  16  17
ENDBRANCH   1  16
TORSDOF 13
ENDMDL
ENDMDL
