REMARK  Name = outputs/IAG933/test6/raw/output_4210_IAG933_linker_design_.xyz
REMARK  11 active torsions:
REMARK  status: ('A' for Active; 'I' for Inactive)
REMARK    1  A    between atoms: C_1  and  C_2
REMARK    2  A    between atoms: C_1  and  C_8
REMARK    3  A    between atoms: C_1  and  C_41
REMARK    4  A    between atoms: C_13  and  C_36
REMARK    5  A    between atoms: C_14  and  C_15
REMARK    6  A    between atoms: C_21  and  O_22
REMARK    7  A    between atoms: O_22  and  C_23
REMARK    8  A    between atoms: C_23  and  C_24
REMARK    9  A    between atoms: C_33  and  C_41
REMARK   10  A    between atoms: C_33  and  C_42
REMARK   11  A    between atoms: C_36  and  N_38
REMARK                            x       y       z     vdW  Elec       q    Type
REMARK                         _______ _______ _______ _____ _____    ______ ____
ROOT
ATOM      1  C   UNL A   1     -21.628  -0.241  28.383  0.00  0.00    +0.207 C 
ATOM      2  C   UNL A   1     -23.751   0.697  28.861  0.00  0.00    +0.185 C 
ATOM      3  O   UNL A   1     -22.495   0.205  29.442  0.00  0.00    -0.464 OA
ATOM      4  C   UNL A   1     -21.210   1.731  27.097  0.00  0.00    +0.025 C 
ATOM      5  C   UNL A   1     -22.322   2.397  27.897  0.00  0.00    +0.094 C 
ATOM      6  N   UNL A   1     -23.648   1.723  27.927  0.00  0.00    -0.280 N 
ATOM      7  C   UNL A   1     -25.114   0.020  29.137  0.00  0.00    +0.010 C 
ATOM      8  C   UNL A   1     -20.561   0.710  27.993  0.00  0.00    +0.049 C 
ENDROOT
BRANCH   7   9
ATOM      9  C   UNL A   1     -24.855  -1.012  30.143  0.00  0.00    +0.061 C 
BRANCH   9  10
ATOM     10  C   UNL A   1     -24.973  -2.505  29.788  0.00  0.00    -0.017 C 
ATOM     11  C   UNL A   1     -23.906  -3.173  29.146  0.00  0.00    -0.004 C 
ATOM     12  C   UNL A   1     -23.989  -4.549  28.853  0.00  0.00    -0.000 C 
ATOM     13  C   UNL A   1     -25.137  -5.280  29.205  0.00  0.00    -0.000 C 
ATOM     14  C   UNL A   1     -26.232  -4.611  29.784  0.00  0.00    -0.000 C 
ATOM     15  C   UNL A   1     -26.155  -3.232  30.065  0.00  0.00    -0.004 C 
ENDBRANCH   9  10
BRANCH   9  16
ATOM     16  C   UNL A   1     -25.387  -0.679  31.571  0.00  0.00    +0.081 C 
ATOM     17  C   UNL A   1     -25.189   0.773  32.028  0.00  0.00    +0.019 C 
ATOM     18  C   UNL A   1     -25.336   0.684  33.544  0.00  0.00    +0.020 C 
ATOM     19  C   UNL A   1     -24.829  -0.715  33.905  0.00  0.00    +0.089 C 
ATOM     20  N   UNL A   1     -24.758  -1.481  32.646  0.00  0.00    -0.219 NA
ENDBRANCH   9  16
ENDBRANCH   7   9
BRANCH   7  21
ATOM     21  C   UNL A   1     -26.781   0.055  28.778  0.00  0.00    +0.034 C 
BRANCH  21  27
ATOM     22  C   UNL A   1     -29.764  -1.513  30.574  0.00  0.00    +0.008 C 
ATOM     23  C   UNL A   1     -29.271  -0.428  28.435  0.00  0.00    +0.151 C 
ATOM     24  O   UNL A   1     -29.390   0.090  27.326  0.00  0.00    -0.296 OA
ATOM     25  C   UNL A   1     -29.273   0.919  30.450  0.00  0.00    +0.008 C 
ATOM     26  C   UNL A   1     -29.624  -0.198  31.410  0.00  0.00    +0.001 C 
ATOM     27  C   UNL A   1     -28.281   0.395  29.368  0.00  0.00    +0.062 C 
ATOM     28  C   UNL A   1     -30.367  -1.041  29.247  0.00  0.00    +0.065 C 
ENDBRANCH  21  27
ENDBRANCH   7  21
BRANCH   6  29
ATOM     29  C   UNL A   1     -24.284   1.404  26.620  0.00  0.00    +0.101 C 
BRANCH  29  30
ATOM     30  C   UNL A   1     -25.688   1.614  26.461  0.00  0.00    +0.090 C 
ATOM     31  C   UNL A   1     -26.250   2.920  26.395  0.00  0.00    +0.057 C 
ATOM     32  C   UNL A   1     -27.438   3.091  25.645  0.00  0.00    +0.102 C 
ATOM     33  N   UNL A   1     -28.075   2.089  25.003  0.00  0.00    -0.212 NA
ATOM     34  C   UNL A   1     -27.543   0.849  25.079  0.00  0.00    +0.234 C 
ATOM     35  C   UNL A   1     -26.354   0.576  25.777  0.00  0.00    +0.242 C 
ATOM     36  F   UNL A   1     -25.860  -0.681  25.795  0.00  0.00    -0.227 F 
BRANCH  31  37
ATOM     37  C   UNL A   1     -25.642   4.093  27.123  0.00  0.00    +0.263 C 
ATOM     38  N   UNL A   1     -25.614   5.252  26.449  0.00  0.00    -0.200 NA
ATOM     39  C   UNL A   1     -25.026   6.479  26.963  0.00  0.00    +0.139 C 
ATOM     40  O   UNL A   1     -25.143   3.966  28.243  0.00  0.00    -0.269 OA
ENDBRANCH  31  37
BRANCH  34  41
ATOM     41  O   UNL A   1     -28.193  -0.208  24.477  0.00  0.00    -0.459 OA
BRANCH  41  42
ATOM     42  C   UNL A   1     -29.460   0.005  23.866  0.00  0.00    +0.242 C 
BRANCH  42  43
ATOM     43  C   UNL A   1     -30.065  -1.377  23.573  0.00  0.00    +0.229 C 
ATOM     44  O   UNL A   1     -30.729  -1.878  24.721  0.00  0.00    -0.216 OA
ENDBRANCH  42  43
ENDBRANCH  41  42
ENDBRANCH  34  41
ENDBRANCH  29  30
ENDBRANCH   6  29
TORSDOF 11
