MODEL 4211
MODEL 1
REMARK VINA RESULT:    -6.512      0.000      0.000
REMARK INTER + INTRA:          -7.425
REMARK INTER:                  -7.274
REMARK INTRA:                  -0.152
REMARK UNBOUND:                -0.152
REMARK  Name = No_4211-gen_results/8p0m/2024-11-27-11-27-31/
REMARK  2 active torsions:
REMARK  status: ('A' for Active; 'I' for Inactive)
REMARK    1  A    between atoms: C_6  and  C_13
REMARK    2  A    between atoms: C_9  and  C_11
REMARK                            x       y       z     vdW  Elec       q    Type
REMARK                         _______ _______ _______ _____ _____    ______ ____
ROOT
ATOM      1  C   UNL A   1     -23.372  -2.280  28.913  0.00  0.00    +0.005 A 
ATOM      2  C   UNL A   1     -24.343  -2.813  29.400  0.00  0.00    +0.013 A 
ATOM      3  C   UNL A   1     -25.267  -2.083  30.139  0.00  0.00    +0.034 A 
ATOM      4  C   UNL A   1     -25.074  -0.678  30.388  0.00  0.00    +0.003 A 
ATOM      5  C   UNL A   1     -23.914  -0.147  29.809  0.00  0.00    +0.007 A 
ATOM      6  C   UNL A   1     -23.063  -0.884  29.132  0.00  0.00    +0.080 A 
ATOM      7  C   UNL A   1     -24.686  -4.254  29.269  0.00  0.00    +0.185 C 
ATOM      8  C   UNL A   1     -25.895  -4.692  29.255  0.00  0.00    +0.063 C 
ATOM      9  C   UNL A   1     -26.943  -3.899  30.028  0.00  0.00    +0.156 C 
ATOM     10  C   UNL A   1     -26.657  -2.575  30.340  0.00  0.00    +0.187 C 
ATOM     11  O   UNL A   1     -27.556  -1.864  30.953  0.00  0.00    -0.290 OA
ATOM     12  F   UNL A   1     -23.725  -4.977  28.696  0.00  0.00    -0.232 F 
ENDROOT
BRANCH   6  13
ATOM     13  C   UNL A   1     -21.810  -0.214  28.699  0.00  0.00    +0.388 C 
ATOM     14  O   UNL A   1     -21.793   0.929  28.211  0.00  0.00    -0.241 OA
ATOM     15  O   UNL A   1     -20.692  -0.857  28.764  0.00  0.00    -0.241 OA
ENDBRANCH   6  13
BRANCH   9  16
ATOM     16  C   UNL A   1     -28.247  -4.467  30.322  0.00  0.00    +0.080 C 
ATOM     17  N   UNL A   1     -29.377  -4.759  30.014  0.00  0.00    -0.195 NA
ENDBRANCH   9  16
TORSDOF 2
ENDMDL
ENDMDL
