REMARK  Name = outputs/IAG933/test6/raw/output_4211_IAG933_linker_design_.xyz
REMARK  4 active torsions:
REMARK  status: ('A' for Active; 'I' for Inactive)
REMARK    1  A    between atoms: C_1  and  C_2
REMARK    2  A    between atoms: C_1  and  C_8
REMARK    3  A    between atoms: C_1  and  N_32
REMARK    4  A    between atoms: C_14  and  C_15
REMARK                            x       y       z     vdW  Elec       q    Type
REMARK                         _______ _______ _______ _____ _____    ______ ____
ROOT
ATOM      1  C   UNL A   1     -25.688   1.614  26.461  0.00  0.00    +0.041 C 
ATOM      2  C   UNL A   1     -26.250   2.920  26.395  0.00  0.00    +0.077 C 
ATOM      3  C   UNL A   1     -27.438   3.091  25.645  0.00  0.00    +0.107 C 
ATOM      4  N   UNL A   1     -28.075   2.089  25.003  0.00  0.00    -0.208 NA
ATOM      5  C   UNL A   1     -27.543   0.849  25.079  0.00  0.00    +0.253 C 
ATOM      6  O   UNL A   1     -28.193  -0.208  24.477  0.00  0.00    -0.455 OA
ATOM      7  C   UNL A   1     -29.460   0.005  23.866  0.00  0.00    +0.254 C 
ATOM      8  C   UNL A   1     -30.065  -1.377  23.573  0.00  0.00    +0.257 C 
ATOM      9  O   UNL A   1     -30.729  -1.878  24.721  0.00  0.00    -0.430 OA
ATOM     10  C   UNL A   1     -26.354   0.576  25.777  0.00  0.00    +0.193 C 
ATOM     11  F   UNL A   1     -25.860  -0.681  25.795  0.00  0.00    -0.199 F 
ATOM     12  C   UNL A   1     -31.463  -0.681  27.915  0.00  0.00    +0.257 C 
ATOM     13  C   UNL A   1     -23.282   1.504  26.464  0.00  0.00    +0.141 C 
ATOM     14  C   UNL A   1     -32.506  -1.090  28.999  0.00  0.00    +0.079 C 
ATOM     15  F   UNL A   1     -23.432   1.573  25.158  0.00  0.00    -0.204 F 
ATOM     16  N   UNL A   1     -25.382  -0.235  29.052  0.00  0.00    -0.304 N 
ATOM     17  C   UNL A   1     -31.572  -1.344  25.664  0.00  0.00    +0.390 C 
ATOM     18  C   UNL A   1     -24.332   0.581  28.395  0.00  0.00    +0.050 C 
ATOM     19  C   UNL A   1     -26.802  -0.182  28.756  0.00  0.00    +0.094 C 
ATOM     20  C   UNL A   1     -22.046   1.635  27.066  0.00  0.00    +0.030 C 
ATOM     21  O   UNL A   1     -31.386  -1.728  26.980  0.00  0.00    -0.414 OA
ATOM     22  O   UNL A   1     -30.154  -0.571  28.558  0.00  0.00    -0.323 OA
ATOM     23  C   UNL A   1     -21.955   1.165  28.388  0.00  0.00    +0.004 C 
ATOM     24  C   UNL A   1     -28.004   0.390  29.644  0.00  0.00    +0.054 C 
ATOM     25  N   UNL A   1     -32.108  -0.008  25.661  0.00  0.00    -0.197 NA
ATOM     26  C   UNL A   1     -23.075   0.599  29.021  0.00  0.00    +0.015 C 
ATOM     27  C   UNL A   1     -29.270   0.552  28.777  0.00  0.00    +0.147 C 
ATOM     28  C   UNL A   1     -31.814   0.570  27.010  0.00  0.00    +0.202 C 
ATOM     29  C   UNL A   1     -24.457   1.228  27.144  0.00  0.00    +0.043 C 
ENDROOT
BRANCH   2  30
ATOM     30  C   UNL A   1     -25.642   4.093  27.123  0.00  0.00    +0.266 C 
ATOM     31  N   UNL A   1     -25.614   5.252  26.449  0.00  0.00    -0.200 NA
ATOM     32  C   UNL A   1     -25.026   6.479  26.963  0.00  0.00    +0.139 C 
ATOM     33  O   UNL A   1     -25.143   3.966  28.243  0.00  0.00    -0.268 OA
ENDBRANCH   2  30
BRANCH  16  34
ATOM     34  C   UNL A   1     -24.855  -1.012  30.143  0.00  0.00    +0.111 C 
BRANCH  34  35
ATOM     35  C   UNL A   1     -24.973  -2.505  29.788  0.00  0.00    -0.003 C 
ATOM     36  C   UNL A   1     -23.906  -3.173  29.146  0.00  0.00    -0.003 C 
ATOM     37  C   UNL A   1     -23.989  -4.549  28.853  0.00  0.00    -0.000 C 
ATOM     38  C   UNL A   1     -25.137  -5.280  29.205  0.00  0.00    -0.000 C 
ATOM     39  C   UNL A   1     -26.232  -4.611  29.784  0.00  0.00    -0.000 C 
ATOM     40  C   UNL A   1     -26.155  -3.232  30.065  0.00  0.00    -0.003 C 
ENDBRANCH  34  35
BRANCH  34  41
ATOM     41  C   UNL A   1     -25.387  -0.679  31.571  0.00  0.00    +0.095 C 
ATOM     42  C   UNL A   1     -25.189   0.773  32.028  0.00  0.00    +0.021 C 
ATOM     43  C   UNL A   1     -25.336   0.684  33.544  0.00  0.00    +0.020 C 
ATOM     44  C   UNL A   1     -24.829  -0.715  33.905  0.00  0.00    +0.089 C 
ATOM     45  N   UNL A   1     -24.758  -1.481  32.646  0.00  0.00    -0.217 NA
ENDBRANCH  34  41
ENDBRANCH  16  34
TORSDOF 4
