MODEL 4212
MODEL 1
REMARK VINA RESULT:    -4.357      0.000      0.000
REMARK INTER + INTRA:          -4.357
REMARK INTER:                  -4.357
REMARK INTRA:                   0.000
REMARK UNBOUND:                 0.000
REMARK  Name = No_4212-gen_results/8p0m/2024-11-27-11-27-31/
REMARK  0 active torsions:
REMARK  status: ('A' for Active; 'I' for Inactive)
REMARK                            x       y       z     vdW  Elec       q    Type
REMARK                         _______ _______ _______ _____ _____    ______ ____
ROOT
ATOM      1  C   UNL A   1     -24.949  -5.401  29.026  0.00  0.00    +0.000 A 
ATOM      2  C   UNL A   1     -24.212  -4.728  28.688  0.00  0.00    +0.000 A 
ATOM      3  C   UNL A   1     -26.134  -4.738  29.586  0.00  0.00    +0.000 A 
ATOM      4  C   UNL A   1     -26.181  -3.424  29.809  0.00  0.00    +0.000 A 
ATOM      5  C   UNL A   1     -24.034  -3.304  28.833  0.00  0.00    +0.000 A 
ATOM      6  C   UNL A   1     -25.134  -2.710  29.378  0.00  0.00    +0.000 A 
ENDROOT
TORSDOF 0
ENDMDL
ENDMDL
