REMARK  Name = outputs/IAG933/test6/raw/output_4212_IAG933_linker_design_.xyz
REMARK  13 active torsions:
REMARK  status: ('A' for Active; 'I' for Inactive)
REMARK    1  A    between atoms: C_1  and  C_2
REMARK    2  A    between atoms: C_1  and  C_8
REMARK    3  A    between atoms: C_9  and  N_41
REMARK    4  A    between atoms: C_13  and  C_34
REMARK    5  A    between atoms: C_14  and  C_15
REMARK    6  A    between atoms: C_21  and  O_22
REMARK    7  A    between atoms: O_22  and  C_23
REMARK    8  A    between atoms: C_23  and  C_24
REMARK    9  A    between atoms: C_29  and  C_37
REMARK   10  A    between atoms: C_29  and  N_41
REMARK   11  A    between atoms: N_31  and  C_36
REMARK   12  A    between atoms: N_31  and  C_40
REMARK   13  A    between atoms: C_36  and  N_41
REMARK                            x       y       z     vdW  Elec       q    Type
REMARK                         _______ _______ _______ _____ _____    ______ ____
ROOT
ATOM      1  C   UNL A   1     -21.980   1.932  26.207  0.00  0.00    +0.002 C 
ATOM      2  O   UNL A   1     -22.424   1.373  29.743  0.00  0.00    -0.289 OA
ATOM      3  C   UNL A   1     -24.269   1.636  26.742  0.00  0.00    -0.014 C 
ATOM      4  C   UNL A   1     -23.290   1.846  25.781  0.00  0.00    -0.006 C 
ATOM      5  C   UNL A   1     -22.654   1.452  28.506  0.00  0.00    +0.193 C 
ATOM      6  C   UNL A   1     -21.643   1.662  27.554  0.00  0.00    +0.039 C 
ATOM      7  C   UNL A   1     -24.046   1.483  28.121  0.00  0.00    +0.154 C 
ENDROOT
BRANCH   3   8
ATOM      8  C   UNL A   1     -25.688   1.614  26.461  0.00  0.00    +0.090 C 
ATOM      9  C   UNL A   1     -26.250   2.920  26.395  0.00  0.00    +0.059 C 
ATOM     10  C   UNL A   1     -27.438   3.091  25.645  0.00  0.00    +0.102 C 
ATOM     11  N   UNL A   1     -28.075   2.089  25.003  0.00  0.00    -0.212 NA
ATOM     12  C   UNL A   1     -27.543   0.849  25.079  0.00  0.00    +0.234 C 
ATOM     13  C   UNL A   1     -26.354   0.576  25.777  0.00  0.00    +0.244 C 
ATOM     14  F   UNL A   1     -25.860  -0.681  25.795  0.00  0.00    -0.227 F 
BRANCH   9  15
ATOM     15  C   UNL A   1     -25.642   4.093  27.123  0.00  0.00    +0.263 C 
ATOM     16  N   UNL A   1     -25.614   5.252  26.449  0.00  0.00    -0.200 NA
ATOM     17  C   UNL A   1     -25.026   6.479  26.963  0.00  0.00    +0.139 C 
ATOM     18  O   UNL A   1     -25.143   3.966  28.243  0.00  0.00    -0.269 OA
ENDBRANCH   9  15
BRANCH  12  19
ATOM     19  O   UNL A   1     -28.193  -0.208  24.477  0.00  0.00    -0.459 OA
BRANCH  19  20
ATOM     20  C   UNL A   1     -29.460   0.005  23.866  0.00  0.00    +0.242 C 
BRANCH  20  21
ATOM     21  C   UNL A   1     -30.065  -1.377  23.573  0.00  0.00    +0.229 C 
ATOM     22  O   UNL A   1     -30.729  -1.878  24.721  0.00  0.00    -0.216 OA
ENDBRANCH  20  21
ENDBRANCH  19  20
ENDBRANCH  12  19
ENDBRANCH   3   8
BRANCH   7  23
ATOM     23  N   UNL A   1     -25.163   1.396  28.987  0.00  0.00    -0.190 NA
BRANCH  23  24
ATOM     24  C   UNL A   1     -25.960   1.487  29.916  0.00  0.00    +0.165 C 
BRANCH  24  25
ATOM     25  N   UNL A   1     -25.689   1.835  31.203  0.00  0.00    -0.250 NA
BRANCH  25  27
ATOM     26  C   UNL A   1     -25.387  -0.679  31.571  0.00  0.00    +0.092 C 
ATOM     27  C   UNL A   1     -25.189   0.773  32.028  0.00  0.00    +0.077 C 
ATOM     28  C   UNL A   1     -25.336   0.684  33.544  0.00  0.00    +0.036 C 
ATOM     29  C   UNL A   1     -24.829  -0.715  33.905  0.00  0.00    +0.090 C 
ATOM     30  N   UNL A   1     -24.758  -1.481  32.646  0.00  0.00    -0.218 NA
BRANCH  26  31
ATOM     31  C   UNL A   1     -24.855  -1.012  30.143  0.00  0.00    +0.045 C 
BRANCH  31  32
ATOM     32  C   UNL A   1     -24.973  -2.505  29.788  0.00  0.00    -0.021 C 
ATOM     33  C   UNL A   1     -23.906  -3.173  29.146  0.00  0.00    -0.004 C 
ATOM     34  C   UNL A   1     -23.989  -4.549  28.853  0.00  0.00    -0.000 C 
ATOM     35  C   UNL A   1     -25.137  -5.280  29.205  0.00  0.00    -0.000 C 
ATOM     36  C   UNL A   1     -26.232  -4.611  29.784  0.00  0.00    -0.000 C 
ATOM     37  C   UNL A   1     -26.155  -3.232  30.065  0.00  0.00    -0.004 C 
ENDBRANCH  31  32
ENDBRANCH  26  31
ENDBRANCH  25  27
BRANCH  25  38
ATOM     38  C   UNL A   1     -26.258   3.118  31.519  0.00  0.00    +0.163 C 
BRANCH  38  41
ATOM     39  N   UNL A   1     -26.150   4.797  33.250  0.00  0.00    -0.087 NA
ATOM     40  O   UNL A   1     -24.244   3.988  32.505  0.00  0.00    -0.270 OA
ATOM     41  C   UNL A   1     -25.459   3.982  32.483  0.00  0.00    +0.277 C 
ENDBRANCH  38  41
ENDBRANCH  25  38
ENDBRANCH  24  25
ENDBRANCH  23  24
ENDBRANCH   7  23
TORSDOF 13
