REMARK  Name = No_4213-gen_results/8p0m/2024-11-27-11-27-31/
REMARK  2 active torsions:
REMARK  status: ('A' for Active; 'I' for Inactive)
REMARK    1  A    between atoms: C_3  and  C_7
REMARK    2  A    between atoms: C_9  and  C_10
REMARK                            x       y       z     vdW  Elec       q    Type
REMARK                         _______ _______ _______ _____ _____    ______ ____
ROOT
ATOM      1  C   UNL A   1     -26.408   0.307  27.226  0.00  0.00    +0.000 A 
ATOM      2  C   UNL A   1     -25.011   0.390  27.323  0.00  0.00    +0.000 A 
ATOM      3  C   UNL A   1     -27.046   0.329  26.005  0.00  0.00    +0.000 A 
ATOM      4  C   UNL A   1     -26.174   0.736  25.009  0.00  0.00    +0.000 A 
ATOM      5  C   UNL A   1     -24.800   0.670  25.063  0.00  0.00    +0.000 A 
ATOM      6  C   UNL A   1     -24.218   0.601  26.271  0.00  0.00    +0.000 A 
ENDROOT
BRANCH   1   9
ATOM      7  C   UNL A   1     -28.016  -0.814  28.878  0.00  0.00    +0.000 A 
ATOM      8  C   UNL A   1     -28.469  -0.785  29.829  0.00  0.00    +0.000 A 
ATOM      9  C   UNL A   1     -27.136   0.236  28.535  0.00  0.00    +0.000 A 
ATOM     10  C   UNL A   1     -26.875   1.282  29.398  0.00  0.00    +0.000 A 
ATOM     11  C   UNL A   1     -27.507   1.238  30.630  0.00  0.00    +0.000 A 
ATOM     12  C   UNL A   1     -28.329   0.174  30.935  0.00  0.00    +0.000 A 
ENDBRANCH   1   9
BRANCH   3  13
ATOM     13  C   UNL A   1     -28.401   0.362  25.874  0.00  0.00    +0.000 A 
ATOM     14  C   UNL A   1     -29.207   0.722  26.919  0.00  0.00    +0.000 A 
ATOM     15  C   UNL A   1     -30.431   1.087  26.563  0.00  0.00    +0.000 A 
ATOM     16  C   UNL A   1     -30.886   0.979  25.266  0.00  0.00    +0.000 A 
ATOM     17  C   UNL A   1     -28.972   0.399  24.563  0.00  0.00    +0.000 A 
ATOM     18  C   UNL A   1     -30.166   0.736  24.236  0.00  0.00    +0.000 A 
ENDBRANCH   3  13
TORSDOF 2
