REMARK  Name = outputs/IAG933/test6/raw/output_4214_IAG933_linker_design_.xyz
REMARK  14 active torsions:
REMARK  status: ('A' for Active; 'I' for Inactive)
REMARK    1  A    between atoms: C_1  and  C_2
REMARK    2  A    between atoms: C_1  and  C_8
REMARK    3  A    between atoms: C_1  and  C_42
REMARK    4  A    between atoms: C_13  and  C_28
REMARK    5  A    between atoms: C_14  and  C_15
REMARK    6  A    between atoms: C_21  and  O_22
REMARK    7  A    between atoms: O_22  and  C_23
REMARK    8  A    between atoms: C_23  and  C_24
REMARK    9  A    between atoms: C_28  and  N_33
REMARK   10  A    between atoms: N_29  and  C_39
REMARK   11  A    between atoms: C_30  and  C_39
REMARK   12  A    between atoms: N_33  and  C_42
REMARK   13  A    between atoms: N_33  and  C_44
REMARK   14  A    between atoms: C_40  and  C_42
REMARK                            x       y       z     vdW  Elec       q    Type
REMARK                         _______ _______ _______ _____ _____    ______ ____
ROOT
ATOM      1  N   UNL A   1     -24.482   0.578  28.106  0.00  0.00    -0.244 NA
ENDROOT
BRANCH   1   7
ATOM      2  N   UNL A   1     -22.430  -0.488  29.030  0.00  0.00    -0.150 NA
ATOM      3  O   UNL A   1     -20.866   0.724  28.034  0.00  0.00    -0.427 OA
ATOM      4  C   UNL A   1     -21.041  -0.425  28.817  0.00  0.00    +0.304 C 
ATOM      5  C   UNL A   1     -22.057   1.379  28.007  0.00  0.00    +0.350 C 
ATOM      6  O   UNL A   1     -22.126   2.701  27.689  0.00  0.00    -0.247 OA
ATOM      7  C   UNL A   1     -23.194   0.509  28.440  0.00  0.00    +0.237 C 
ENDBRANCH   1   7
BRANCH   1   8
ATOM      8  C   UNL A   1     -24.419   1.358  26.864  0.00  0.00    +0.103 C 
BRANCH   8   9
ATOM      9  C   UNL A   1     -25.688   1.614  26.461  0.00  0.00    +0.032 C 
ATOM     10  C   UNL A   1     -26.250   2.920  26.395  0.00  0.00    +0.074 C 
ATOM     11  C   UNL A   1     -27.438   3.091  25.645  0.00  0.00    +0.106 C 
ATOM     12  N   UNL A   1     -28.075   2.089  25.003  0.00  0.00    -0.208 NA
ATOM     13  C   UNL A   1     -27.543   0.849  25.079  0.00  0.00    +0.253 C 
ATOM     14  C   UNL A   1     -26.354   0.576  25.777  0.00  0.00    +0.190 C 
ATOM     15  F   UNL A   1     -25.860  -0.681  25.795  0.00  0.00    -0.200 F 
BRANCH  10  16
ATOM     16  C   UNL A   1     -25.642   4.093  27.123  0.00  0.00    +0.266 C 
ATOM     17  N   UNL A   1     -25.614   5.252  26.449  0.00  0.00    -0.200 NA
ATOM     18  C   UNL A   1     -25.026   6.479  26.963  0.00  0.00    +0.139 C 
ATOM     19  O   UNL A   1     -25.143   3.966  28.243  0.00  0.00    -0.268 OA
ENDBRANCH  10  16
BRANCH  13  20
ATOM     20  O   UNL A   1     -28.193  -0.208  24.477  0.00  0.00    -0.456 OA
BRANCH  20  21
ATOM     21  C   UNL A   1     -29.460   0.005  23.866  0.00  0.00    +0.243 C 
BRANCH  21  22
ATOM     22  C   UNL A   1     -30.065  -1.377  23.573  0.00  0.00    +0.229 C 
ATOM     23  O   UNL A   1     -30.729  -1.878  24.721  0.00  0.00    -0.216 OA
ENDBRANCH  21  22
ENDBRANCH  20  21
ENDBRANCH  13  20
ENDBRANCH   8   9
ENDBRANCH   1   8
BRANCH   1  24
ATOM     24  C   UNL A   1     -25.486  -0.242  28.896  0.00  0.00    +0.095 C 
BRANCH  24  27
ATOM     25  C   UNL A   1     -27.708   2.784  30.757  0.00  0.00    +0.034 C 
ATOM     26  C   UNL A   1     -27.196   1.804  29.919  0.00  0.00    -0.107 C 
ATOM     27  C   UNL A   1     -26.714   0.616  29.320  0.00  0.00    +0.031 C 
BRANCH  25  28
ATOM     28  C   UNL A   1     -27.118   4.193  30.742  0.00  0.00    +0.127 C 
BRANCH  28  29
ATOM     29  N   UNL A   1     -26.300   4.393  31.955  0.00  0.00    -0.163 NA
ATOM     30  C   UNL A   1     -26.056   5.462  32.651  0.00  0.00    +0.202 C 
ATOM     31  N   UNL A   1     -25.488   3.823  33.799  0.00  0.00    -0.020 NA
ATOM     32  N   UNL A   1     -25.734   3.494  32.660  0.00  0.00    -0.035 NA
ATOM     33  N   UNL A   1     -25.621   5.140  33.826  0.00  0.00    -0.093 NA
ENDBRANCH  28  29
ENDBRANCH  25  28
ENDBRANCH  24  27
BRANCH  24  34
ATOM     34  C   UNL A   1     -24.855  -1.012  30.143  0.00  0.00    +0.058 C 
BRANCH  34  35
ATOM     35  C   UNL A   1     -24.973  -2.505  29.788  0.00  0.00    -0.019 C 
ATOM     36  C   UNL A   1     -23.906  -3.173  29.146  0.00  0.00    -0.004 C 
ATOM     37  C   UNL A   1     -23.989  -4.549  28.853  0.00  0.00    -0.000 C 
ATOM     38  C   UNL A   1     -25.137  -5.280  29.205  0.00  0.00    -0.000 C 
ATOM     39  C   UNL A   1     -26.232  -4.611  29.784  0.00  0.00    -0.000 C 
ATOM     40  C   UNL A   1     -26.155  -3.232  30.065  0.00  0.00    -0.004 C 
ENDBRANCH  34  35
BRANCH  34  41
ATOM     41  C   UNL A   1     -25.387  -0.679  31.571  0.00  0.00    +0.079 C 
ATOM     42  C   UNL A   1     -25.189   0.773  32.028  0.00  0.00    +0.019 C 
ATOM     43  C   UNL A   1     -25.336   0.684  33.544  0.00  0.00    +0.020 C 
ATOM     44  C   UNL A   1     -24.829  -0.715  33.905  0.00  0.00    +0.089 C 
ATOM     45  N   UNL A   1     -24.758  -1.481  32.646  0.00  0.00    -0.219 NA
ENDBRANCH  34  41
ENDBRANCH  24  34
ENDBRANCH   1  24
TORSDOF 14
