MODEL 4214
MODEL 1
REMARK VINA RESULT:    -6.107      0.000      0.000
REMARK INTER + INTRA:          -7.084
REMARK INTER:                  -6.821
REMARK INTRA:                  -0.262
REMARK UNBOUND:                -0.262
REMARK  Name = No_4214-gen_results/8p0m/2024-11-27-11-27-31/
REMARK  2 active torsions:
REMARK  status: ('A' for Active; 'I' for Inactive)
REMARK    1  A    between atoms: C_2  and  C_10
REMARK    2  A    between atoms: C_5  and  C_7
REMARK                            x       y       z     vdW  Elec       q    Type
REMARK                         _______ _______ _______ _____ _____    ______ ____
ROOT
ATOM      1  C   UNL A   1     -26.258  -0.182  24.500  0.00  0.00    +0.000 A 
ATOM      2  C   UNL A   1     -27.172   0.607  24.558  0.00  0.00    +0.000 A 
ATOM      3  C   UNL A   1     -27.079   1.842  25.169  0.00  0.00    +0.000 A 
ATOM      4  C   UNL A   1     -25.824   2.217  25.727  0.00  0.00    +0.004 A 
ATOM      5  C   UNL A   1     -24.792   1.376  25.488  0.00  0.00    +0.054 A 
ATOM      6  C   UNL A   1     -24.965   0.231  24.856  0.00  0.00    +0.004 A 
ENDROOT
BRANCH   2   7
ATOM      7  C   UNL A   1     -28.635   0.227  24.086  0.00  0.00    +0.002 A 
ATOM      8  C   UNL A   1     -29.539   1.142  23.765  0.00  0.00    +0.030 A 
ATOM      9  C   UNL A   1     -30.847   0.785  23.263  0.00  0.00    +0.140 A 
ATOM     10  C   UNL A   1     -31.172  -0.501  23.246  0.00  0.00    +0.030 A 
ATOM     11  C   UNL A   1     -29.059  -1.111  24.013  0.00  0.00    +0.000 A 
ATOM     12  C   UNL A   1     -30.312  -1.491  23.614  0.00  0.00    +0.002 A 
ATOM     13  F   UNL A   1     -31.699   1.738  22.974  0.00  0.00    -0.204 F 
ENDBRANCH   2   7
BRANCH   5  14
ATOM     14  C   UNL A   1     -23.491   1.797  26.048  0.00  0.00    +0.249 C 
ATOM     15  N   UNL A   1     -23.017   1.332  27.087  0.00  0.00    -0.273 N 
ATOM     16  O   UNL A   1     -22.739   2.521  25.304  0.00  0.00    -0.270 OA
ATOM     17  C   UNL A   1     -23.722   0.362  27.954  0.00  0.00    +0.115 C 
ATOM     18  C   UNL A   1     -21.694   1.674  27.640  0.00  0.00    +0.115 C 
ENDBRANCH   5  14
TORSDOF 2
ENDMDL
ENDMDL
