MODEL 4215
MODEL 1
REMARK VINA RESULT:    -5.586      0.000      0.000
REMARK INTER + INTRA:          -6.960
REMARK INTER:                  -6.566
REMARK INTRA:                  -0.394
REMARK UNBOUND:                -0.394
REMARK  Name = No_4215-gen_results/8p0m/2024-11-27-11-27-31/
REMARK  3 active torsions:
REMARK  status: ('A' for Active; 'I' for Inactive)
REMARK    1  A    between atoms: C_1  and  C_2
REMARK    2  A    between atoms: C_1  and  C_4
REMARK    3  A    between atoms: C_2  and  C_6
REMARK                            x       y       z     vdW  Elec       q    Type
REMARK                         _______ _______ _______ _____ _____    ______ ____
ROOT
ATOM      1  C   UNL A   1     -23.150  -1.004  28.873  0.00  0.00    +0.010 A 
ATOM      2  C   UNL A   1     -21.774  -0.795  29.173  0.00  0.00    -0.002 A 
ATOM      3  C   UNL A   1     -21.154   0.099  28.592  0.00  0.00    -0.000 A 
ATOM      4  C   UNL A   1     -21.810   1.191  27.804  0.00  0.00    -0.000 A 
ATOM      5  C   UNL A   1     -23.157   1.057  27.464  0.00  0.00    -0.000 A 
ATOM      6  C   UNL A   1     -23.791  -0.053  27.941  0.00  0.00    -0.002 A 
ENDROOT
BRANCH   1   7
ATOM      7  C   UNL A   1     -23.754  -2.190  29.332  0.00  0.00    +0.188 C 
ATOM      8  F   UNL A   1     -23.854  -2.159  30.667  0.00  0.00    -0.232 F 
BRANCH   7   9
ATOM      9  C   UNL A   1     -24.299  -2.932  28.819  0.00  0.00    +0.066 C 
BRANCH   9  10
ATOM     10  C   UNL A   1     -24.025  -4.332  28.557  0.00  0.00    -0.023 C 
ATOM     11  C   UNL A   1     -24.940  -5.092  29.185  0.00  0.00    -0.005 C 
ENDBRANCH   9  10
ENDBRANCH   7   9
ENDBRANCH   1   7
TORSDOF 3
ENDMDL
ENDMDL
