MODEL 4216
MODEL 1
REMARK VINA RESULT:    -4.265      0.000      0.000
REMARK INTER + INTRA:          -4.265
REMARK INTER:                  -4.265
REMARK INTRA:                   0.000
REMARK UNBOUND:                 0.000
REMARK  Name = No_4216-gen_results/8p0m/2024-11-27-11-27-31/
REMARK  0 active torsions:
REMARK  status: ('A' for Active; 'I' for Inactive)
REMARK                            x       y       z     vdW  Elec       q    Type
REMARK                         _______ _______ _______ _____ _____    ______ ____
ROOT
ATOM      1  C   UNL A   1     -24.999  -5.388  28.968  0.00  0.00    +0.000 A 
ATOM      2  C   UNL A   1     -24.049  -4.711  28.648  0.00  0.00    +0.000 A 
ATOM      3  C   UNL A   1     -24.035  -3.332  28.713  0.00  0.00    +0.000 A 
ATOM      4  C   UNL A   1     -25.191  -2.677  29.224  0.00  0.00    +0.000 A 
ATOM      5  C   UNL A   1     -26.157  -3.481  29.727  0.00  0.00    +0.000 A 
ATOM      6  C   UNL A   1     -26.067  -4.795  29.658  0.00  0.00    +0.000 A 
ENDROOT
TORSDOF 0
ENDMDL
ENDMDL
