REMARK  Name = outputs/IAG933/test6/raw/output_4217_IAG933_linker_design_.xyz
REMARK  12 active torsions:
REMARK  status: ('A' for Active; 'I' for Inactive)
REMARK    1  A    between atoms: C_1  and  C_2
REMARK    2  A    between atoms: C_1  and  C_8
REMARK    3  A    between atoms: C_1  and  C_29
REMARK    4  A    between atoms: C_13  and  N_35
REMARK    5  A    between atoms: C_14  and  C_15
REMARK    6  A    between atoms: C_21  and  O_22
REMARK    7  A    between atoms: O_22  and  C_23
REMARK    8  A    between atoms: C_23  and  C_24
REMARK    9  A    between atoms: C_29  and  C_38
REMARK   10  A    between atoms: C_29  and  C_39
REMARK   11  A    between atoms: C_31  and  N_35
REMARK   12  A    between atoms: C_33  and  C_39
REMARK                            x       y       z     vdW  Elec       q    Type
REMARK                         _______ _______ _______ _____ _____    ______ ____
ROOT
ATOM      1  C   UNL A   1     -21.180   0.719  28.019  0.00  0.00    +0.285 C 
ATOM      2  C   UNL A   1     -23.282   1.359  27.115  0.00  0.00    +0.077 C 
ATOM      3  C   UNL A   1     -22.574   0.741  28.127  0.00  0.00    +0.087 C 
ATOM      4  N   UNL A   1     -20.334   0.019  28.848  0.00  0.00    -0.082 NA
ATOM      5  O   UNL A   1     -20.628   1.403  26.960  0.00  0.00    -0.454 OA
ATOM      6  C   UNL A   1     -22.707   2.158  26.112  0.00  0.00    +0.057 C 
ATOM      7  C   UNL A   1     -21.340   2.115  26.073  0.00  0.00    +0.176 C 
ENDROOT
BRANCH   3   9
ATOM      8  O   UNL A   1     -22.672  -0.074  30.170  0.00  0.00    -0.290 OA
ATOM      9  C   UNL A   1     -23.329   0.209  29.176  0.00  0.00    +0.189 C 
BRANCH   9  10
ATOM     10  C   UNL A   1     -24.934   0.080  29.113  0.00  0.00    +0.158 C 
BRANCH  10  12
ATOM     11  N   UNL A   1     -27.290  -0.524  28.172  0.00  0.00    -0.195 NA
ATOM     12  C   UNL A   1     -26.364  -0.285  28.615  0.00  0.00    +0.080 C 
ENDBRANCH  10  12
BRANCH  10  13
ATOM     13  C   UNL A   1     -24.855  -1.012  30.143  0.00  0.00    +0.060 C 
BRANCH  13  14
ATOM     14  C   UNL A   1     -24.973  -2.505  29.788  0.00  0.00    -0.020 C 
ATOM     15  C   UNL A   1     -23.906  -3.173  29.146  0.00  0.00    -0.004 C 
ATOM     16  C   UNL A   1     -23.989  -4.549  28.853  0.00  0.00    -0.000 C 
ATOM     17  C   UNL A   1     -25.137  -5.280  29.205  0.00  0.00    -0.000 C 
ATOM     18  C   UNL A   1     -26.232  -4.611  29.784  0.00  0.00    -0.000 C 
ATOM     19  C   UNL A   1     -26.155  -3.232  30.065  0.00  0.00    -0.004 C 
ENDBRANCH  13  14
BRANCH  13  20
ATOM     20  C   UNL A   1     -25.387  -0.679  31.571  0.00  0.00    +0.078 C 
ATOM     21  C   UNL A   1     -25.189   0.773  32.028  0.00  0.00    +0.019 C 
ATOM     22  C   UNL A   1     -25.336   0.684  33.544  0.00  0.00    +0.020 C 
ATOM     23  C   UNL A   1     -24.829  -0.715  33.905  0.00  0.00    +0.089 C 
ATOM     24  N   UNL A   1     -24.758  -1.481  32.646  0.00  0.00    -0.219 NA
ENDBRANCH  13  20
ENDBRANCH  10  13
ENDBRANCH   9  10
ENDBRANCH   3   9
BRANCH   2  25
ATOM     25  N   UNL A   1     -24.524   1.202  27.005  0.00  0.00    -0.210 NA
BRANCH  25  26
ATOM     26  C   UNL A   1     -25.688   1.614  26.461  0.00  0.00    +0.108 C 
ATOM     27  C   UNL A   1     -26.250   2.920  26.395  0.00  0.00    +0.092 C 
ATOM     28  C   UNL A   1     -27.438   3.091  25.645  0.00  0.00    +0.108 C 
ATOM     29  N   UNL A   1     -28.075   2.089  25.003  0.00  0.00    -0.208 NA
ATOM     30  C   UNL A   1     -27.543   0.849  25.079  0.00  0.00    +0.255 C 
ATOM     31  C   UNL A   1     -26.354   0.576  25.777  0.00  0.00    +0.208 C 
ATOM     32  F   UNL A   1     -25.860  -0.681  25.795  0.00  0.00    -0.198 F 
BRANCH  27  33
ATOM     33  C   UNL A   1     -25.642   4.093  27.123  0.00  0.00    +0.268 C 
ATOM     34  N   UNL A   1     -25.614   5.252  26.449  0.00  0.00    -0.200 NA
ATOM     35  C   UNL A   1     -25.026   6.479  26.963  0.00  0.00    +0.139 C 
ATOM     36  O   UNL A   1     -25.143   3.966  28.243  0.00  0.00    -0.268 OA
ENDBRANCH  27  33
BRANCH  30  37
ATOM     37  O   UNL A   1     -28.193  -0.208  24.477  0.00  0.00    -0.456 OA
BRANCH  37  38
ATOM     38  C   UNL A   1     -29.460   0.005  23.866  0.00  0.00    +0.243 C 
BRANCH  38  39
ATOM     39  C   UNL A   1     -30.065  -1.377  23.573  0.00  0.00    +0.229 C 
ATOM     40  O   UNL A   1     -30.729  -1.878  24.721  0.00  0.00    -0.216 OA
ENDBRANCH  38  39
ENDBRANCH  37  38
ENDBRANCH  30  37
ENDBRANCH  25  26
ENDBRANCH   2  25
TORSDOF 12
