MODEL 4217
MODEL 1
REMARK VINA RESULT:    -4.425      0.000      0.000
REMARK INTER + INTRA:          -5.113
REMARK INTER:                  -4.942
REMARK INTRA:                  -0.171
REMARK UNBOUND:                -0.171
REMARK  Name = No_4217-gen_results/8p0m/2024-11-27-11-27-31/
REMARK  2 active torsions:
REMARK  status: ('A' for Active; 'I' for Inactive)
REMARK    1  A    between atoms: C_3  and  C_4
REMARK    2  A    between atoms: C_5  and  C_6
REMARK                            x       y       z     vdW  Elec       q    Type
REMARK                         _______ _______ _______ _____ _____    ______ ____
ROOT
ATOM      1  C   UNL A   1     -24.360  -3.208  28.977  0.00  0.00    +0.002 C 
ATOM      2  C   UNL A   1     -23.509  -2.229  28.975  0.00  0.00    -0.000 C 
ENDROOT
BRANCH   1   5
ATOM      3  F   UNL A   1     -25.693  -5.281  29.643  0.00  0.00    -0.202 F 
ATOM      4  C   UNL A   1     -24.831  -5.392  29.001  0.00  0.00    +0.167 C 
ATOM      5  C   UNL A   1     -24.195  -4.710  28.638  0.00  0.00    +0.032 C 
ENDBRANCH   1   5
BRANCH   2   6
ATOM      6  C   UNL A   1     -23.816  -0.823  29.212  0.00  0.00    -0.005 C 
ATOM      7  C   UNL A   1     -22.687   0.020  29.202  0.00  0.00    -0.026 C 
ATOM      8  C   UNL A   1     -21.478  -0.447  28.991  0.00  0.00    +0.031 C 
ENDBRANCH   2   6
TORSDOF 2
ENDMDL
ENDMDL
