REMARK  Name = outputs/IAG933/test6/raw/output_4218_IAG933_linker_design_.xyz
REMARK  11 active torsions:
REMARK  status: ('A' for Active; 'I' for Inactive)
REMARK    1  A    between atoms: C_1  and  C_2
REMARK    2  A    between atoms: C_1  and  C_8
REMARK    3  A    between atoms: C_1  and  N_37
REMARK    4  A    between atoms: C_13  and  C_29
REMARK    5  A    between atoms: C_14  and  C_15
REMARK    6  A    between atoms: C_21  and  O_22
REMARK    7  A    between atoms: O_22  and  C_23
REMARK    8  A    between atoms: C_23  and  C_24
REMARK    9  A    between atoms: C_30  and  C_35
REMARK   10  A    between atoms: C_35  and  C_45
REMARK   11  A    between atoms: C_41  and  C_45
REMARK                            x       y       z     vdW  Elec       q    Type
REMARK                         _______ _______ _______ _____ _____    ______ ____
ROOT
ATOM      1  C   UNL A   1     -22.175   1.514  26.826  0.00  0.00    +0.059 C 
ATOM      2  C   UNL A   1     -24.659   1.280  27.549  0.00  0.00    -0.001 A 
ATOM      3  C   UNL A   1     -25.309   0.572  28.568  0.00  0.00    +0.034 A 
ATOM      4 CL   UNL A   1     -22.437   2.435  25.418  0.00  0.00    -0.082 Cl
ATOM      5  C   UNL A   1     -20.860   1.120  27.262  0.00  0.00    +0.011 C 
ATOM      6  N   UNL A   1     -24.407  -0.102  29.115  0.00  0.00    -0.328 N 
ATOM      7  C   UNL A   1     -21.876  -0.301  29.203  0.00  0.00    +0.017 C 
ATOM      8  C   UNL A   1     -20.759   0.427  28.493  0.00  0.00    +0.002 C 
ATOM      9  C   UNL A   1     -23.301   1.076  27.605  0.00  0.00    +0.024 A 
ATOM     10  C   UNL A   1     -23.210   0.242  28.691  0.00  0.00    +0.060 A 
ENDROOT
BRANCH   2  11
ATOM     11  C   UNL A   1     -25.688   1.614  26.461  0.00  0.00    +0.093 C 
ATOM     12  C   UNL A   1     -26.250   2.920  26.395  0.00  0.00    +0.059 C 
ATOM     13  C   UNL A   1     -27.438   3.091  25.645  0.00  0.00    +0.102 C 
ATOM     14  N   UNL A   1     -28.075   2.089  25.003  0.00  0.00    -0.212 NA
ATOM     15  C   UNL A   1     -27.543   0.849  25.079  0.00  0.00    +0.234 C 
ATOM     16  C   UNL A   1     -26.354   0.576  25.777  0.00  0.00    +0.244 C 
ATOM     17  F   UNL A   1     -25.860  -0.681  25.795  0.00  0.00    -0.227 F 
BRANCH  12  18
ATOM     18  C   UNL A   1     -25.642   4.093  27.123  0.00  0.00    +0.263 C 
ATOM     19  N   UNL A   1     -25.614   5.252  26.449  0.00  0.00    -0.200 NA
ATOM     20  C   UNL A   1     -25.026   6.479  26.963  0.00  0.00    +0.139 C 
ATOM     21  O   UNL A   1     -25.143   3.966  28.243  0.00  0.00    -0.269 OA
ENDBRANCH  12  18
BRANCH  15  22
ATOM     22  O   UNL A   1     -28.193  -0.208  24.477  0.00  0.00    -0.459 OA
BRANCH  22  23
ATOM     23  C   UNL A   1     -29.460   0.005  23.866  0.00  0.00    +0.242 C 
BRANCH  23  24
ATOM     24  C   UNL A   1     -30.065  -1.377  23.573  0.00  0.00    +0.229 C 
ATOM     25  O   UNL A   1     -30.729  -1.878  24.721  0.00  0.00    -0.216 OA
ENDBRANCH  23  24
ENDBRANCH  22  23
ENDBRANCH  15  22
ENDBRANCH   2  11
BRANCH   6  26
ATOM     26  C   UNL A   1     -24.855  -1.012  30.143  0.00  0.00    +0.123 C 
BRANCH  26  27
ATOM     27  C   UNL A   1     -24.973  -2.505  29.788  0.00  0.00    -0.000 C 
ATOM     28  C   UNL A   1     -23.906  -3.173  29.146  0.00  0.00    -0.002 C 
ATOM     29  C   UNL A   1     -23.989  -4.549  28.853  0.00  0.00    -0.000 C 
ATOM     30  C   UNL A   1     -25.137  -5.280  29.205  0.00  0.00    -0.000 C 
ATOM     31  C   UNL A   1     -26.232  -4.611  29.784  0.00  0.00    -0.000 C 
ATOM     32  C   UNL A   1     -26.155  -3.232  30.065  0.00  0.00    -0.002 C 
ENDBRANCH  26  27
BRANCH  26  33
ATOM     33  C   UNL A   1     -25.387  -0.679  31.571  0.00  0.00    +0.098 C 
ATOM     34  C   UNL A   1     -25.189   0.773  32.028  0.00  0.00    +0.021 C 
ATOM     35  C   UNL A   1     -25.336   0.684  33.544  0.00  0.00    +0.020 C 
ATOM     36  C   UNL A   1     -24.829  -0.715  33.905  0.00  0.00    +0.089 C 
ATOM     37  N   UNL A   1     -24.758  -1.481  32.646  0.00  0.00    -0.217 NA
ENDBRANCH  26  33
ENDBRANCH   6  26
BRANCH   3  38
ATOM     38  C   UNL A   1     -26.857   0.637  28.812  0.00  0.00    +0.043 C 
BRANCH  38  39
ATOM     39  C   UNL A   1     -28.075  -0.137  27.997  0.00  0.00    +0.008 C 
BRANCH  39  44
ATOM     40  C   UNL A   1     -31.145  -0.610  31.869  0.00  0.00    +0.090 C 
ATOM     41  C   UNL A   1     -30.486  -0.623  28.143  0.00  0.00    +0.019 C 
ATOM     42  C   UNL A   1     -31.413  -0.607  29.365  0.00  0.00    +0.072 C 
ATOM     43  C   UNL A   1     -29.257  -0.908  30.160  0.00  0.00    +0.072 C 
ATOM     44  C   UNL A   1     -29.178  -1.085  28.667  0.00  0.00    +0.018 C 
ATOM     45  N   UNL A   1     -30.527  -0.709  30.540  0.00  0.00    -0.272 NA
ENDBRANCH  39  44
ENDBRANCH  38  39
ENDBRANCH   3  38
TORSDOF 11
