MODEL 4218
MODEL 1
REMARK VINA RESULT:    -7.245      0.000      0.000
REMARK INTER + INTRA:          -7.206
REMARK INTER:                  -8.516
REMARK INTRA:                   1.310
REMARK UNBOUND:                 1.310
REMARK  Name = No_4218-gen_results/8p0m/2024-11-27-11-27-31/
REMARK  4 active torsions:
REMARK  status: ('A' for Active; 'I' for Inactive)
REMARK    1  A    between atoms: C_3  and  C_7
REMARK    2  A    between atoms: C_7  and  C_8
REMARK    3  A    between atoms: C_7  and  C_9
REMARK    4  A    between atoms: C_14  and  C_15
REMARK                            x       y       z     vdW  Elec       q    Type
REMARK                         _______ _______ _______ _____ _____    ______ ____
ROOT
ATOM      1  C   UNL A   1     -24.388  -0.546  29.554  0.00  0.00    +0.119 C 
ATOM      2 CL   UNL A   1     -24.508   0.109  30.321  0.00  0.00    -0.103 Cl
ENDROOT
BRANCH   1   5
ATOM      3  C   UNL A   1     -25.900  -2.415  29.986  0.00  0.00    -0.003 A 
ATOM      4  C   UNL A   1     -26.155  -3.432  29.876  0.00  0.00    -0.000 A 
ATOM      5  C   UNL A   1     -24.638  -1.997  29.509  0.00  0.00    -0.002 A 
ATOM      6  C   UNL A   1     -23.749  -2.878  28.927  0.00  0.00    -0.003 A 
ATOM      7  C   UNL A   1     -25.403  -4.562  29.297  0.00  0.00    -0.000 A 
ATOM      8  C   UNL A   1     -24.187  -4.205  28.829  0.00  0.00    -0.000 A 
ENDBRANCH   1   5
BRANCH   1   9
ATOM      9  C   UNL A   1     -23.753   0.012  28.430  0.00  0.00    -0.004 A 
ATOM     10  C   UNL A   1     -22.446   0.601  28.602  0.00  0.00    -0.003 A 
ATOM     11  C   UNL A   1     -21.922   1.493  27.615  0.00  0.00    -0.000 A 
ATOM     12  C   UNL A   1     -22.734   1.825  26.496  0.00  0.00    -0.000 A 
ATOM     13  C   UNL A   1     -24.063   1.360  26.430  0.00  0.00    -0.003 A 
ATOM     14  C   UNL A   1     -24.582   0.613  27.407  0.00  0.00    -0.008 A 
BRANCH  14  15
ATOM     15  C   UNL A   1     -25.919   0.153  27.426  0.00  0.00    +0.121 C 
ATOM     16 CL   UNL A   1     -26.237  -0.044  26.878  0.00  0.00    -0.108 Cl
ENDBRANCH  14  15
ENDBRANCH   1   9
BRANCH   1  17
ATOM     17  C   UNL A   1     -23.622  -0.093  30.773  0.00  0.00    -0.023 C 
ATOM     18  C   UNL A   1     -24.229   0.808  31.658  0.00  0.00    -0.007 C 
ATOM     19  C   UNL A   1     -23.697  -1.124  32.050  0.00  0.00    +0.028 C 
ENDBRANCH   1  17
TORSDOF 4
ENDMDL
ENDMDL
