MODEL 4219
MODEL 1
REMARK VINA RESULT:    -6.379      0.000      0.000
REMARK INTER + INTRA:          -8.998
REMARK INTER:                  -8.244
REMARK INTRA:                  -0.754
REMARK UNBOUND:                -0.754
REMARK  Name = No_4219-gen_results/8p0m/2024-11-27-11-27-31/
REMARK  5 active torsions:
REMARK  status: ('A' for Active; 'I' for Inactive)
REMARK    1  A    between atoms: C_3  and  C_8
REMARK    2  A    between atoms: C_6  and  O_7
REMARK    3  A    between atoms: O_7  and  C_15
REMARK    4  A    between atoms: C_15  and  C_16
REMARK    5  A    between atoms: C_16  and  C_17
REMARK                            x       y       z     vdW  Elec       q    Type
REMARK                         _______ _______ _______ _____ _____    ______ ____
ROOT
ATOM      1  C   UNL A   1     -29.979 -11.542  26.029  0.00  0.00    +0.037 A 
ATOM      2  C   UNL A   1     -29.807 -11.040  27.115  0.00  0.00    +0.003 A 
ATOM      3  C   UNL A   1     -29.537 -11.774  28.270  0.00  0.00    +0.000 A 
ATOM      4  C   UNL A   1     -29.515 -13.222  28.197  0.00  0.00    +0.003 A 
ATOM      5  C   UNL A   1     -29.734 -13.737  26.899  0.00  0.00    +0.037 A 
ATOM      6  C   UNL A   1     -29.986 -12.966  25.872  0.00  0.00    +0.139 A 
ENDROOT
BRANCH   3   7
ATOM      7  C   UNL A   1     -29.312 -11.224  29.646  0.00  0.00    -0.000 A 
ATOM      8  C   UNL A   1     -30.076 -10.327  30.203  0.00  0.00    -0.000 A 
ATOM      9  C   UNL A   1     -29.870  -9.926  31.572  0.00  0.00    -0.000 A 
ATOM     10  C   UNL A   1     -28.949 -10.693  32.370  0.00  0.00    -0.004 A 
ATOM     11  C   UNL A   1     -28.458 -11.976  30.541  0.00  0.00    -0.004 A 
ATOM     12  C   UNL A   1     -28.242 -11.628  31.818  0.00  0.00    -0.022 A 
ATOM     13  C   UNL A   1     -27.174 -12.414  32.447  0.00  0.00    +0.031 C 
ENDBRANCH   3   7
BRANCH   6  14
ATOM     14  O   UNL A   1     -30.234 -13.577  24.675  0.00  0.00    -0.475 OA
BRANCH  14  15
ATOM     15  C   UNL A   1     -31.204 -13.052  23.838  0.00  0.00    +0.210 C 
BRANCH  15  16
ATOM     16  C   UNL A   1     -31.027 -13.128  22.581  0.00  0.00    +0.073 C 
BRANCH  16  17
ATOM     17  C   UNL A   1     -29.951 -12.582  22.103  0.00  0.00    -0.027 C 
ATOM     18  C   UNL A   1     -29.390 -13.037  20.816  0.00  0.00    -0.030 C 
ATOM     19  C   UNL A   1     -28.084 -12.748  20.383  0.00  0.00    +0.030 C 
ENDBRANCH  16  17
ENDBRANCH  15  16
ENDBRANCH  14  15
ENDBRANCH   6  14
TORSDOF 5
ENDMDL
ENDMDL
