MODEL 421
MODEL 1
REMARK VINA RESULT:    -6.260      0.000      0.000
REMARK INTER + INTRA:          -8.438
REMARK INTER:                  -7.724
REMARK INTRA:                  -0.714
REMARK UNBOUND:                -0.714
REMARK  Name = No_421-gen_results/8p0m/2024-11-27-11-27-31/
REMARK  4 active torsions:
REMARK  status: ('A' for Active; 'I' for Inactive)
REMARK    1  A    between atoms: C_2  and  N_7
REMARK    2  A    between atoms: N_7  and  C_8
REMARK    3  A    between atoms: C_9  and  C_10
REMARK    4  A    between atoms: C_11  and  C_13
REMARK                            x       y       z     vdW  Elec       q    Type
REMARK                         _______ _______ _______ _____ _____    ______ ____
ROOT
ATOM      1  C   UNL A   1     -24.073  -0.498  28.562  0.00  0.00    +0.212 C 
ATOM      2  C   UNL A   1     -24.573   0.214  27.729  0.00  0.00    +0.047 C 
ATOM      3  F   UNL A   1     -22.457  -0.425  28.525  0.00  0.00    -0.186 F 
ENDROOT
BRANCH   2   4
ATOM      4  C   UNL A   1     -23.885   1.192  26.832  0.00  0.00    +0.005 C 
ATOM      5  C   UNL A   1     -24.375   1.226  25.506  0.00  0.00    +0.045 C 
BRANCH   5   6
ATOM      6  C   UNL A   1     -25.460   0.406  25.163  0.00  0.00    +0.341 C 
ATOM      7  F   UNL A   1     -25.187  -0.731  24.435  0.00  0.00    -0.193 F 
ATOM      8  F   UNL A   1     -25.744   0.334  24.189  0.00  0.00    -0.193 F 
ENDBRANCH   5   6
ENDBRANCH   2   4
BRANCH   1   9
ATOM      9  N   UNL A   1     -24.516  -1.293  29.360  0.00  0.00    -0.186 NA
BRANCH   9  11
ATOM     10  C   UNL A   1     -25.874  -3.139  29.691  0.00  0.00    +0.017 A 
ATOM     11  C   UNL A   1     -24.846  -2.649  29.285  0.00  0.00    +0.073 A 
ATOM     12  C   UNL A   1     -23.869  -3.429  28.677  0.00  0.00    +0.017 A 
ATOM     13  C   UNL A   1     -24.031  -4.855  28.553  0.00  0.00    +0.001 A 
ATOM     14  C   UNL A   1     -25.238  -5.342  29.070  0.00  0.00    +0.000 A 
ATOM     15  C   UNL A   1     -26.122  -4.564  29.651  0.00  0.00    +0.001 A 
ENDBRANCH   9  11
ENDBRANCH   1   9
TORSDOF 4
ENDMDL
ENDMDL
