REMARK  Name = No_422-gen_results/8p0m/2024-11-27-11-27-31/
REMARK  3 active torsions:
REMARK  status: ('A' for Active; 'I' for Inactive)
REMARK    1  A    between atoms: C_3  and  C_7
REMARK    2  A    between atoms: C_7  and  O_9
REMARK    3  A    between atoms: O_9  and  C_10
REMARK                            x       y       z     vdW  Elec       q    Type
REMARK                         _______ _______ _______ _____ _____    ______ ____
ROOT
ATOM      1  C   UNL A   1     -26.317   0.399  27.365  0.00  0.00    +0.346 C 
ATOM      2  O   UNL A   1     -26.899   0.582  26.403  0.00  0.00    -0.244 OA
ENDROOT
BRANCH   1   5
ATOM      3  C   UNL A   1     -28.016  -0.814  28.878  0.00  0.00    +0.006 A 
ATOM      4  C   UNL A   1     -28.469  -0.785  29.829  0.00  0.00    +0.000 A 
ATOM      5  C   UNL A   1     -27.087   0.290  28.638  0.00  0.00    +0.076 A 
ATOM      6  C   UNL A   1     -26.832   1.249  29.587  0.00  0.00    +0.006 A 
ATOM      7  C   UNL A   1     -28.391   0.080  31.006  0.00  0.00    +0.000 A 
ATOM      8  C   UNL A   1     -27.494   1.152  30.784  0.00  0.00    +0.000 A 
ENDBRANCH   1   5
BRANCH   1   9
ATOM      9  O   UNL A   1     -24.983   0.325  27.430  0.00  0.00    -0.421 OA
BRANCH   9  10
ATOM     10  C   UNL A   1     -24.241   1.366  26.954  0.00  0.00    +0.149 A 
ATOM     11  C   UNL A   1     -23.003   1.545  27.717  0.00  0.00    +0.038 A 
ATOM     12  C   UNL A   1     -21.975   2.379  27.168  0.00  0.00    +0.003 A 
ATOM     13  C   UNL A   1     -22.217   2.680  25.817  0.00  0.00    +0.000 A 
ATOM     14  C   UNL A   1     -23.317   2.314  25.096  0.00  0.00    +0.003 A 
ATOM     15  C   UNL A   1     -24.289   1.645  25.668  0.00  0.00    +0.038 A 
ENDBRANCH   9  10
ENDBRANCH   1   9
TORSDOF 3
