MODEL 4220
MODEL 1
REMARK VINA RESULT:    -5.302      0.000      0.000
REMARK INTER + INTRA:          -5.700
REMARK INTER:                  -5.611
REMARK INTRA:                  -0.089
REMARK UNBOUND:                -0.089
REMARK  Name = No_4220-gen_results/8p0m/2024-11-27-11-27-31/
REMARK  1 active torsions:
REMARK  status: ('A' for Active; 'I' for Inactive)
REMARK    1  A    between atoms: C_2  and  C_3
REMARK                            x       y       z     vdW  Elec       q    Type
REMARK                         _______ _______ _______ _____ _____    ______ ____
ROOT
ATOM      1  C   UNL A   1     -24.245  -2.661  29.029  0.00  0.00    +0.055 A 
ATOM      2  C   UNL A   1     -25.590  -2.484  29.522  0.00  0.00    +0.005 A 
ATOM      3  C   UNL A   1     -26.456  -3.490  29.924  0.00  0.00    +0.000 A 
ATOM      4  C   UNL A   1     -26.126  -4.880  29.572  0.00  0.00    +0.000 A 
ATOM      5  C   UNL A   1     -24.895  -5.128  29.023  0.00  0.00    +0.000 A 
ATOM      6  C   UNL A   1     -23.999  -4.166  28.781  0.00  0.00    +0.005 A 
ENDROOT
BRANCH   1   8
ATOM      7  O   UNL A   1     -22.370  -1.620  28.986  0.00  0.00    -0.268 OA
ATOM      8  C   UNL A   1     -23.579  -1.871  28.920  0.00  0.00    +0.265 C 
ATOM      9  N   UNL A   1     -24.330  -0.625  28.216  0.00  0.00    -0.200 NA
ATOM     10  C   UNL A   1     -23.425   0.463  27.797  0.00  0.00    +0.139 C 
ENDBRANCH   1   8
TORSDOF 1
ENDMDL
ENDMDL
