MODEL 4221
MODEL 1
REMARK VINA RESULT:    -6.035      0.000      0.000
REMARK INTER + INTRA:          -8.756
REMARK INTER:                  -7.446
REMARK INTRA:                  -1.309
REMARK UNBOUND:                -1.309
REMARK  Name = No_4221-gen_results/8p0m/2024-11-27-11-27-31/
REMARK  4 active torsions:
REMARK  status: ('A' for Active; 'I' for Inactive)
REMARK    1  A    between atoms: C_4  and  C_6
REMARK    2  A    between atoms: C_8  and  C_9
REMARK    3  A    between atoms: C_10  and  C_11
REMARK    4  A    between atoms: C_12  and  C_13
REMARK                            x       y       z     vdW  Elec       q    Type
REMARK                         _______ _______ _______ _____ _____    ______ ____
ROOT
ATOM      1  C   UNL A   1     -25.309  -1.229  29.729  0.00  0.00    +0.000 C 
ATOM      2  C   UNL A   1     -25.762  -0.370  28.912  0.00  0.00    +0.000 C 
ENDROOT
BRANCH   1   6
ATOM      3  C   UNL A   1     -24.074  -4.662  28.655  0.00  0.00    +0.000 A 
ATOM      4  C   UNL A   1     -24.906  -5.235  28.955  0.00  0.00    +0.000 A 
ATOM      5  C   UNL A   1     -24.118  -3.268  28.881  0.00  0.00    +0.000 A 
ATOM      6  C   UNL A   1     -25.210  -2.656  29.462  0.00  0.00    +0.000 A 
ATOM      7  C   UNL A   1     -26.177  -4.838  29.591  0.00  0.00    +0.000 A 
ATOM      8  C   UNL A   1     -26.257  -3.493  29.832  0.00  0.00    +0.000 A 
ENDBRANCH   1   6
BRANCH   2   9
ATOM      9  C   UNL A   1     -25.553  -0.403  27.585  0.00  0.00    +0.000 C 
ATOM     10  C   UNL A   1     -24.430   0.158  27.045  0.00  0.00    +0.000 C 
BRANCH  10  11
ATOM     11  C   UNL A   1     -23.707   1.303  27.313  0.00  0.00    +0.000 C 
ATOM     12  C   UNL A   1     -22.466   1.295  27.938  0.00  0.00    +0.000 C 
BRANCH  12  13
ATOM     13  C   UNL A   1     -22.048   0.054  28.439  0.00  0.00    +0.000 C 
ATOM     14  C   UNL A   1     -21.888  -0.261  29.709  0.00  0.00    +0.000 C 
ENDBRANCH  12  13
ENDBRANCH  10  11
ENDBRANCH   2   9
TORSDOF 4
ENDMDL
ENDMDL
