MODEL 4222
MODEL 1
REMARK VINA RESULT:    -6.526      0.000      0.000
REMARK INTER + INTRA:          -6.953
REMARK INTER:                  -6.908
REMARK INTRA:                  -0.045
REMARK UNBOUND:                -0.045
REMARK  Name = No_4222-gen_results/8p0m/2024-11-27-11-27-31/
REMARK  1 active torsions:
REMARK  status: ('A' for Active; 'I' for Inactive)
REMARK    1  A    between atoms: C_5  and  O_7
REMARK                            x       y       z     vdW  Elec       q    Type
REMARK                         _______ _______ _______ _____ _____    ______ ____
ROOT
ATOM      1  C   UNL A   1     -25.588  -0.554  29.554  0.00  0.00    +0.003 A 
ATOM      2  C   UNL A   1     -24.657  -1.026  28.943  0.00  0.00    +0.000 A 
ATOM      3  C   UNL A   1     -23.721  -0.297  28.230  0.00  0.00    +0.003 A 
ATOM      4  C   UNL A   1     -23.854   1.123  28.247  0.00  0.00    +0.037 A 
ATOM      5  C   UNL A   1     -24.810   1.620  29.058  0.00  0.00    +0.139 A 
ATOM      6  C   UNL A   1     -25.608   0.825  29.774  0.00  0.00    +0.037 A 
ATOM      7  C   UNL A   1     -24.626  -2.566  28.954  0.00  0.00    +0.000 A 
ATOM      8  C   UNL A   1     -23.938  -3.283  28.603  0.00  0.00    +0.000 A 
ATOM      9  C   UNL A   1     -24.029  -4.775  28.525  0.00  0.00    +0.000 A 
ATOM     10  C   UNL A   1     -25.132  -5.306  29.156  0.00  0.00    +0.000 A 
ATOM     11  C   UNL A   1     -25.895  -3.175  29.540  0.00  0.00    +0.000 A 
ATOM     12  C   UNL A   1     -26.863  -2.343  30.048  0.00  0.00    +0.000 A 
ATOM     13  C   UNL A   1     -25.992  -4.541  29.614  0.00  0.00    +0.000 A 
ATOM     14  C   UNL A   1     -26.715  -1.187  30.185  0.00  0.00    +0.000 A 
ENDROOT
BRANCH   5  15
ATOM     15  O   UNL A   1     -24.883   2.980  29.127  0.00  0.00    -0.471 OA
ATOM     16  C   UNL A   1     -25.687   3.644  28.330  0.00  0.00    +0.253 C 
ENDBRANCH   5  15
TORSDOF 1
ENDMDL
ENDMDL
