MODEL 4223
MODEL 1
REMARK VINA RESULT:    -6.542      0.000      0.000
REMARK INTER + INTRA:          -8.126
REMARK INTER:                  -7.690
REMARK INTRA:                  -0.436
REMARK UNBOUND:                -0.436
REMARK  Name = No_4223-gen_results/8p0m/2024-11-27-11-27-31/
REMARK  3 active torsions:
REMARK  status: ('A' for Active; 'I' for Inactive)
REMARK    1  A    between atoms: C_3  and  C_7
REMARK    2  A    between atoms: C_6  and  C_13
REMARK    3  A    between atoms: C_8  and  C_16
REMARK                            x       y       z     vdW  Elec       q    Type
REMARK                         _______ _______ _______ _____ _____    ______ ____
ROOT
ATOM      1  C   UNL A   1     -25.198  -3.144  28.933  0.00  0.00    +0.007 A 
ATOM      2  C   UNL A   1     -24.532  -2.334  28.332  0.00  0.00    +0.000 A 
ATOM      3  C   UNL A   1     -24.764  -0.959  28.374  0.00  0.00    +0.000 A 
ATOM      4  C   UNL A   1     -25.896  -0.458  29.129  0.00  0.00    +0.000 A 
ATOM      5  C   UNL A   1     -26.648  -1.427  29.791  0.00  0.00    +0.007 A 
ATOM      6  C   UNL A   1     -26.364  -2.711  29.687  0.00  0.00    +0.080 A 
ENDROOT
BRANCH   3   7
ATOM      7  C   UNL A   1     -23.983   0.097  27.669  0.00  0.00    +0.006 A 
ATOM      8  C   UNL A   1     -22.770   0.511  28.107  0.00  0.00    +0.080 A 
ATOM      9  C   UNL A   1     -22.080   1.534  27.449  0.00  0.00    +0.007 A 
ATOM     10  C   UNL A   1     -22.610   2.154  26.270  0.00  0.00    +0.000 A 
ATOM     11  C   UNL A   1     -24.447   0.797  26.529  0.00  0.00    +0.000 A 
ATOM     12  C   UNL A   1     -23.790   1.776  25.884  0.00  0.00    +0.000 A 
BRANCH   8  13
ATOM     13  C   UNL A   1     -22.088  -0.148  29.266  0.00  0.00    +0.388 C 
ATOM     14  O   UNL A   1     -21.316  -1.115  29.068  0.00  0.00    -0.241 OA
ATOM     15  O   UNL A   1     -22.553   0.007  30.476  0.00  0.00    -0.241 OA
ENDBRANCH   8  13
ENDBRANCH   3   7
BRANCH   6  16
ATOM     16  C   UNL A   1     -27.262  -3.675  30.387  0.00  0.00    +0.388 C 
ATOM     17  O   UNL A   1     -27.316  -4.745  30.084  0.00  0.00    -0.241 OA
ATOM     18  O   UNL A   1     -28.249  -3.106  31.113  0.00  0.00    -0.241 OA
ENDBRANCH   6  16
TORSDOF 3
ENDMDL
ENDMDL
