REMARK  Name = outputs/IAG933/test6/raw/output_4224_IAG933_linker_design_.xyz
REMARK  13 active torsions:
REMARK  status: ('A' for Active; 'I' for Inactive)
REMARK    1  A    between atoms: C_1  and  C_2
REMARK    2  A    between atoms: C_1  and  C_8
REMARK    3  A    between atoms: C_14  and  C_15
REMARK    4  A    between atoms: C_15  and  O_18
REMARK    5  A    between atoms: O_18  and  C_40
REMARK    6  A    between atoms: C_21  and  O_22
REMARK    7  A    between atoms: O_22  and  C_23
REMARK    8  A    between atoms: C_23  and  C_24
REMARK    9  A    between atoms: C_28  and  O_33
REMARK   10  A    between atoms: C_29  and  C_35
REMARK   11  A    between atoms: O_33  and  C_36
REMARK   12  A    between atoms: C_36  and  O_42
REMARK   13  A    between atoms: C_37  and  O_42
REMARK                            x       y       z     vdW  Elec       q    Type
REMARK                         _______ _______ _______ _____ _____    ______ ____
ROOT
ATOM      1  C   UNL A   1     -25.387  -0.679  31.571  0.00  0.00    +0.097 C 
ATOM      2  C   UNL A   1     -25.189   0.773  32.028  0.00  0.00    -0.011 C 
ATOM      3  C   UNL A   1     -25.336   0.684  33.544  0.00  0.00    +0.043 C 
ATOM      4  C   UNL A   1     -24.829  -0.715  33.905  0.00  0.00    +0.093 C 
ATOM      5  N   UNL A   1     -24.758  -1.481  32.646  0.00  0.00    -0.215 NA
ATOM      6  C   UNL A   1     -24.688   2.300  29.991  0.00  0.00    +0.242 C 
ATOM      7  N   UNL A   1     -25.251   3.128  32.164  0.00  0.00    -0.215 NA
ATOM      8  C   UNL A   1     -25.570   4.302  31.589  0.00  0.00    +0.236 C 
ATOM      9  O   UNL A   1     -25.809   4.367  30.251  0.00  0.00    -0.425 OA
ATOM     10  C   UNL A   1     -25.194   3.469  29.451  0.00  0.00    +0.377 C 
ATOM     11  C   UNL A   1     -25.003   2.028  31.409  0.00  0.00    +0.090 C 
ENDROOT
BRANCH   8  12
ATOM     12  C   UNL A   1     -25.230   5.521  32.287  0.00  0.00    +0.236 C 
ATOM     13  C   UNL A   1     -25.251   6.678  31.283  0.00  0.00    +0.048 C 
ATOM     14  F   UNL A   1     -23.920   5.039  32.500  0.00  0.00    -0.227 F 
ENDBRANCH   8  12
BRANCH   1  15
ATOM     15  C   UNL A   1     -24.855  -1.012  30.143  0.00  0.00    +0.048 C 
BRANCH  15  16
ATOM     16  C   UNL A   1     -24.973  -2.505  29.788  0.00  0.00    -0.021 C 
ATOM     17  C   UNL A   1     -23.906  -3.173  29.146  0.00  0.00    -0.004 C 
ATOM     18  C   UNL A   1     -23.989  -4.549  28.853  0.00  0.00    -0.000 C 
ATOM     19  C   UNL A   1     -25.137  -5.280  29.205  0.00  0.00    -0.000 C 
ATOM     20  C   UNL A   1     -26.232  -4.611  29.784  0.00  0.00    -0.000 C 
ATOM     21  C   UNL A   1     -26.155  -3.232  30.065  0.00  0.00    -0.004 C 
ENDBRANCH  15  16
ENDBRANCH   1  15
BRANCH  10  22
ATOM     22  O   UNL A   1     -25.143   3.966  28.243  0.00  0.00    -0.424 OA
BRANCH  22  23
ATOM     23  C   UNL A   1     -25.642   4.093  27.123  0.00  0.00    +0.225 C 
ATOM     24  N   UNL A   1     -25.614   5.252  26.449  0.00  0.00    -0.236 NA
ATOM     25  C   UNL A   1     -25.026   6.479  26.963  0.00  0.00    +0.155 C 
BRANCH  23  27
ATOM     26  C   UNL A   1     -25.688   1.614  26.461  0.00  0.00    +0.041 C 
ATOM     27  C   UNL A   1     -26.250   2.920  26.395  0.00  0.00    +0.074 C 
ATOM     28  C   UNL A   1     -27.438   3.091  25.645  0.00  0.00    +0.107 C 
ATOM     29  N   UNL A   1     -28.075   2.089  25.003  0.00  0.00    -0.208 NA
ATOM     30  C   UNL A   1     -27.543   0.849  25.079  0.00  0.00    +0.253 C 
ATOM     31  C   UNL A   1     -26.354   0.576  25.777  0.00  0.00    +0.193 C 
ATOM     32  F   UNL A   1     -25.860  -0.681  25.795  0.00  0.00    -0.199 F 
BRANCH  30  33
ATOM     33  O   UNL A   1     -28.193  -0.208  24.477  0.00  0.00    -0.456 OA
BRANCH  33  34
ATOM     34  C   UNL A   1     -29.460   0.005  23.866  0.00  0.00    +0.243 C 
BRANCH  34  35
ATOM     35  C   UNL A   1     -30.065  -1.377  23.573  0.00  0.00    +0.229 C 
ATOM     36  O   UNL A   1     -30.729  -1.878  24.721  0.00  0.00    -0.216 OA
ENDBRANCH  34  35
ENDBRANCH  33  34
ENDBRANCH  30  33
ENDBRANCH  23  27
ENDBRANCH  22  23
ENDBRANCH  10  22
BRANCH   6  37
ATOM     37  O   UNL A   1     -23.653   1.413  29.574  0.00  0.00    -0.304 OA
BRANCH  37  38
ATOM     38  C   UNL A   1     -22.557   0.577  29.055  0.00  0.00    +0.363 C 
BRANCH  38  39
ATOM     39  O   UNL A   1     -22.685   0.433  27.597  0.00  0.00    -0.419 OA
BRANCH  39  41
ATOM     40  C   UNL A   1     -20.742   1.768  27.640  0.00  0.00    +0.121 C 
ATOM     41  C   UNL A   1     -22.013   1.424  26.867  0.00  0.00    +0.320 C 
ATOM     42  O   UNL A   1     -22.325   1.994  25.852  0.00  0.00    -0.250 OA
ENDBRANCH  39  41
ENDBRANCH  38  39
ENDBRANCH  37  38
ENDBRANCH   6  37
TORSDOF 13
