MODEL 4224
MODEL 1
REMARK VINA RESULT:    -7.551      0.000      0.000
REMARK INTER + INTRA:         -14.683
REMARK INTER:                 -11.524
REMARK INTRA:                  -3.159
REMARK UNBOUND:                -3.159
REMARK  Name = No_4224-gen_results/8p0m/2024-11-27-11-27-31/
REMARK  9 active torsions:
REMARK  status: ('A' for Active; 'I' for Inactive)
REMARK    1  A    between atoms: C_2  and  C_11
REMARK    2  A    between atoms: C_3  and  C_7
REMARK    3  A    between atoms: C_6  and  C_14
REMARK    4  A    between atoms: N_15  and  C_17
REMARK    5  A    between atoms: C_17  and  C_18
REMARK    6  A    between atoms: C_23  and  C_24
REMARK    7  A    between atoms: C_25  and  O_30
REMARK    8  A    between atoms: O_30  and  C_31
REMARK    9  A    between atoms: C_32  and  C_33
REMARK                            x       y       z     vdW  Elec       q    Type
REMARK                         _______ _______ _______ _____ _____    ______ ____
ROOT
ATOM      1  C   UNL A   1     -23.132  -0.157  29.233  0.00  0.00    +0.002 A 
ATOM      2  C   UNL A   1     -22.637   0.876  28.790  0.00  0.00    -0.002 A 
ATOM      3  C   UNL A   1     -23.080   1.515  27.599  0.00  0.00    -0.000 A 
ATOM      4  C   UNL A   1     -24.028   0.756  26.817  0.00  0.00    -0.000 A 
ATOM      5  C   UNL A   1     -24.545  -0.413  27.251  0.00  0.00    -0.000 A 
ATOM      6  C   UNL A   1     -24.143  -0.960  28.486  0.00  0.00    +0.001 A 
ENDROOT
BRANCH   6   7
ATOM      7  C   UNL A   1     -24.653  -2.225  28.929  0.00  0.00    +0.034 A 
ATOM      8  C   UNL A   1     -25.783  -2.324  29.520  0.00  0.00    +0.145 A 
ATOM      9  C   UNL A   1     -26.300  -3.597  30.001  0.00  0.00    +0.037 A 
ATOM     10  C   UNL A   1     -25.739  -4.818  29.470  0.00  0.00    +0.003 A 
ATOM     11  C   UNL A   1     -24.535  -4.592  28.951  0.00  0.00    +0.000 A 
ATOM     12  C   UNL A   1     -23.974  -3.369  28.530  0.00  0.00    +0.003 A 
BRANCH   8  13
ATOM     13  O   UNL A   1     -26.517  -1.270  29.991  0.00  0.00    -0.450 OA
BRANCH  13  14
ATOM     14  C   UNL A   1     -27.385  -0.511  29.289  0.00  0.00    +0.179 C 
ATOM     15  C   UNL A   1     -27.232   0.817  29.568  0.00  0.00    +0.040 C 
BRANCH  15  16
ATOM     16  C   UNL A   1     -27.584   1.684  28.568  0.00  0.00    -0.001 C 
ATOM     17  C   UNL A   1     -26.834   2.847  28.326  0.00  0.00    -0.026 C 
ATOM     18  C   UNL A   1     -25.773   3.236  29.281  0.00  0.00    +0.031 C 
ENDBRANCH  15  16
ENDBRANCH  13  14
ENDBRANCH   8  13
ENDBRANCH   6   7
BRANCH   1  19
ATOM     19  C   UNL A   1     -22.797  -0.598  30.464  0.00  0.00    +0.154 C 
BRANCH  19  21
ATOM     20  C   UNL A   1     -23.728  -0.955  32.525  0.00  0.00    +0.218 C 
ATOM     21  N   UNL A   1     -23.687  -0.490  31.531  0.00  0.00    -0.239 NA
ATOM     22  F   UNL A   1     -22.748  -1.729  32.948  0.00  0.00    -0.184 F 
BRANCH  20  28
ATOM     23  C   UNL A   1     -26.374  -0.288  35.820  0.00  0.00    +0.010 A 
ATOM     24  C   UNL A   1     -25.397  -0.677  35.900  0.00  0.00    +0.080 A 
ATOM     25  C   UNL A   1     -26.770   0.021  34.446  0.00  0.00    +0.072 A 
ATOM     26  C   UNL A   1     -25.937  -0.203  33.378  0.00  0.00    +0.008 A 
ATOM     27  C   UNL A   1     -24.320  -1.017  34.970  0.00  0.00    +0.010 A 
ATOM     28  C   UNL A   1     -24.694  -0.721  33.638  0.00  0.00    +0.046 A 
BRANCH  25  29
ATOM     29  C   UNL A   1     -28.130   0.542  34.125  0.00  0.00    +0.419 C 
ATOM     30  F   UNL A   1     -28.311   0.892  33.005  0.00  0.00    -0.166 F 
ATOM     31  F   UNL A   1     -29.103  -0.473  34.374  0.00  0.00    -0.166 F 
ATOM     32  F   UNL A   1     -28.594   1.393  35.086  0.00  0.00    -0.166 F 
ENDBRANCH  25  29
BRANCH  24  33
ATOM     33  C   UNL A   1     -24.884  -1.141  37.377  0.00  0.00    +0.388 C 
ATOM     34  O   UNL A   1     -23.913  -0.612  37.938  0.00  0.00    -0.241 OA
ATOM     35  O   UNL A   1     -25.700  -1.707  38.174  0.00  0.00    -0.241 OA
ENDBRANCH  24  33
ENDBRANCH  20  28
ENDBRANCH  19  21
ENDBRANCH   1  19
TORSDOF 9
ENDMDL
ENDMDL
