MODEL 4225
MODEL 1
REMARK VINA RESULT:    -6.964      0.000      0.000
REMARK INTER + INTRA:          -8.233
REMARK INTER:                  -7.778
REMARK INTRA:                  -0.455
REMARK UNBOUND:                -0.455
REMARK  Name = No_4225-gen_results/8p0m/2024-11-27-11-27-31/
REMARK  2 active torsions:
REMARK  status: ('A' for Active; 'I' for Inactive)
REMARK    1  A    between atoms: C_2  and  C_7
REMARK    2  A    between atoms: C_4  and  C_10
REMARK                            x       y       z     vdW  Elec       q    Type
REMARK                         _______ _______ _______ _____ _____    ______ ____
ROOT
ATOM      1  C   UNL A   1     -23.998   0.513  27.496  0.00  0.00    +0.006 A 
ATOM      2  C   UNL A   1     -23.031   0.647  27.891  0.00  0.00    +0.068 A 
ATOM      3  C   UNL A   1     -24.651  -0.776  27.775  0.00  0.00    +0.000 A 
ATOM      4  C   UNL A   1     -24.044  -1.720  28.654  0.00  0.00    +0.000 A 
ATOM      5  C   UNL A   1     -22.216  -0.134  28.861  0.00  0.00    +0.006 A 
ATOM      6  C   UNL A   1     -22.784  -1.342  29.137  0.00  0.00    +0.000 A 
ENDROOT
BRANCH   4   7
ATOM      7  C   UNL A   1     -24.650  -2.984  28.951  0.00  0.00    +0.000 A 
ATOM      8  C   UNL A   1     -24.380  -3.950  28.865  0.00  0.00    +0.000 A 
ATOM      9  C   UNL A   1     -26.058  -2.786  29.596  0.00  0.00    +0.000 A 
ATOM     10  C   UNL A   1     -26.776  -3.970  29.939  0.00  0.00    +0.000 A 
ATOM     11  C   UNL A   1     -24.987  -5.247  29.085  0.00  0.00    +0.000 A 
ATOM     12  C   UNL A   1     -26.231  -5.144  29.702  0.00  0.00    +0.000 A 
ENDBRANCH   4   7
BRANCH   2  13
ATOM     13  C   UNL A   1     -22.297   2.038  27.627  0.00  0.00    +0.333 C 
ATOM     14  O   UNL A   1     -22.984   2.886  27.388  0.00  0.00    -0.254 OA
ATOM     15  F   UNL A   1     -21.053   2.071  27.216  0.00  0.00    -0.159 F 
ENDBRANCH   2  13
TORSDOF 2
ENDMDL
ENDMDL
