REMARK  Name = No_4225-gen_results/8p0m/2024-11-27-11-27-31/
REMARK  2 active torsions:
REMARK  status: ('A' for Active; 'I' for Inactive)
REMARK    1  A    between atoms: C_2  and  C_7
REMARK    2  A    between atoms: C_4  and  C_10
REMARK                            x       y       z     vdW  Elec       q    Type
REMARK                         _______ _______ _______ _____ _____    ______ ____
ROOT
ATOM      1  C   UNL A   1     -28.016  -0.814  28.878  0.00  0.00    +0.006 A 
ATOM      2  C   UNL A   1     -28.469  -0.785  29.829  0.00  0.00    +0.068 A 
ATOM      3  C   UNL A   1     -26.546  -0.876  28.850  0.00  0.00    +0.000 A 
ATOM      4  C   UNL A   1     -25.804  -1.032  30.057  0.00  0.00    +0.000 A 
ATOM      5  C   UNL A   1     -27.944  -0.987  31.207  0.00  0.00    +0.006 A 
ATOM      6  C   UNL A   1     -26.582  -1.039  31.223  0.00  0.00    +0.000 A 
ENDROOT
BRANCH   4   7
ATOM      7  C   UNL A   1     -24.373  -1.099  30.070  0.00  0.00    +0.000 A 
ATOM      8  C   UNL A   1     -23.684  -1.687  30.508  0.00  0.00    +0.000 A 
ATOM      9  C   UNL A   1     -23.758   0.000  29.147  0.00  0.00    +0.000 A 
ATOM     10  C   UNL A   1     -22.334   0.048  29.072  0.00  0.00    +0.000 A 
ATOM     11  C   UNL A   1     -22.239  -1.742  30.603  0.00  0.00    +0.000 A 
ATOM     12  C   UNL A   1     -21.624  -0.815  29.767  0.00  0.00    +0.000 A 
ENDBRANCH   4   7
BRANCH   2  13
ATOM     13  C   UNL A   1     -30.061  -0.737  29.902  0.00  0.00    +0.333 C 
ATOM     14  O   UNL A   1     -30.552  -0.277  29.011  0.00  0.00    -0.254 OA
ATOM     15  F   UNL A   1     -30.678  -0.739  31.059  0.00  0.00    -0.159 F 
ENDBRANCH   2  13
TORSDOF 2
