REMARK  Name = outputs/IAG933/test6/raw/output_4227_IAG933_linker_design_.xyz
REMARK  13 active torsions:
REMARK  status: ('A' for Active; 'I' for Inactive)
REMARK    1  A    between atoms: C_1  and  C_2
REMARK    2  A    between atoms: C_1  and  C_8
REMARK    3  A    between atoms: C_1  and  N_35
REMARK    4  A    between atoms: C_13  and  N_44
REMARK    5  A    between atoms: C_14  and  C_15
REMARK    6  A    between atoms: C_21  and  O_22
REMARK    7  A    between atoms: O_22  and  C_23
REMARK    8  A    between atoms: C_23  and  C_24
REMARK    9  A    between atoms: C_28  and  C_39
REMARK   10  A    between atoms: C_28  and  O_40
REMARK   11  A    between atoms: C_30  and  C_41
REMARK   12  A    between atoms: O_40  and  C_41
REMARK   13  A    between atoms: C_41  and  C_43
REMARK                            x       y       z     vdW  Elec       q    Type
REMARK                         _______ _______ _______ _____ _____    ______ ____
ROOT
ATOM      1  C   UNL A   1     -26.559   1.515  29.263  0.00  0.00    -0.022 C 
ATOM      2  C   UNL A   1     -27.817   2.012  29.614  0.00  0.00    +0.054 C 
ATOM      3  C   UNL A   1     -22.550   1.178  28.300  0.00  0.00    +0.148 C 
ATOM      4  C   UNL A   1     -21.036   1.233  27.955  0.00  0.00    +0.017 C 
ATOM      5  N   UNL A   1     -24.508   0.035  29.259  0.00  0.00    -0.186 N 
ATOM      6  O   UNL A   1     -23.044   1.999  26.201  0.00  0.00    -0.247 OA
ATOM      7  C   UNL A   1     -25.387   0.943  28.722  0.00  0.00    +0.315 C 
ATOM      8  C   UNL A   1     -23.441   1.445  27.264  0.00  0.00    +0.317 C 
ATOM      9  N   UNL A   1     -24.793   1.301  27.464  0.00  0.00    -0.135 N 
ATOM     10  C   UNL A   1     -22.947   0.102  29.133  0.00  0.00    +0.214 C 
ENDROOT
BRANCH   9  11
ATOM     11  C   UNL A   1     -25.688   1.614  26.461  0.00  0.00    +0.238 C 
ATOM     12  C   UNL A   1     -26.250   2.920  26.395  0.00  0.00    +0.098 C 
ATOM     13  C   UNL A   1     -27.438   3.091  25.645  0.00  0.00    +0.106 C 
ATOM     14  N   UNL A   1     -28.075   2.089  25.003  0.00  0.00    -0.212 NA
ATOM     15  C   UNL A   1     -27.543   0.849  25.079  0.00  0.00    +0.238 C 
ATOM     16  C   UNL A   1     -26.354   0.576  25.777  0.00  0.00    +0.283 C 
ATOM     17  F   UNL A   1     -25.860  -0.681  25.795  0.00  0.00    -0.222 F 
BRANCH  12  18
ATOM     18  C   UNL A   1     -25.642   4.093  27.123  0.00  0.00    +0.266 C 
ATOM     19  N   UNL A   1     -25.614   5.252  26.449  0.00  0.00    -0.200 NA
ATOM     20  C   UNL A   1     -25.026   6.479  26.963  0.00  0.00    +0.139 C 
ATOM     21  O   UNL A   1     -25.143   3.966  28.243  0.00  0.00    -0.269 OA
ENDBRANCH  12  18
BRANCH  15  22
ATOM     22  O   UNL A   1     -28.193  -0.208  24.477  0.00  0.00    -0.458 OA
BRANCH  22  23
ATOM     23  C   UNL A   1     -29.460   0.005  23.866  0.00  0.00    +0.242 C 
BRANCH  23  24
ATOM     24  C   UNL A   1     -30.065  -1.377  23.573  0.00  0.00    +0.229 C 
ATOM     25  O   UNL A   1     -30.729  -1.878  24.721  0.00  0.00    -0.216 OA
ENDBRANCH  23  24
ENDBRANCH  22  23
ENDBRANCH  15  22
ENDBRANCH   9  11
BRANCH   5  26
ATOM     26  C   UNL A   1     -24.855  -1.012  30.143  0.00  0.00    +0.199 C 
BRANCH  26  27
ATOM     27  C   UNL A   1     -24.973  -2.505  29.788  0.00  0.00    +0.021 C 
ATOM     28  C   UNL A   1     -23.906  -3.173  29.146  0.00  0.00    -0.000 C 
ATOM     29  C   UNL A   1     -23.989  -4.549  28.853  0.00  0.00    -0.000 C 
ATOM     30  C   UNL A   1     -25.137  -5.280  29.205  0.00  0.00    -0.000 C 
ATOM     31  C   UNL A   1     -26.232  -4.611  29.784  0.00  0.00    -0.000 C 
ATOM     32  C   UNL A   1     -26.155  -3.232  30.065  0.00  0.00    -0.000 C 
ENDBRANCH  26  27
BRANCH  26  33
ATOM     33  C   UNL A   1     -25.387  -0.679  31.571  0.00  0.00    +0.120 C 
ATOM     34  C   UNL A   1     -25.189   0.773  32.028  0.00  0.00    +0.023 C 
ATOM     35  C   UNL A   1     -25.336   0.684  33.544  0.00  0.00    +0.020 C 
ATOM     36  C   UNL A   1     -24.829  -0.715  33.905  0.00  0.00    +0.089 C 
ATOM     37  N   UNL A   1     -24.758  -1.481  32.646  0.00  0.00    -0.215 NA
ENDBRANCH  26  33
ENDBRANCH   5  26
BRANCH   2  38
ATOM     38  C   UNL A   1     -28.059   3.474  29.696  0.00  0.00    +0.179 C 
BRANCH  38  40
ATOM     39  O   UNL A   1     -26.510   4.429  31.172  0.00  0.00    -0.217 OA
ATOM     40  C   UNL A   1     -27.924   4.193  31.031  0.00  0.00    +0.217 C 
ENDBRANCH  38  40
BRANCH  38  41
ATOM     41  O   UNL A   1     -29.311   3.757  29.037  0.00  0.00    -0.336 OA
BRANCH  41  42
ATOM     42  C   UNL A   1     -30.199   2.790  28.676  0.00  0.00    +0.277 C 
BRANCH  42  45
ATOM     43  N   UNL A   1     -30.879   2.946  31.074  0.00  0.00    +0.202 NA
ATOM     44  N   UNL A   1     -30.526   0.878  30.138  0.00  0.00    +0.202 NA
ATOM     45  C   UNL A   1     -30.590   2.152  29.974  0.00  0.00    +0.483 C 
ENDBRANCH  42  45
ENDBRANCH  41  42
ENDBRANCH  38  41
ENDBRANCH   2  38
TORSDOF 13
