MODEL 4228
MODEL 1
REMARK VINA RESULT:    -6.717      0.000      0.000
REMARK INTER + INTRA:         -13.933
REMARK INTER:                 -11.036
REMARK INTRA:                  -2.897
REMARK UNBOUND:                -2.897
REMARK  Name = No_4228-gen_results/8p0m/2024-11-27-11-27-31/
REMARK  11 active torsions:
REMARK  status: ('A' for Active; 'I' for Inactive)
REMARK    1  A    between atoms: C_1  and  C_2
REMARK    2  A    between atoms: C_1  and  C_8
REMARK    3  A    between atoms: C_5  and  C_11
REMARK    4  A    between atoms: C_7  and  P_16
REMARK    5  A    between atoms: C_8  and  O_10
REMARK    6  A    between atoms: O_10  and  C_20
REMARK    7  A    between atoms: C_20  and  C_21
REMARK    8  A    between atoms: C_20  and  C_24
REMARK    9  A    between atoms: C_21  and  O_23
REMARK   10  A    between atoms: O_23  and  C_26
REMARK   11  A    between atoms: N_32  and  C_33
REMARK                            x       y       z     vdW  Elec       q    Type
REMARK                         _______ _______ _______ _____ _____    ______ ____
ROOT
ATOM      1  C   UNL A   1     -22.547   1.431  27.548  0.00  0.00    +0.322 C 
ATOM      2  O   UNL A   1     -21.410   1.649  27.715  0.00  0.00    -0.250 OA
ENDROOT
BRANCH   1   3
ATOM      3  C   UNL A   1     -23.136   1.918  26.263  0.00  0.00    +0.136 C 
BRANCH   3   4
ATOM      4  C   UNL A   1     -24.264   1.525  26.073  0.00  0.00    -0.009 A 
ATOM      5  C   UNL A   1     -24.562   0.323  25.461  0.00  0.00    -0.003 A 
ATOM      6  C   UNL A   1     -25.759   0.148  24.771  0.00  0.00    +0.007 A 
ATOM      7  C   UNL A   1     -26.846   1.114  24.848  0.00  0.00    +0.090 A 
ATOM      8  C   UNL A   1     -26.549   2.306  25.528  0.00  0.00    +0.010 A 
ATOM      9  C   UNL A   1     -25.298   2.490  26.032  0.00  0.00    +0.026 A 
BRANCH   7  10
ATOM     10  C   UNL A   1     -28.179   0.790  24.372  0.00  0.00    +0.398 C 
ATOM     11  N   UNL A   1     -29.152   1.682  24.475  0.00  0.00    -0.025 NA
ATOM     12  N   UNL A   1     -28.480  -0.444  23.948  0.00  0.00    +0.086 NA
ATOM     13  C   UNL A   1     -30.361   1.129  23.910  0.00  0.00    +0.435 C 
ATOM     14  N   UNL A   1     -29.883  -0.104  23.573  0.00  0.00    -0.001 NA
ENDBRANCH   7  10
BRANCH   9  15
ATOM     15  P   UNL A   1     -25.059   4.165  26.715  0.00  0.00    +0.139 P 
ATOM     16  O   UNL A   1     -24.694   4.058  28.026  0.00  0.00    -0.354 OA
ATOM     17  O   UNL A   1     -24.339   4.977  25.738  0.00  0.00    -0.456 OA
ATOM     18  O   UNL A   1     -26.649   4.522  26.622  0.00  0.00    -0.354 OA
ENDBRANCH   9  15
ENDBRANCH   3   4
ENDBRANCH   1   3
BRANCH   1  19
ATOM     19  O   UNL A   1     -23.377   0.844  28.319  0.00  0.00    -0.431 OA
BRANCH  19  20
ATOM     20  C   UNL A   1     -23.143   0.849  29.663  0.00  0.00    +0.343 C 
BRANCH  20  21
ATOM     21  C   UNL A   1     -23.020  -0.605  30.196  0.00  0.00    +0.297 C 
ATOM     22  O   UNL A   1     -22.499  -0.749  31.222  0.00  0.00    -0.268 OA
ATOM     23  N   UNL A   1     -23.551  -1.551  29.456  0.00  0.00    -0.175 NA
BRANCH  23  24
ATOM     24  C   UNL A   1     -23.665  -2.684  29.622  0.00  0.00    +0.084 C 
ATOM     25  C   UNL A   1     -24.083  -3.446  28.659  0.00  0.00    -0.008 C 
ATOM     26  C   UNL A   1     -24.292  -4.868  28.646  0.00  0.00    +0.032 C 
ENDBRANCH  23  24
ENDBRANCH  20  21
BRANCH  20  27
ATOM     27  C   UNL A   1     -23.955   1.406  30.241  0.00  0.00    +0.372 C 
ATOM     28  O   UNL A   1     -23.879   2.447  30.764  0.00  0.00    -0.245 OA
BRANCH  27  29
ATOM     29  O   UNL A   1     -25.254   0.921  30.497  0.00  0.00    -0.420 OA
BRANCH  29  30
ATOM     30  C   UNL A   1     -26.358   1.018  29.763  0.00  0.00    +0.168 A 
ATOM     31  C   UNL A   1     -26.770   0.168  28.944  0.00  0.00    +0.041 A 
ATOM     32  C   UNL A   1     -27.999   0.261  28.276  0.00  0.00    +0.024 A 
ATOM     33  C   UNL A   1     -27.081   2.229  29.626  0.00  0.00    +0.136 A 
ATOM     34  N   UNL A   1     -28.142   2.479  28.952  0.00  0.00    -0.239 NA
ATOM     35  C   UNL A   1     -28.619   1.480  28.244  0.00  0.00    +0.099 A 
ENDBRANCH  29  30
ENDBRANCH  27  29
ENDBRANCH  20  27
ENDBRANCH  19  20
ENDBRANCH   1  19
TORSDOF 11
ENDMDL
ENDMDL
