REMARK  Name = outputs/IAG933/test6/raw/output_4228_IAG933_linker_design_.xyz
REMARK  16 active torsions:
REMARK  status: ('A' for Active; 'I' for Inactive)
REMARK    1  A    between atoms: C_1  and  C_2
REMARK    2  A    between atoms: C_1  and  C_8
REMARK    3  A    between atoms: C_1  and  C_51
REMARK    4  A    between atoms: C_13  and  C_39
REMARK    5  A    between atoms: C_14  and  C_15
REMARK    6  A    between atoms: C_21  and  O_22
REMARK    7  A    between atoms: O_22  and  C_23
REMARK    8  A    between atoms: C_23  and  C_24
REMARK    9  A    between atoms: C_35  and  N_40
REMARK   10  A    between atoms: C_35  and  C_50
REMARK   11  A    between atoms: C_39  and  N_40
REMARK   12  A    between atoms: N_40  and  C_51
REMARK   13  A    between atoms: C_42  and  C_44
REMARK   14  A    between atoms: C_43  and  C_45
REMARK   15  A    between atoms: C_43  and  C_50
REMARK   16  A    between atoms: C_44  and  C_51
REMARK                            x       y       z     vdW  Elec       q    Type
REMARK                         _______ _______ _______ _____ _____    ______ ____
ROOT
ATOM      1  N   UNL A   1     -25.158   0.674  28.497  0.00  0.00    -0.270 NA
ENDROOT
BRANCH   1   2
ATOM      2  C   UNL A   1     -26.538   0.528  28.612  0.00  0.00    +0.073 C 
BRANCH   2   3
ATOM      3  C   UNL A   1     -27.851   0.356  28.420  0.00  0.00    +0.022 C 
BRANCH   3   4
ATOM      4  C   UNL A   1     -28.994   1.455  28.019  0.00  0.00    +0.029 C 
BRANCH   4  15
ATOM      5  C   UNL A   1     -28.878   6.332  31.282  0.00  0.00    +0.054 C 
ATOM      6  C   UNL A   1     -28.345   5.691  32.604  0.00  0.00    +0.119 C 
ATOM      7  C   UNL A   1     -29.167   5.264  30.238  0.00  0.00    +0.096 C 
ATOM      8  C   UNL A   1     -29.782   4.035  28.157  0.00  0.00    +0.021 C 
ATOM      9  C   UNL A   1     -29.217   4.673  33.277  0.00  0.00    +0.032 C 
ATOM     10  O   UNL A   1     -27.090   4.837  32.531  0.00  0.00    -0.339 OA
ATOM     11  C   UNL A   1     -27.862   4.616  30.054  0.00  0.00    +0.007 C 
ATOM     12  N   UNL A   1     -29.979   5.004  29.081  0.00  0.00    -0.307 N 
ATOM     13  C   UNL A   1     -26.701   5.579  30.381  0.00  0.00    +0.217 C 
ATOM     14  C   UNL A   1     -30.469   4.306  26.788  0.00  0.00    +0.047 C 
ATOM     15  C   UNL A   1     -28.934   2.922  28.630  0.00  0.00    -0.013 C 
ATOM     16  C   UNL A   1     -28.018   3.207  29.701  0.00  0.00    -0.008 C 
ATOM     17  C   UNL A   1     -31.033   6.026  28.920  0.00  0.00    +0.112 C 
ATOM     18  N   UNL A   1     -25.211   5.959  32.230  0.00  0.00    -0.097 NA
ATOM     19  O   UNL A   1     -25.527   5.768  29.765  0.00  0.00    -0.214 OA
ATOM     20  C   UNL A   1     -26.188   5.176  31.710  0.00  0.00    +0.241 C 
ENDBRANCH   4  15
ENDBRANCH   3   4
ENDBRANCH   2   3
ENDBRANCH   1   2
BRANCH   1  21
ATOM     21  C   UNL A   1     -24.532   1.268  27.350  0.00  0.00    +0.102 C 
BRANCH  21  22
ATOM     22  C   UNL A   1     -25.688   1.614  26.461  0.00  0.00    +0.032 C 
ATOM     23  C   UNL A   1     -26.250   2.920  26.395  0.00  0.00    +0.074 C 
ATOM     24  C   UNL A   1     -27.438   3.091  25.645  0.00  0.00    +0.106 C 
ATOM     25  N   UNL A   1     -28.075   2.089  25.003  0.00  0.00    -0.208 NA
ATOM     26  C   UNL A   1     -27.543   0.849  25.079  0.00  0.00    +0.253 C 
ATOM     27  C   UNL A   1     -26.354   0.576  25.777  0.00  0.00    +0.190 C 
ATOM     28  F   UNL A   1     -25.860  -0.681  25.795  0.00  0.00    -0.200 F 
BRANCH  23  29
ATOM     29  C   UNL A   1     -25.642   4.093  27.123  0.00  0.00    +0.266 C 
ATOM     30  N   UNL A   1     -25.614   5.252  26.449  0.00  0.00    -0.200 NA
ATOM     31  C   UNL A   1     -25.026   6.479  26.963  0.00  0.00    +0.139 C 
ATOM     32  O   UNL A   1     -25.143   3.966  28.243  0.00  0.00    -0.268 OA
ENDBRANCH  23  29
BRANCH  26  33
ATOM     33  O   UNL A   1     -28.193  -0.208  24.477  0.00  0.00    -0.456 OA
BRANCH  33  34
ATOM     34  C   UNL A   1     -29.460   0.005  23.866  0.00  0.00    +0.243 C 
BRANCH  34  35
ATOM     35  C   UNL A   1     -30.065  -1.377  23.573  0.00  0.00    +0.229 C 
ATOM     36  O   UNL A   1     -30.729  -1.878  24.721  0.00  0.00    -0.216 OA
ENDBRANCH  34  35
ENDBRANCH  33  34
ENDBRANCH  26  33
ENDBRANCH  21  22
ENDBRANCH   1  21
BRANCH   1  37
ATOM     37  C   UNL A   1     -24.253   0.055  29.256  0.00  0.00    +0.063 C 
BRANCH  37  38
ATOM     38  C   UNL A   1     -24.855  -1.012  30.143  0.00  0.00    +0.053 C 
BRANCH  38  39
ATOM     39  C   UNL A   1     -24.973  -2.505  29.788  0.00  0.00    -0.020 C 
ATOM     40  C   UNL A   1     -23.906  -3.173  29.146  0.00  0.00    -0.004 C 
ATOM     41  C   UNL A   1     -23.989  -4.549  28.853  0.00  0.00    -0.000 C 
ATOM     42  C   UNL A   1     -25.137  -5.280  29.205  0.00  0.00    -0.000 C 
ATOM     43  C   UNL A   1     -26.232  -4.611  29.784  0.00  0.00    -0.000 C 
ATOM     44  C   UNL A   1     -26.155  -3.232  30.065  0.00  0.00    -0.004 C 
ENDBRANCH  38  39
BRANCH  38  45
ATOM     45  C   UNL A   1     -25.387  -0.679  31.571  0.00  0.00    +0.078 C 
ATOM     46  C   UNL A   1     -25.189   0.773  32.028  0.00  0.00    +0.019 C 
ATOM     47  C   UNL A   1     -25.336   0.684  33.544  0.00  0.00    +0.020 C 
ATOM     48  C   UNL A   1     -24.829  -0.715  33.905  0.00  0.00    +0.089 C 
ATOM     49  N   UNL A   1     -24.758  -1.481  32.646  0.00  0.00    -0.219 NA
ENDBRANCH  38  45
ENDBRANCH  37  38
BRANCH  37  50
ATOM     50  C   UNL A   1     -22.716   0.105  29.081  0.00  0.00    +0.016 C 
BRANCH  50  52
ATOM     51  C   UNL A   1     -21.178   1.381  27.553  0.00  0.00    +0.000 C 
ATOM     52  C   UNL A   1     -22.146   1.504  28.724  0.00  0.00    +0.001 C 
ENDBRANCH  50  52
ENDBRANCH  37  50
ENDBRANCH   1  37
TORSDOF 16
