REMARK  Name = outputs/IAG933/test6/raw/output_423_IAG933_linker_design_.xyz
REMARK  16 active torsions:
REMARK  status: ('A' for Active; 'I' for Inactive)
REMARK    1  A    between atoms: C_1  and  C_2
REMARK    2  A    between atoms: C_1  and  C_8
REMARK    3  A    between atoms: C_1  and  C_41
REMARK    4  A    between atoms: C_13  and  N_44
REMARK    5  A    between atoms: C_14  and  C_15
REMARK    6  A    between atoms: C_21  and  O_22
REMARK    7  A    between atoms: O_22  and  C_23
REMARK    8  A    between atoms: C_23  and  C_24
REMARK    9  A    between atoms: C_31  and  C_41
REMARK   10  A    between atoms: C_31  and  N_44
REMARK   11  A    between atoms: C_33  and  C_38
REMARK   12  A    between atoms: N_34  and  C_35
REMARK   13  A    between atoms: N_34  and  C_41
REMARK   14  A    between atoms: C_36  and  C_38
REMARK   15  A    between atoms: C_38  and  C_45
REMARK   16  A    between atoms: N_44  and  C_46
REMARK                            x       y       z     vdW  Elec       q    Type
REMARK                         _______ _______ _______ _____ _____    ______ ____
ROOT
ATOM      1  C   UNL A   1     -25.572  -0.026  29.208  0.00  0.00    +0.098 C 
ENDROOT
BRANCH   1   2
ATOM      2  C   UNL A   1     -24.855  -1.012  30.143  0.00  0.00    +0.056 C 
BRANCH   2   3
ATOM      3  C   UNL A   1     -24.973  -2.505  29.788  0.00  0.00    -0.020 C 
ATOM      4  C   UNL A   1     -23.906  -3.173  29.146  0.00  0.00    -0.004 C 
ATOM      5  C   UNL A   1     -23.989  -4.549  28.853  0.00  0.00    -0.000 C 
ATOM      6  C   UNL A   1     -25.137  -5.280  29.205  0.00  0.00    -0.000 C 
ATOM      7  C   UNL A   1     -26.232  -4.611  29.784  0.00  0.00    -0.000 C 
ATOM      8  C   UNL A   1     -26.155  -3.232  30.065  0.00  0.00    -0.004 C 
ENDBRANCH   2   3
BRANCH   2   9
ATOM      9  C   UNL A   1     -25.387  -0.679  31.571  0.00  0.00    +0.078 C 
ATOM     10  C   UNL A   1     -25.189   0.773  32.028  0.00  0.00    +0.019 C 
ATOM     11  C   UNL A   1     -25.336   0.684  33.544  0.00  0.00    +0.020 C 
ATOM     12  C   UNL A   1     -24.829  -0.715  33.905  0.00  0.00    +0.089 C 
ATOM     13  N   UNL A   1     -24.758  -1.481  32.646  0.00  0.00    -0.219 NA
ENDBRANCH   2   9
ENDBRANCH   1   2
BRANCH   1  14
ATOM     14  C   UNL A   1     -24.810   1.216  28.733  0.00  0.00    +0.111 C 
BRANCH  14  15
ATOM     15  N   UNL A   1     -24.715   1.383  27.316  0.00  0.00    -0.281 N 
BRANCH  15  16
ATOM     16  C   UNL A   1     -25.688   1.614  26.461  0.00  0.00    +0.088 C 
ATOM     17  C   UNL A   1     -26.250   2.920  26.395  0.00  0.00    +0.090 C 
ATOM     18  C   UNL A   1     -27.438   3.091  25.645  0.00  0.00    +0.108 C 
ATOM     19  N   UNL A   1     -28.075   2.089  25.003  0.00  0.00    -0.208 NA
ATOM     20  C   UNL A   1     -27.543   0.849  25.079  0.00  0.00    +0.255 C 
ATOM     21  C   UNL A   1     -26.354   0.576  25.777  0.00  0.00    +0.206 C 
ATOM     22  F   UNL A   1     -25.860  -0.681  25.795  0.00  0.00    -0.198 F 
BRANCH  17  23
ATOM     23  C   UNL A   1     -25.642   4.093  27.123  0.00  0.00    +0.268 C 
ATOM     24  N   UNL A   1     -25.614   5.252  26.449  0.00  0.00    -0.200 NA
ATOM     25  C   UNL A   1     -25.026   6.479  26.963  0.00  0.00    +0.139 C 
ATOM     26  O   UNL A   1     -25.143   3.966  28.243  0.00  0.00    -0.268 OA
ENDBRANCH  17  23
BRANCH  20  27
ATOM     27  O   UNL A   1     -28.193  -0.208  24.477  0.00  0.00    -0.456 OA
BRANCH  27  28
ATOM     28  C   UNL A   1     -29.460   0.005  23.866  0.00  0.00    +0.243 C 
BRANCH  28  29
ATOM     29  C   UNL A   1     -30.065  -1.377  23.573  0.00  0.00    +0.229 C 
ATOM     30  O   UNL A   1     -30.729  -1.878  24.721  0.00  0.00    -0.216 OA
ENDBRANCH  28  29
ENDBRANCH  27  28
ENDBRANCH  20  27
ENDBRANCH  15  16
BRANCH  15  35
ATOM     31  O   UNL A   1     -21.599   2.094  26.909  0.00  0.00    -0.322 OA
ATOM     32  C   UNL A   1     -22.091   2.133  25.555  0.00  0.00    +0.295 C 
ATOM     33  O   UNL A   1     -23.406   1.671  25.651  0.00  0.00    -0.307 OA
ATOM     34  C   UNL A   1     -22.204   1.265  27.764  0.00  0.00    +0.196 C 
ATOM     35  C   UNL A   1     -23.470   1.086  26.945  0.00  0.00    +0.225 C 
ENDBRANCH  15  35
ENDBRANCH  14  15
ENDBRANCH   1  14
BRANCH   1  36
ATOM     36  N   UNL A   1     -26.684  -0.521  28.426  0.00  0.00    -0.212 NA
BRANCH  36  38
ATOM     37  C   UNL A   1     -28.626  -0.059  30.220  0.00  0.00    -0.012 C 
ATOM     38  C   UNL A   1     -27.970  -0.651  28.959  0.00  0.00    +0.124 C 
ATOM     39  C   UNL A   1     -29.765  -0.616  30.894  0.00  0.00    -0.005 C 
ATOM     40  C   UNL A   1     -29.206  -0.832  28.348  0.00  0.00    +0.164 C 
ATOM     41  O   UNL A   1     -29.996  -1.742  28.774  0.00  0.00    -0.347 OA
ATOM     42  C   UNL A   1     -30.191  -2.004  30.167  0.00  0.00    +0.165 C 
BRANCH  39  43
ATOM     43  C   UNL A   1     -30.398  -0.277  32.009  0.00  0.00    +0.157 C 
BRANCH  43  45
ATOM     44  O   UNL A   1     -32.593  -1.346  32.314  0.00  0.00    -0.245 OA
ATOM     45  C   UNL A   1     -31.984  -0.264  32.231  0.00  0.00    +0.371 C 
ATOM     46  O   UNL A   1     -32.555   0.769  32.277  0.00  0.00    -0.245 OA
ENDBRANCH  43  45
BRANCH  43  48
ATOM     47  O   UNL A   1     -28.336  -0.493  33.339  0.00  0.00    -0.220 OA
ATOM     48  C   UNL A   1     -29.678  -0.991  33.114  0.00  0.00    +0.197 C 
ENDBRANCH  43  48
ENDBRANCH  39  43
ENDBRANCH  36  38
ENDBRANCH   1  36
TORSDOF 16
