MODEL 4230
MODEL 1
REMARK VINA RESULT:    -7.635      0.000      0.000
REMARK INTER + INTRA:         -11.623
REMARK INTER:                  -9.866
REMARK INTRA:                  -1.757
REMARK UNBOUND:                -1.757
REMARK  Name = No_4230-gen_results/8p0m/2024-11-27-11-27-31/
REMARK  5 active torsions:
REMARK  status: ('A' for Active; 'I' for Inactive)
REMARK    1  A    between atoms: C_2  and  C_13
REMARK    2  A    between atoms: C_4  and  C_6
REMARK    3  A    between atoms: C_13  and  O_14
REMARK    4  A    between atoms: O_14  and  C_16
REMARK    5  A    between atoms: C_16  and  C_17
REMARK                            x       y       z     vdW  Elec       q    Type
REMARK                         _______ _______ _______ _____ _____    ______ ____
ROOT
ATOM      1  C   UNL A   1     -25.969   1.055  28.921  0.00  0.00    +0.006 A 
ATOM      2  C   UNL A   1     -25.010   1.449  28.731  0.00  0.00    +0.076 A 
ATOM      3  C   UNL A   1     -26.049  -0.453  29.001  0.00  0.00    +0.000 A 
ATOM      4  C   UNL A   1     -24.859  -1.211  28.965  0.00  0.00    +0.000 A 
ATOM      5  C   UNL A   1     -23.637   0.898  28.688  0.00  0.00    +0.006 A 
ATOM      6  C   UNL A   1     -23.666  -0.514  28.789  0.00  0.00    +0.000 A 
ENDROOT
BRANCH   4   7
ATOM      7  C   UNL A   1     -24.857  -2.622  29.047  0.00  0.00    +0.000 A 
ATOM      8  C   UNL A   1     -24.086  -3.319  28.641  0.00  0.00    +0.000 A 
ATOM      9  C   UNL A   1     -24.082  -4.795  28.656  0.00  0.00    +0.000 A 
ATOM     10  C   UNL A   1     -25.190  -5.328  29.181  0.00  0.00    +0.000 A 
ATOM     11  C   UNL A   1     -26.009  -3.285  29.677  0.00  0.00    +0.000 A 
ATOM     12  C   UNL A   1     -26.181  -4.577  29.692  0.00  0.00    +0.000 A 
ENDBRANCH   4   7
BRANCH   2  13
ATOM     13  C   UNL A   1     -24.912   3.059  28.583  0.00  0.00    +0.345 C 
ATOM     14  O   UNL A   1     -25.407   3.876  29.420  0.00  0.00    -0.245 OA
BRANCH  13  15
ATOM     15  O   UNL A   1     -24.317   3.334  27.650  0.00  0.00    -0.394 OA
BRANCH  15  16
ATOM     16  C   UNL A   1     -24.946   3.628  26.352  0.00  0.00    +0.432 C 
ATOM     17  F   UNL A   1     -25.986   4.438  26.630  0.00  0.00    -0.159 F 
ATOM     18  F   UNL A   1     -24.107   4.258  25.547  0.00  0.00    -0.159 F 
BRANCH  16  19
ATOM     19  C   UNL A   1     -25.326   2.379  25.709  0.00  0.00    +0.080 A 
ATOM     20  C   UNL A   1     -24.404   1.459  25.432  0.00  0.00    +0.005 A 
ATOM     21  C   UNL A   1     -24.816   0.183  24.841  0.00  0.00    -0.000 A 
ATOM     22  C   UNL A   1     -26.122  -0.103  24.682  0.00  0.00    -0.000 A 
ATOM     23  C   UNL A   1     -27.067   0.863  25.029  0.00  0.00    -0.000 A 
ATOM     24  C   UNL A   1     -26.669   2.056  25.555  0.00  0.00    +0.005 A 
ENDBRANCH  16  19
ENDBRANCH  15  16
ENDBRANCH  13  15
ENDBRANCH   2  13
TORSDOF 5
ENDMDL
ENDMDL
