MODEL 4231
MODEL 1
REMARK VINA RESULT:    -4.276      0.000      0.000
REMARK INTER + INTRA:          -4.276
REMARK INTER:                  -4.276
REMARK INTRA:                   0.000
REMARK UNBOUND:                 0.000
REMARK  Name = No_4231-gen_results/8p0m/2024-11-27-11-27-31/
REMARK  0 active torsions:
REMARK  status: ('A' for Active; 'I' for Inactive)
REMARK                            x       y       z     vdW  Elec       q    Type
REMARK                         _______ _______ _______ _____ _____    ______ ____
ROOT
ATOM      1  C   UNL A   1     -24.126  -4.868  28.614  0.00  0.00    +0.000 A 
ATOM      2  C   UNL A   1     -25.008  -5.290  29.007  0.00  0.00    +0.000 A 
ATOM      3  C   UNL A   1     -24.062  -3.413  28.749  0.00  0.00    +0.000 A 
ATOM      4  C   UNL A   1     -25.062  -2.692  29.353  0.00  0.00    +0.000 A 
ATOM      5  C   UNL A   1     -26.202  -4.789  29.688  0.00  0.00    +0.000 A 
ATOM      6  C   UNL A   1     -26.150  -3.381  29.824  0.00  0.00    +0.000 A 
ENDROOT
TORSDOF 0
ENDMDL
ENDMDL
