MODEL 4232
MODEL 1
REMARK VINA RESULT:    -7.924      0.000      0.000
REMARK INTER + INTRA:          -8.826
REMARK INTER:                  -8.388
REMARK INTRA:                  -0.438
REMARK UNBOUND:                -0.438
REMARK  Name = No_4232-gen_results/8p0m/2024-11-27-11-27-31/
REMARK  1 active torsions:
REMARK  status: ('A' for Active; 'I' for Inactive)
REMARK    1  A    between atoms: C_3  and  C_7
REMARK                            x       y       z     vdW  Elec       q    Type
REMARK                         _______ _______ _______ _____ _____    ______ ____
ROOT
ATOM      1  C   UNL A   1     -23.545  -1.341  28.848  0.00  0.00    +0.000 A 
ATOM      2  C   UNL A   1     -22.532  -1.120  29.343  0.00  0.00    +0.000 A 
ATOM      3  C   UNL A   1     -21.790   0.146  29.076  0.00  0.00    +0.000 A 
ATOM      4  C   UNL A   1     -24.067  -0.392  27.888  0.00  0.00    +0.000 A 
ATOM      5  C   UNL A   1     -23.410   0.723  27.445  0.00  0.00    +0.000 A 
ATOM      6  C   UNL A   1     -23.982   1.531  26.430  0.00  0.00    +0.000 A 
ATOM      7  C   UNL A   1     -22.169   0.973  28.083  0.00  0.00    +0.000 A 
ATOM      8  C   UNL A   1     -25.063   0.737  25.719  0.00  0.00    +0.000 A 
ATOM      9  C   UNL A   1     -25.212  -0.802  27.055  0.00  0.00    +0.000 A 
ATOM     10  C   UNL A   1     -25.667  -0.194  26.001  0.00  0.00    +0.000 A 
ENDROOT
BRANCH   1  13
ATOM     11  C   UNL A   1     -25.639  -2.382  29.833  0.00  0.00    +0.000 A 
ATOM     12  C   UNL A   1     -26.266  -3.224  29.926  0.00  0.00    +0.000 A 
ATOM     13  C   UNL A   1     -24.426  -2.574  29.091  0.00  0.00    +0.000 A 
ATOM     14  C   UNL A   1     -24.008  -3.773  28.674  0.00  0.00    +0.000 A 
ATOM     15  C   UNL A   1     -26.010  -4.614  29.573  0.00  0.00    +0.000 A 
ATOM     16  C   UNL A   1     -24.881  -4.812  28.906  0.00  0.00    +0.000 A 
ENDBRANCH   1  13
TORSDOF 1
ENDMDL
ENDMDL
