REMARK  Name = outputs/IAG933/test6/raw/output_4234_IAG933_linker_design_.xyz
REMARK  14 active torsions:
REMARK  status: ('A' for Active; 'I' for Inactive)
REMARK    1  A    between atoms: C_1  and  C_2
REMARK    2  A    between atoms: C_1  and  C_8
REMARK    3  A    between atoms: C_1  and  N_30
REMARK    4  A    between atoms: C_14  and  C_15
REMARK    5  A    between atoms: C_21  and  O_22
REMARK    6  A    between atoms: O_22  and  C_23
REMARK    7  A    between atoms: C_23  and  C_24
REMARK    8  A    between atoms: N_30  and  C_36
REMARK    9  A    between atoms: N_30  and  C_41
REMARK   10  A    between atoms: C_33  and  C_34
REMARK   11  A    between atoms: C_36  and  C_37
REMARK   12  A    between atoms: C_37  and  C_40
REMARK   13  A    between atoms: C_38  and  C_41
REMARK   14  A    between atoms: C_39  and  C_40
REMARK                            x       y       z     vdW  Elec       q    Type
REMARK                         _______ _______ _______ _____ _____    ______ ____
ROOT
ATOM      1  C   UNL A   1     -25.688   1.614  26.461  0.00  0.00    +0.059 C 
ATOM      2  C   UNL A   1     -26.250   2.920  26.395  0.00  0.00    +0.080 C 
ATOM      3  C   UNL A   1     -27.438   3.091  25.645  0.00  0.00    +0.107 C 
ATOM      4  N   UNL A   1     -28.075   2.089  25.003  0.00  0.00    -0.211 NA
ATOM      5  C   UNL A   1     -27.543   0.849  25.079  0.00  0.00    +0.239 C 
ATOM      6  C   UNL A   1     -26.354   0.576  25.777  0.00  0.00    +0.265 C 
ATOM      7  F   UNL A   1     -25.860  -0.681  25.795  0.00  0.00    -0.222 F 
ATOM      8  C   UNL A   1     -24.592   1.225  27.241  0.00  0.00    -0.106 C 
ATOM      9  C   UNL A   1     -23.637   1.134  27.453  0.00  0.00    +0.026 C 
ENDROOT
BRANCH   2  10
ATOM     10  C   UNL A   1     -25.642   4.093  27.123  0.00  0.00    +0.267 C 
ATOM     11  N   UNL A   1     -25.614   5.252  26.449  0.00  0.00    -0.200 NA
ATOM     12  C   UNL A   1     -25.026   6.479  26.963  0.00  0.00    +0.139 C 
ATOM     13  O   UNL A   1     -25.143   3.966  28.243  0.00  0.00    -0.268 OA
ENDBRANCH   2  10
BRANCH   9  15
ATOM     14  C   UNL A   1     -21.356   1.401  27.618  0.00  0.00    +0.008 C 
ATOM     15  C   UNL A   1     -22.363   1.592  26.869  0.00  0.00    +0.016 C 
BRANCH  14  16
ATOM     16  C   UNL A   1     -21.485   0.603  28.856  0.00  0.00    +0.208 C 
ATOM     17  O   UNL A   1     -22.664   0.027  29.238  0.00  0.00    -0.215 OA
ENDBRANCH  14  16
BRANCH  15  18
ATOM     18  C   UNL A   1     -22.392   2.114  25.434  0.00  0.00    +0.220 C 
ATOM     19  F   UNL A   1     -23.234   3.223  25.516  0.00  0.00    -0.229 F 
ENDBRANCH  15  18
ENDBRANCH   9  15
BRANCH   5  20
ATOM     20  O   UNL A   1     -28.193  -0.208  24.477  0.00  0.00    -0.458 OA
BRANCH  20  21
ATOM     21  C   UNL A   1     -29.460   0.005  23.866  0.00  0.00    +0.242 C 
BRANCH  21  22
ATOM     22  C   UNL A   1     -30.065  -1.377  23.573  0.00  0.00    +0.229 C 
ATOM     23  O   UNL A   1     -30.729  -1.878  24.721  0.00  0.00    -0.216 OA
ENDBRANCH  21  22
ENDBRANCH  20  21
ENDBRANCH   5  20
BRANCH   9  24
ATOM     24  C   UNL A   1     -23.946   0.479  28.444  0.00  0.00    +0.107 C 
BRANCH  24  25
ATOM     25  N   UNL A   1     -25.087   0.020  29.112  0.00  0.00    -0.261 NA
BRANCH  25  26
ATOM     26  C   UNL A   1     -24.855  -1.012  30.143  0.00  0.00    +0.097 C 
BRANCH  26  27
ATOM     27  C   UNL A   1     -24.973  -2.505  29.788  0.00  0.00    -0.006 C 
ATOM     28  C   UNL A   1     -23.906  -3.173  29.146  0.00  0.00    -0.003 C 
ATOM     29  C   UNL A   1     -23.989  -4.549  28.853  0.00  0.00    -0.000 C 
ATOM     30  C   UNL A   1     -25.137  -5.280  29.205  0.00  0.00    -0.000 C 
ATOM     31  C   UNL A   1     -26.232  -4.611  29.784  0.00  0.00    -0.000 C 
ATOM     32  C   UNL A   1     -26.155  -3.232  30.065  0.00  0.00    -0.003 C 
ENDBRANCH  26  27
BRANCH  26  33
ATOM     33  C   UNL A   1     -25.387  -0.679  31.571  0.00  0.00    +0.092 C 
ATOM     34  C   UNL A   1     -25.189   0.773  32.028  0.00  0.00    +0.021 C 
ATOM     35  C   UNL A   1     -25.336   0.684  33.544  0.00  0.00    +0.020 C 
ATOM     36  C   UNL A   1     -24.829  -0.715  33.905  0.00  0.00    +0.089 C 
ATOM     37  N   UNL A   1     -24.758  -1.481  32.646  0.00  0.00    -0.218 NA
ENDBRANCH  26  33
ENDBRANCH  25  26
BRANCH  25  38
ATOM     38  C   UNL A   1     -26.311   0.944  29.021  0.00  0.00    +0.100 C 
BRANCH  38  43
ATOM     39  C   UNL A   1     -29.848  -0.398  30.690  0.00  0.00    -0.000 C 
ATOM     40  C   UNL A   1     -29.127   0.549  31.358  0.00  0.00    -0.000 C 
ATOM     41  C   UNL A   1     -28.381  -0.311  28.785  0.00  0.00    -0.003 C 
ATOM     42  C   UNL A   1     -28.030   1.085  30.737  0.00  0.00    -0.003 C 
ATOM     43  C   UNL A   1     -27.604   0.604  29.478  0.00  0.00    -0.006 C 
ATOM     44  C   UNL A   1     -29.495  -0.809  29.414  0.00  0.00    -0.000 C 
ENDBRANCH  38  43
ENDBRANCH  25  38
ENDBRANCH  24  25
ENDBRANCH   9  24
TORSDOF 14
