MODEL 4234
MODEL 1
REMARK VINA RESULT:    -4.805      0.000      0.000
REMARK INTER + INTRA:          -5.081
REMARK INTER:                  -6.490
REMARK INTRA:                   1.409
REMARK UNBOUND:                 1.409
REMARK  Name = No_4234-gen_results/8p0m/2024-11-27-11-27-31/
REMARK  7 active torsions:
REMARK  status: ('A' for Active; 'I' for Inactive)
REMARK    1  A    between atoms: C_1  and  C_2
REMARK    2  A    between atoms: C_1  and  C_4
REMARK    3  A    between atoms: C_2  and  C_7
REMARK    4  A    between atoms: C_4  and  C_5
REMARK    5  A    between atoms: C_5  and  C_6
REMARK    6  A    between atoms: C_6  and  O_9
REMARK    7  A    between atoms: C_7  and  C_10
REMARK                            x       y       z     vdW  Elec       q    Type
REMARK                         _______ _______ _______ _____ _____    ______ ____
ROOT
ATOM      1  C   UNL A   1     -22.730   0.726  29.063  0.00  0.00    +0.098 C 
ATOM      2  N   UNL A   1     -23.180   1.586  29.933  0.00  0.00    -0.154 NA
ENDROOT
BRANCH   1   3
ATOM      3  C   UNL A   1     -22.417  -0.577  29.694  0.00  0.00    +0.259 C 
ATOM      4  C   UNL A   1     -23.111  -0.391  31.161  0.00  0.00    +0.053 C 
ATOM      5  F   UNL A   1     -22.539  -1.052  28.726  0.00  0.00    -0.223 F 
BRANCH   3   6
ATOM      6  C   UNL A   1     -23.444  -1.503  29.399  0.00  0.00    +0.399 C 
ATOM      7  O   UNL A   1     -23.169  -2.627  28.885  0.00  0.00    -0.242 OA
ATOM      8  O   UNL A   1     -24.826  -1.146  29.245  0.00  0.00    -0.242 OA
ENDBRANCH   3   6
ENDBRANCH   1   3
BRANCH   1   9
ATOM      9  C   UNL A   1     -22.359   1.033  27.954  0.00  0.00    +0.046 C 
BRANCH   9  10
ATOM     10  C   UNL A   1     -23.321   1.716  27.054  0.00  0.00    +0.009 C 
BRANCH  10  11
ATOM     11  C   UNL A   1     -24.442   1.040  26.646  0.00  0.00    +0.030 C 
BRANCH  11  12
ATOM     12  C   UNL A   1     -24.681   0.745  25.335  0.00  0.00    +0.115 C 
ATOM     13  C   UNL A   1     -25.556  -0.316  24.907  0.00  0.00    +0.032 C 
BRANCH  12  14
ATOM     14  O   UNL A   1     -25.601   1.135  25.223  0.00  0.00    -0.354 OA
ATOM     15  C   UNL A   1     -26.699   1.471  25.359  0.00  0.00    +0.174 C 
ENDBRANCH  12  14
ENDBRANCH  11  12
ENDBRANCH  10  11
ENDBRANCH   9  10
ENDBRANCH   1   9
TORSDOF 7
ENDMDL
ENDMDL
