MODEL 4235
MODEL 1
REMARK VINA RESULT:    -5.375      0.000      0.000
REMARK INTER + INTRA:          -6.242
REMARK INTER:                  -6.004
REMARK INTRA:                  -0.239
REMARK UNBOUND:                -0.239
REMARK  Name = No_4235-gen_results/8p0m/2024-11-27-11-27-31/
REMARK  2 active torsions:
REMARK  status: ('A' for Active; 'I' for Inactive)
REMARK    1  A    between atoms: C_3  and  C_7
REMARK    2  A    between atoms: C_8  and  C_10
REMARK                            x       y       z     vdW  Elec       q    Type
REMARK                         _______ _______ _______ _____ _____    ______ ____
ROOT
ATOM      1  C   UNL A   1     -26.366  -3.627  29.980  0.00  0.00    -0.000 A 
ATOM      2  C   UNL A   1     -25.693  -2.624  29.927  0.00  0.00    -0.000 A 
ATOM      3  C   UNL A   1     -24.441  -2.566  29.316  0.00  0.00    -0.001 A 
ATOM      4  C   UNL A   1     -23.871  -3.778  28.758  0.00  0.00    -0.000 A 
ATOM      5  C   UNL A   1     -24.673  -4.915  28.858  0.00  0.00    -0.000 A 
ATOM      6  C   UNL A   1     -25.843  -4.882  29.464  0.00  0.00    -0.000 A 
ENDROOT
BRANCH   3   7
ATOM      7  C   UNL A   1     -23.559  -1.369  29.205  0.00  0.00    -0.007 C 
ATOM      8  C   UNL A   1     -23.753  -0.450  28.307  0.00  0.00    -0.025 C 
ATOM      9  C   UNL A   1     -24.840  -0.375  27.417  0.00  0.00    +0.028 C 
BRANCH   8  10
ATOM     10  C   UNL A   1     -22.712   0.637  28.164  0.00  0.00    +0.131 C 
ATOM     11  N   UNL A   1     -22.936   1.768  28.785  0.00  0.00    -0.127 NA
ENDBRANCH   8  10
ENDBRANCH   3   7
TORSDOF 2
ENDMDL
ENDMDL
