MODEL 4236
MODEL 1
REMARK VINA RESULT:    -6.945      0.000      0.000
REMARK INTER + INTRA:         -10.573
REMARK INTER:                  -9.788
REMARK INTRA:                  -0.785
REMARK UNBOUND:                -0.785
REMARK  Name = No_4236-gen_results/8p0m/2024-11-27-11-27-31/
REMARK  7 active torsions:
REMARK  status: ('A' for Active; 'I' for Inactive)
REMARK    1  A    between atoms: C_1  and  C_2
REMARK    2  A    between atoms: C_1  and  N_8
REMARK    3  A    between atoms: C_5  and  C_19
REMARK    4  A    between atoms: N_8  and  C_9
REMARK    5  A    between atoms: C_9  and  C_18
REMARK    6  A    between atoms: C_10  and  C_11
REMARK    7  A    between atoms: C_11  and  C_12
REMARK                            x       y       z     vdW  Elec       q    Type
REMARK                         _______ _______ _______ _____ _____    ______ ____
ROOT
ATOM      1  C   UNL A   1      -9.355   1.576  35.126  0.00  0.00    +0.160 C 
ATOM      2  C   UNL A   1      -8.803   0.614  35.259  0.00  0.00    +0.003 C 
ENDROOT
BRANCH   1   3
ATOM      3  C   UNL A   1      -9.629   2.093  33.778  0.00  0.00    +0.491 C 
ATOM      4  N   UNL A   1      -9.102   2.918  33.121  0.00  0.00    +0.206 NA
ATOM      5  N   UNL A   1     -10.575   1.298  33.065  0.00  0.00    +0.206 NA
ENDBRANCH   1   3
BRANCH   1   6
ATOM      6  N   UNL A   1     -10.154   2.163  35.957  0.00  0.00    -0.226 NA
BRANCH   6   7
ATOM      7  C   UNL A   1     -11.154   1.521  36.630  0.00  0.00    +0.139 C 
BRANCH   7   8
ATOM      8  C   UNL A   1     -12.230   2.073  36.645  0.00  0.00    -0.001 A 
ATOM      9  C   UNL A   1     -12.923   2.368  37.803  0.00  0.00    -0.002 A 
ATOM     10  C   UNL A   1     -14.248   2.956  37.870  0.00  0.00    +0.006 A 
ATOM     11  C   UNL A   1     -14.911   3.278  36.665  0.00  0.00    +0.080 A 
ATOM     12  C   UNL A   1     -14.204   2.962  35.449  0.00  0.00    +0.006 A 
ATOM     13  C   UNL A   1     -12.964   2.370  35.409  0.00  0.00    -0.002 A 
BRANCH  11  14
ATOM     14  C   UNL A   1     -16.227   3.838  36.610  0.00  0.00    +0.388 C 
ATOM     15  O   UNL A   1     -16.744   4.027  35.663  0.00  0.00    -0.241 OA
ATOM     16  O   UNL A   1     -16.802   3.889  37.828  0.00  0.00    -0.241 OA
ENDBRANCH  11  14
ENDBRANCH   7   8
ENDBRANCH   6   7
ENDBRANCH   1   6
BRANCH   2  17
ATOM     17  C   UNL A   1      -8.154  -0.193  34.725  0.00  0.00    +0.054 C 
BRANCH  17  18
ATOM     18  C   UNL A   1      -7.113  -0.674  34.676  0.00  0.00    -0.018 A 
ATOM     19  C   UNL A   1      -5.956   0.114  35.296  0.00  0.00    -0.004 A 
ATOM     20  C   UNL A   1      -4.657  -0.262  35.415  0.00  0.00    -0.000 A 
ATOM     21  C   UNL A   1      -4.396  -1.509  34.929  0.00  0.00    -0.000 A 
ATOM     22  C   UNL A   1      -5.230  -2.345  34.344  0.00  0.00    -0.000 A 
ATOM     23  C   UNL A   1      -6.567  -1.903  34.248  0.00  0.00    -0.004 A 
ENDBRANCH  17  18
ENDBRANCH   2  17
TORSDOF 7
ENDMDL
ENDMDL
