REMARK  Name = No_4236-gen_results/8p0m/2024-11-27-11-27-31/
REMARK  7 active torsions:
REMARK  status: ('A' for Active; 'I' for Inactive)
REMARK    1  A    between atoms: C_1  and  C_2
REMARK    2  A    between atoms: C_1  and  N_8
REMARK    3  A    between atoms: C_5  and  C_19
REMARK    4  A    between atoms: N_8  and  C_9
REMARK    5  A    between atoms: C_9  and  C_18
REMARK    6  A    between atoms: C_10  and  C_11
REMARK    7  A    between atoms: C_11  and  C_12
REMARK                            x       y       z     vdW  Elec       q    Type
REMARK                         _______ _______ _______ _____ _____    ______ ____
ROOT
ATOM      1  C   UNL A   1     -29.684   0.243  30.144  0.00  0.00    +0.160 C 
ATOM      2  C   UNL A   1     -29.132   0.420  31.100  0.00  0.00    +0.003 C 
ENDROOT
BRANCH   1   3
ATOM      3  C   UNL A   1     -30.966   0.916  29.894  0.00  0.00    +0.491 C 
ATOM      4  N   UNL A   1     -31.700   0.910  28.971  0.00  0.00    +0.206 NA
ATOM      5  N   UNL A   1     -31.512   1.515  31.068  0.00  0.00    +0.206 NA
ENDBRANCH   1   3
BRANCH   1   6
ATOM      6  N   UNL A   1     -29.215  -0.173  29.013  0.00  0.00    -0.226 NA
BRANCH   6   7
ATOM      7  C   UNL A   1     -28.016  -0.814  28.878  0.00  0.00    +0.139 C 
BRANCH   7   8
ATOM      8  C   UNL A   1     -27.064  -0.119  28.608  0.00  0.00    -0.001 A 
ATOM      9  C   UNL A   1     -27.001   0.691  27.491  0.00  0.00    -0.002 A 
ATOM     10  C   UNL A   1     -25.855   1.482  27.083  0.00  0.00    +0.006 A 
ATOM     11  C   UNL A   1     -24.690   1.453  27.881  0.00  0.00    +0.080 A 
ATOM     12  C   UNL A   1     -24.738   0.601  29.042  0.00  0.00    +0.006 A 
ATOM     13  C   UNL A   1     -25.823  -0.169  29.389  0.00  0.00    -0.002 A 
BRANCH  11  14
ATOM     14  C   UNL A   1     -23.494   2.173  27.563  0.00  0.00    +0.388 C 
ATOM     15  O   UNL A   1     -22.620   1.688  27.115  0.00  0.00    -0.241 OA
ATOM     16  O   UNL A   1     -23.665   3.505  27.676  0.00  0.00    -0.241 OA
ENDBRANCH  11  14
ENDBRANCH   7   8
ENDBRANCH   6   7
ENDBRANCH   1   6
BRANCH   2  17
ATOM     17  C   UNL A   1     -29.207   0.863  32.175  0.00  0.00    +0.054 C 
BRANCH  17  18
ATOM     18  C   UNL A   1     -28.623   1.384  33.014  0.00  0.00    -0.018 A 
ATOM     19  C   UNL A   1     -27.104   1.190  33.026  0.00  0.00    -0.004 A 
ATOM     20  C   UNL A   1     -26.197   1.744  33.870  0.00  0.00    -0.000 A 
ATOM     21  C   UNL A   1     -26.743   2.585  34.794  0.00  0.00    -0.000 A 
ATOM     22  C   UNL A   1     -28.015   2.881  34.973  0.00  0.00    -0.000 A 
ATOM     23  C   UNL A   1     -28.913   2.278  34.067  0.00  0.00    -0.004 A 
ENDBRANCH  17  18
ENDBRANCH   2  17
TORSDOF 7
