MODEL 4237
MODEL 1
REMARK VINA RESULT:    -5.789      0.000      0.000
REMARK INTER + INTRA:         -14.128
REMARK INTER:                  -9.512
REMARK INTRA:                  -4.616
REMARK UNBOUND:                -4.616
REMARK  Name = No_4237-gen_results/8p0m/2024-11-27-11-27-31/
REMARK  11 active torsions:
REMARK  status: ('A' for Active; 'I' for Inactive)
REMARK    1  A    between atoms: C_3  and  C_4
REMARK    2  A    between atoms: C_7  and  O_13
REMARK    3  A    between atoms: O_13  and  C_14
REMARK    4  A    between atoms: C_14  and  C_15
REMARK    5  A    between atoms: C_15  and  O_17
REMARK    6  A    between atoms: O_17  and  C_20
REMARK    7  A    between atoms: C_20  and  C_30
REMARK    8  A    between atoms: C_21  and  C_22
REMARK    9  A    between atoms: C_23  and  C_24
REMARK   10  A    between atoms: C_23  and  N_33
REMARK   11  A    between atoms: N_33  and  C_34
REMARK                            x       y       z     vdW  Elec       q    Type
REMARK                         _______ _______ _______ _____ _____    ______ ____
ROOT
ATOM      1  C   UNL A   1     -22.847   0.494  28.268  0.00  0.00    +0.423 C 
ATOM      2  O   UNL A   1     -21.833   0.054  28.526  0.00  0.00    -0.237 OA
ENDROOT
BRANCH   1   3
ATOM      3  C   UNL A   1     -23.034   1.644  27.520  0.00  0.00    +0.423 C 
ATOM      4  O   UNL A   1     -23.029   2.774  27.941  0.00  0.00    -0.237 OA
BRANCH   3   5
ATOM      5  O   UNL A   1     -23.194   1.349  26.241  0.00  0.00    -0.416 OA
BRANCH   5   9
ATOM      6  C   UNL A   1     -25.377   2.598  25.921  0.00  0.00    +0.038 A 
ATOM      7  C   UNL A   1     -26.479   2.528  25.429  0.00  0.00    +0.003 A 
ATOM      8  C   UNL A   1     -26.977   1.380  24.813  0.00  0.00    +0.000 A 
ATOM      9  C   UNL A   1     -24.433   1.457  25.719  0.00  0.00    +0.149 A 
ATOM     10  C   UNL A   1     -24.846   0.260  25.203  0.00  0.00    +0.038 A 
ATOM     11  C   UNL A   1     -26.158   0.154  24.666  0.00  0.00    +0.003 A 
BRANCH   8  12
ATOM     12  C   UNL A   1     -28.299   1.210  24.179  0.00  0.00    +0.002 A 
ATOM     13  C   UNL A   1     -29.037  -0.023  24.091  0.00  0.00    +0.000 A 
ATOM     14  C   UNL A   1     -30.302  -0.065  23.473  0.00  0.00    +0.002 A 
ATOM     15  C   UNL A   1     -31.024   1.131  23.171  0.00  0.00    +0.030 A 
ATOM     16  C   UNL A   1     -29.093   2.366  23.763  0.00  0.00    +0.030 A 
ATOM     17  C   UNL A   1     -30.366   2.293  23.279  0.00  0.00    +0.140 A 
ATOM     18  F   UNL A   1     -30.968   3.435  22.976  0.00  0.00    -0.204 F 
ENDBRANCH   8  12
ENDBRANCH   5   9
ENDBRANCH   3   5
ENDBRANCH   1   3
BRANCH   1  19
ATOM     19  O   UNL A   1     -23.843   0.066  29.052  0.00  0.00    -0.410 OA
BRANCH  19  20
ATOM     20  C   UNL A   1     -24.582  -1.007  28.823  0.00  0.00    +0.228 C 
ATOM     21  C   UNL A   1     -25.628  -1.163  28.474  0.00  0.00    +0.046 C 
BRANCH  20  22
ATOM     22  C   UNL A   1     -24.282  -1.923  30.122  0.00  0.00    +0.422 C 
ATOM     23  O   UNL A   1     -23.713  -1.637  31.000  0.00  0.00    -0.237 OA
ATOM     24  O   UNL A   1     -24.883  -3.114  30.042  0.00  0.00    -0.237 OA
ENDBRANCH  20  22
BRANCH  21  25
ATOM     25  C   UNL A   1     -26.432   0.138  28.448  0.00  0.00    +0.019 C 
ATOM     26  C   UNL A   1     -27.895   0.067  28.173  0.00  0.00    +0.067 C 
BRANCH  26  27
ATOM     27  C   UNL A   1     -28.510   1.259  28.143  0.00  0.00    +0.015 A 
ATOM     28  C   UNL A   1     -28.038   2.500  28.596  0.00  0.00    +0.001 A 
ATOM     29  C   UNL A   1     -28.661   3.727  28.604  0.00  0.00    +0.000 A 
ATOM     30  C   UNL A   1     -29.889   3.690  27.854  0.00  0.00    +0.000 A 
ATOM     31  C   UNL A   1     -30.418   2.557  27.316  0.00  0.00    +0.000 A 
ATOM     32  C   UNL A   1     -29.740   1.406  27.464  0.00  0.00    +0.001 A 
ENDBRANCH  26  27
BRANCH  26  33
ATOM     33  N   UNL A   1     -28.504  -0.801  29.165  0.00  0.00    -0.220 NA
BRANCH  33  34
ATOM     34  C   UNL A   1     -28.512  -0.546  30.466  0.00  0.00    +0.206 C 
ATOM     35 CL   UNL A   1     -27.618  -1.509  31.536  0.00  0.00    -0.088 Cl
ENDBRANCH  33  34
ENDBRANCH  26  33
ENDBRANCH  21  25
ENDBRANCH  19  20
ENDBRANCH   1  19
TORSDOF 11
ENDMDL
ENDMDL
