REMARK  Name = outputs/IAG933/test6/raw/output_4237_IAG933_linker_design_.xyz
REMARK  13 active torsions:
REMARK  status: ('A' for Active; 'I' for Inactive)
REMARK    1  A    between atoms: C_1  and  C_2
REMARK    2  A    between atoms: C_1  and  C_8
REMARK    3  A    between atoms: C_1  and  N_42
REMARK    4  A    between atoms: C_13  and  C_44
REMARK    5  A    between atoms: C_14  and  C_15
REMARK    6  A    between atoms: C_21  and  O_22
REMARK    7  A    between atoms: O_22  and  C_23
REMARK    8  A    between atoms: C_23  and  C_24
REMARK    9  A    between atoms: C_31  and  C_45
REMARK   10  A    between atoms: C_32  and  C_34
REMARK   11  A    between atoms: C_32  and  C_45
REMARK   12  A    between atoms: C_34  and  C_43
REMARK   13  A    between atoms: C_35  and  C_45
REMARK                            x       y       z     vdW  Elec       q    Type
REMARK                         _______ _______ _______ _____ _____    ______ ____
ROOT
ATOM      1 CL   UNL A   1     -22.098   2.048  25.952  0.00  0.00    -0.115 Cl
ATOM      2  C   UNL A   1     -23.174   0.104  29.266  0.00  0.00    +0.074 C 
ATOM      3  C   UNL A   1     -22.607   1.427  28.645  0.00  0.00    +0.034 C 
ATOM      4  C   UNL A   1     -23.218   1.281  27.178  0.00  0.00    +0.086 C 
ATOM      5  N   UNL A   1     -24.831  -0.149  29.090  0.00  0.00    -0.270 NA
ATOM      6  C   UNL A   1     -25.456   1.077  28.623  0.00  0.00    +0.063 C 
ATOM      7  C   UNL A   1     -24.813   1.323  27.323  0.00  0.00    +0.051 C 
ENDROOT
BRANCH   7   8
ATOM      8  C   UNL A   1     -25.688   1.614  26.461  0.00  0.00    +0.001 C 
ATOM      9  C   UNL A   1     -26.250   2.920  26.395  0.00  0.00    +0.052 C 
ATOM     10  C   UNL A   1     -27.438   3.091  25.645  0.00  0.00    +0.159 C 
ATOM     11  N   UNL A   1     -28.075   2.089  25.003  0.00  0.00    -0.234 NA
ATOM     12  C   UNL A   1     -27.543   0.849  25.079  0.00  0.00    +0.234 C 
ATOM     13  C   UNL A   1     -26.354   0.576  25.777  0.00  0.00    +0.254 C 
ATOM     14  F   UNL A   1     -25.860  -0.681  25.795  0.00  0.00    -0.223 F 
BRANCH   9  15
ATOM     15  C   UNL A   1     -25.642   4.093  27.123  0.00  0.00    +0.262 C 
ATOM     16  N   UNL A   1     -25.614   5.252  26.449  0.00  0.00    -0.200 NA
ATOM     17  C   UNL A   1     -25.026   6.479  26.963  0.00  0.00    +0.139 C 
ATOM     18  O   UNL A   1     -25.143   3.966  28.243  0.00  0.00    -0.269 OA
ENDBRANCH   9  15
BRANCH  12  19
ATOM     19  O   UNL A   1     -28.193  -0.208  24.477  0.00  0.00    -0.459 OA
BRANCH  19  20
ATOM     20  C   UNL A   1     -29.460   0.005  23.866  0.00  0.00    +0.242 C 
BRANCH  20  21
ATOM     21  C   UNL A   1     -30.065  -1.377  23.573  0.00  0.00    +0.229 C 
ATOM     22  O   UNL A   1     -30.729  -1.878  24.721  0.00  0.00    -0.216 OA
ENDBRANCH  20  21
ENDBRANCH  19  20
ENDBRANCH  12  19
ENDBRANCH   7   8
BRANCH   5  23
ATOM     23  C   UNL A   1     -24.855  -1.012  30.143  0.00  0.00    +0.096 C 
BRANCH  23  24
ATOM     24  C   UNL A   1     -24.973  -2.505  29.788  0.00  0.00    -0.006 C 
ATOM     25  C   UNL A   1     -23.906  -3.173  29.146  0.00  0.00    -0.003 C 
ATOM     26  C   UNL A   1     -23.989  -4.549  28.853  0.00  0.00    -0.000 C 
ATOM     27  C   UNL A   1     -25.137  -5.280  29.205  0.00  0.00    -0.000 C 
ATOM     28  C   UNL A   1     -26.232  -4.611  29.784  0.00  0.00    -0.000 C 
ATOM     29  C   UNL A   1     -26.155  -3.232  30.065  0.00  0.00    -0.003 C 
ENDBRANCH  23  24
BRANCH  23  30
ATOM     30  C   UNL A   1     -25.387  -0.679  31.571  0.00  0.00    +0.092 C 
ATOM     31  C   UNL A   1     -25.189   0.773  32.028  0.00  0.00    +0.021 C 
ATOM     32  C   UNL A   1     -25.336   0.684  33.544  0.00  0.00    +0.020 C 
ATOM     33  C   UNL A   1     -24.829  -0.715  33.905  0.00  0.00    +0.089 C 
ATOM     34  N   UNL A   1     -24.758  -1.481  32.646  0.00  0.00    -0.218 NA
ENDBRANCH  23  30
ENDBRANCH   5  23
BRANCH   6  35
ATOM     35  C   UNL A   1     -26.721   1.647  29.296  0.00  0.00    +0.017 C 
BRANCH  35  36
ATOM     36  C   UNL A   1     -27.725   0.546  29.796  0.00  0.00    +0.013 C 
BRANCH  36  37
ATOM     37  C   UNL A   1     -29.025   0.410  29.101  0.00  0.00    +0.106 C 
BRANCH  37  39
ATOM     38  C   UNL A   1     -31.201   3.419  27.932  0.00  0.00    +0.032 C 
ATOM     39  C   UNL A   1     -30.015   1.623  29.330  0.00  0.00    +0.040 C 
ATOM     40  O   UNL A   1     -30.837   3.752  30.273  0.00  0.00    -0.354 OA
ATOM     41  C   UNL A   1     -31.684   4.090  29.192  0.00  0.00    +0.142 C 
ATOM     42  C   UNL A   1     -29.701   2.998  29.995  0.00  0.00    +0.143 C 
ATOM     43  C   UNL A   1     -30.639   2.007  28.050  0.00  0.00    +0.006 C 
ENDBRANCH  37  39
BRANCH  37  44
ATOM     44  C   UNL A   1     -29.654  -0.988  29.385  0.00  0.00    +0.364 C 
ATOM     45  O   UNL A   1     -29.221  -1.738  30.296  0.00  0.00    -0.246 OA
ATOM     46  O   UNL A   1     -30.580  -1.341  28.603  0.00  0.00    -0.246 OA
ENDBRANCH  37  44
ENDBRANCH  36  37
ENDBRANCH  35  36
ENDBRANCH   6  35
TORSDOF 13
