MODEL 4238
MODEL 1
REMARK VINA RESULT:    -5.493      0.000      0.000
REMARK INTER + INTRA:          -7.515
REMARK INTER:                  -7.099
REMARK INTRA:                  -0.416
REMARK UNBOUND:                -0.416
REMARK  Name = No_4238-gen_results/8p0m/2024-11-27-11-27-31/
REMARK  5 active torsions:
REMARK  status: ('A' for Active; 'I' for Inactive)
REMARK    1  A    between atoms: C_2  and  C_7
REMARK    2  A    between atoms: C_7  and  N_8
REMARK    3  A    between atoms: N_8  and  C_9
REMARK    4  A    between atoms: C_10  and  N_12
REMARK    5  A    between atoms: N_12  and  C_13
REMARK                            x       y       z     vdW  Elec       q    Type
REMARK                         _______ _______ _______ _____ _____    ______ ____
ROOT
ATOM      1  C   UNL A   1     -23.947  -1.327  29.515  0.00  0.00    +0.141 C 
ENDROOT
BRANCH   1   3
ATOM      2  C   UNL A   1     -23.755  -3.520  28.844  0.00  0.00    -0.003 A 
ATOM      3  C   UNL A   1     -24.415  -2.857  29.329  0.00  0.00    -0.001 A 
ATOM      4  C   UNL A   1     -24.276  -4.926  28.647  0.00  0.00    -0.000 A 
ATOM      5  C   UNL A   1     -25.357  -5.224  29.094  0.00  0.00    -0.000 A 
ATOM      6  C   UNL A   1     -25.771  -2.968  29.871  0.00  0.00    -0.003 A 
ATOM      7  C   UNL A   1     -26.233  -4.269  29.738  0.00  0.00    -0.000 A 
ENDBRANCH   1   3
BRANCH   1   8
ATOM      8  N   UNL A   1     -23.345  -0.713  28.589  0.00  0.00    -0.206 NA
BRANCH   8   9
ATOM      9  C   UNL A   1     -22.527  -0.027  28.486  0.00  0.00    +0.225 C 
ATOM     10  C   UNL A   1     -22.500   1.322  27.890  0.00  0.00    +0.132 C 
ATOM     11  F   UNL A   1     -21.320  -0.433  28.994  0.00  0.00    -0.185 F 
BRANCH  10  12
ATOM     12  N   UNL A   1     -23.591   1.642  27.338  0.00  0.00    -0.206 NA
BRANCH  12  13
ATOM     13  C   UNL A   1     -23.754   1.725  25.969  0.00  0.00    +0.086 C 
ATOM     14  C   UNL A   1     -24.579   0.755  25.325  0.00  0.00    +0.019 C 
ENDBRANCH  12  13
ENDBRANCH  10  12
ENDBRANCH   8   9
ENDBRANCH   1   8
TORSDOF 5
ENDMDL
ENDMDL
