REMARK  Name = No_4238-gen_results/8p0m/2024-11-27-11-27-31/
REMARK  5 active torsions:
REMARK  status: ('A' for Active; 'I' for Inactive)
REMARK    1  A    between atoms: C_2  and  C_7
REMARK    2  A    between atoms: C_7  and  N_8
REMARK    3  A    between atoms: N_8  and  C_9
REMARK    4  A    between atoms: C_10  and  N_12
REMARK    5  A    between atoms: N_12  and  C_13
REMARK                            x       y       z     vdW  Elec       q    Type
REMARK                         _______ _______ _______ _____ _____    ______ ____
ROOT
ATOM      1  C   UNL A   1     -30.075  -0.883  29.905  0.00  0.00    +0.141 C 
ENDROOT
BRANCH   1   3
ATOM      2  C   UNL A   1     -28.016  -0.814  28.878  0.00  0.00    -0.003 A 
ATOM      3  C   UNL A   1     -28.469  -0.785  29.829  0.00  0.00    -0.001 A 
ATOM      4  C   UNL A   1     -26.504  -0.778  28.877  0.00  0.00    -0.000 A 
ATOM      5  C   UNL A   1     -25.915  -0.658  29.923  0.00  0.00    -0.000 A 
ATOM      6  C   UNL A   1     -27.969  -0.724  31.205  0.00  0.00    -0.003 A 
ATOM      7  C   UNL A   1     -26.585  -0.639  31.206  0.00  0.00    -0.000 A 
ENDBRANCH   1   3
BRANCH   1   8
ATOM      8  N   UNL A   1     -30.751  -0.016  30.528  0.00  0.00    -0.206 NA
BRANCH   8   9
ATOM      9  C   UNL A   1     -31.488   0.731  30.306  0.00  0.00    +0.225 C 
ATOM     10  C   UNL A   1     -32.178   1.669  31.212  0.00  0.00    +0.132 C 
ATOM     11  F   UNL A   1     -31.846   0.867  28.990  0.00  0.00    -0.185 F 
BRANCH  10  12
ATOM     12  N   UNL A   1     -31.914   1.465  32.431  0.00  0.00    -0.206 NA
BRANCH  12  13
ATOM     13  C   UNL A   1     -32.275   2.334  33.442  0.00  0.00    +0.086 C 
ATOM     14  C   UNL A   1     -31.754   2.104  34.750  0.00  0.00    +0.019 C 
ENDBRANCH  12  13
ENDBRANCH  10  12
ENDBRANCH   8   9
ENDBRANCH   1   8
TORSDOF 5
