MODEL 4239
MODEL 1
REMARK VINA RESULT:    -4.788      0.000      0.000
REMARK INTER + INTRA:          -5.134
REMARK INTER:                  -5.068
REMARK INTRA:                  -0.066
REMARK UNBOUND:                -0.066
REMARK  Name = No_4239-gen_results/8p0m/2024-11-27-11-27-31/
REMARK  1 active torsions:
REMARK  status: ('A' for Active; 'I' for Inactive)
REMARK    1  A    between atoms: C_3  and  C_8
REMARK                            x       y       z     vdW  Elec       q    Type
REMARK                         _______ _______ _______ _____ _____    ______ ____
ROOT
ATOM      1  C   UNL A   1     -29.470 -11.452  28.748  0.00  0.00    +0.042 A 
ATOM      2  C   UNL A   1     -28.722 -11.931  29.568  0.00  0.00    +0.003 A 
ATOM      3  C   UNL A   1     -28.726 -11.491  30.887  0.00  0.00    +0.002 A 
ATOM      4  C   UNL A   1     -29.589 -10.417  31.308  0.00  0.00    +0.003 A 
ATOM      5  C   UNL A   1     -30.404  -9.905  30.290  0.00  0.00    +0.042 A 
ATOM      6  C   UNL A   1     -30.350 -10.345  29.053  0.00  0.00    +0.196 A 
ATOM      7  O   UNL A   1     -31.149  -9.766  28.116  0.00  0.00    -0.287 OA
ENDROOT
BRANCH   3   8
ATOM      8  C   UNL A   1     -27.852 -12.015  32.001  0.00  0.00    +0.019 C 
ATOM      9  C   UNL A   1     -28.198 -11.803  33.316  0.00  0.00    +0.106 C 
ATOM     10  N   UNL A   1     -27.303 -12.291  34.222  0.00  0.00    -0.127 NA
ENDBRANCH   3   8
TORSDOF 1
ENDMDL
ENDMDL
