MODEL 423
MODEL 1
REMARK VINA RESULT:    -7.618      0.000      0.000
REMARK INTER + INTRA:         -13.180
REMARK INTER:                 -11.626
REMARK INTRA:                  -1.554
REMARK UNBOUND:                -1.554
REMARK  Name = No_423-gen_results/8p0m/2024-11-27-11-27-31/
REMARK  9 active torsions:
REMARK  status: ('A' for Active; 'I' for Inactive)
REMARK    1  A    between atoms: C_1  and  O_18
REMARK    2  A    between atoms: C_3  and  C_8
REMARK    3  A    between atoms: C_6  and  O_7
REMARK    4  A    between atoms: O_7  and  C_14
REMARK    5  A    between atoms: C_14  and  C_15
REMARK    6  A    between atoms: O_18  and  C_19
REMARK    7  A    between atoms: C_19  and  C_20
REMARK    8  A    between atoms: C_19  and  C_27
REMARK    9  A    between atoms: C_20  and  C_21
REMARK                            x       y       z     vdW  Elec       q    Type
REMARK                         _______ _______ _______ _____ _____    ______ ____
ROOT
ATOM      1  C   UNL A   1     -24.187   1.098  29.377  0.00  0.00    +0.172 A 
ATOM      2  C   UNL A   1     -24.365  -0.028  28.974  0.00  0.00    +0.040 A 
ATOM      3  C   UNL A   1     -24.596  -1.078  29.856  0.00  0.00    +0.003 A 
ATOM      4  C   UNL A   1     -24.583  -0.866  31.281  0.00  0.00    +0.003 A 
ATOM      5  C   UNL A   1     -24.345   0.462  31.660  0.00  0.00    +0.040 A 
ATOM      6  C   UNL A   1     -24.116   1.416  30.786  0.00  0.00    +0.173 A 
ENDROOT
BRANCH   3   7
ATOM      7  C   UNL A   1     -24.843  -2.518  29.478  0.00  0.00    +0.000 A 
ATOM      8  C   UNL A   1     -25.905  -3.157  29.935  0.00  0.00    +0.000 A 
ATOM      9  C   UNL A   1     -26.096  -4.555  29.631  0.00  0.00    +0.000 A 
ATOM     10  C   UNL A   1     -25.117  -5.299  28.949  0.00  0.00    +0.000 A 
ATOM     11  C   UNL A   1     -23.835  -3.279  28.809  0.00  0.00    +0.000 A 
ATOM     12  C   UNL A   1     -24.027  -4.672  28.529  0.00  0.00    +0.000 A 
ENDBRANCH   3   7
BRANCH   6  13
ATOM     13  O   UNL A   1     -23.855   2.672  31.240  0.00  0.00    -0.461 OA
BRANCH  13  14
ATOM     14  C   UNL A   1     -24.636   3.225  32.235  0.00  0.00    +0.319 C 
BRANCH  14  15
ATOM     15  C   UNL A   1     -25.425   4.281  31.739  0.00  0.00    +0.408 C 
ATOM     16  O   UNL A   1     -26.551   4.199  31.609  0.00  0.00    -0.241 OA
ATOM     17  O   UNL A   1     -24.924   5.479  31.555  0.00  0.00    -0.241 OA
ENDBRANCH  14  15
ENDBRANCH  13  14
ENDBRANCH   6  13
BRANCH   1  18
ATOM     18  O   UNL A   1     -23.954   2.134  28.557  0.00  0.00    -0.474 OA
BRANCH  18  19
ATOM     19  C   UNL A   1     -23.121   2.036  27.503  0.00  0.00    +0.186 C 
BRANCH  19  20
ATOM     20  C   UNL A   1     -21.789   1.609  27.985  0.00  0.00    +0.139 C 
ATOM     21 CL   UNL A   1     -21.077   0.893  27.771  0.00  0.00    -0.110 Cl
ENDBRANCH  19  20
BRANCH  19  22
ATOM     22  C   UNL A   1     -23.438   2.122  26.343  0.00  0.00    +0.071 C 
BRANCH  22  23
ATOM     23  C   UNL A   1     -24.551   1.672  25.833  0.00  0.00    -0.018 A 
ATOM     24  C   UNL A   1     -25.828   2.349  25.743  0.00  0.00    -0.004 A 
ATOM     25  C   UNL A   1     -27.024   1.760  25.283  0.00  0.00    -0.000 A 
ATOM     26  C   UNL A   1     -26.915   0.423  24.803  0.00  0.00    -0.000 A 
ATOM     27  C   UNL A   1     -25.724  -0.237  24.794  0.00  0.00    -0.000 A 
ATOM     28  C   UNL A   1     -24.622   0.337  25.339  0.00  0.00    -0.004 A 
ENDBRANCH  22  23
ENDBRANCH  19  22
ENDBRANCH  18  19
ENDBRANCH   1  18
TORSDOF 9
ENDMDL
ENDMDL
