MODEL 4240
MODEL 1
REMARK VINA RESULT:    -8.414      0.000      0.000
REMARK INTER + INTRA:         -12.703
REMARK INTER:                 -10.874
REMARK INTRA:                  -1.829
REMARK UNBOUND:                -1.829
REMARK  Name = No_4240-gen_results/8p0m/2024-11-27-11-27-31/
REMARK  5 active torsions:
REMARK  status: ('A' for Active; 'I' for Inactive)
REMARK    1  A    between atoms: C_3  and  C_7
REMARK    2  A    between atoms: C_4  and  C_16
REMARK    3  A    between atoms: C_16  and  C_17
REMARK    4  A    between atoms: C_26  and  C_29
REMARK    5  A    between atoms: C_32  and  C_34
REMARK                            x       y       z     vdW  Elec       q    Type
REMARK                         _______ _______ _______ _____ _____    ______ ____
ROOT
ATOM      1  C   UNL A   1     -24.815   1.462  30.213  0.00  0.00    +0.062 C 
ATOM      2  C   UNL A   1     -24.377   2.240  31.223  0.00  0.00    +0.016 C 
ATOM      3  C   UNL A   1     -24.854   2.165  32.472  0.00  0.00    +0.003 C 
ATOM      4  C   UNL A   1     -25.518   1.172  32.804  0.00  0.00    +0.016 C 
ATOM      5  C   UNL A   1     -25.920   0.171  31.850  0.00  0.00    +0.058 C 
ATOM      6  N   UNL A   1     -26.012   0.700  30.667  0.00  0.00    -0.276 NA
ATOM      7  C   UNL A   1     -26.316  -0.412  29.825  0.00  0.00    +0.058 C 
ATOM      8  C   UNL A   1     -25.523  -1.552  30.202  0.00  0.00    +0.018 C 
ATOM      9  C   UNL A   1     -25.303  -1.310  31.712  0.00  0.00    +0.018 C 
ATOM     10  C   UNL A   1     -26.096  -2.932  29.920  0.00  0.00    +0.023 C 
ATOM     11  C   UNL A   1     -24.047  -1.461  29.626  0.00  0.00    +0.002 C 
ATOM     12  C   UNL A   1     -23.459  -2.649  29.039  0.00  0.00    +0.000 C 
ATOM     13  C   UNL A   1     -25.338  -3.948  29.333  0.00  0.00    +0.004 C 
ATOM     14  C   UNL A   1     -24.097  -3.767  28.839  0.00  0.00    +0.000 C 
ATOM     15  C   UNL A   1     -27.583  -0.636  29.381  0.00  0.00    +0.017 C 
ENDROOT
BRANCH  10  16
ATOM     16  C   UNL A   1     -27.392  -3.105  30.304  0.00  0.00    -0.026 C 
ATOM     17  C   UNL A   1     -28.053  -3.885  30.495  0.00  0.00    -0.005 C 
BRANCH  17  18
ATOM     18  C   UNL A   1     -29.394  -3.920  30.939  0.00  0.00    -0.000 C 
ATOM     19  C   UNL A   1     -30.061  -2.716  30.786  0.00  0.00    -0.000 C 
ENDBRANCH  17  18
ENDBRANCH  10  16
BRANCH   1  20
ATOM     20  C   UNL A   1     -25.298   2.177  28.987  0.00  0.00    +0.042 C 
BRANCH  20  24
ATOM     21  C   UNL A   1     -23.641   2.509  25.540  0.00  0.00    +0.004 A 
ATOM     22  C   UNL A   1     -22.693   2.186  25.869  0.00  0.00    +0.000 A 
ATOM     23  C   UNL A   1     -24.648   2.542  26.601  0.00  0.00    +0.050 A 
ATOM     24  C   UNL A   1     -24.354   2.199  27.897  0.00  0.00    -0.017 A 
ATOM     25  C   UNL A   1     -22.104   1.774  27.143  0.00  0.00    -0.000 A 
ATOM     26  C   UNL A   1     -23.071   1.803  28.176  0.00  0.00    -0.004 A 
BRANCH  23  27
ATOM     27  C   UNL A   1     -26.039   3.012  26.340  0.00  0.00    +0.249 C 
ATOM     28  N   UNL A   1     -26.909   2.115  26.109  0.00  0.00    -0.276 N 
ATOM     29  O   UNL A   1     -26.340   4.223  26.428  0.00  0.00    -0.270 OA
ATOM     30  C   UNL A   1     -28.278   2.446  25.711  0.00  0.00    +0.094 C 
ATOM     31  C   UNL A   1     -26.689   0.684  26.142  0.00  0.00    +0.094 C 
ATOM     32  C   UNL A   1     -27.114  -0.053  24.962  0.00  0.00    +0.022 C 
ATOM     33  C   UNL A   1     -28.384   0.395  24.361  0.00  0.00    +0.003 C 
ATOM     34  C   UNL A   1     -28.671   1.764  24.509  0.00  0.00    +0.022 C 
ATOM     35  C   UNL A   1     -28.891  -0.353  23.251  0.00  0.00    +0.000 C 
ENDBRANCH  23  27
ENDBRANCH  20  24
ENDBRANCH   1  20
TORSDOF 5
ENDMDL
ENDMDL
