REMARK  Name = No_4240-gen_results/8p0m/2024-11-27-11-27-31/
REMARK  5 active torsions:
REMARK  status: ('A' for Active; 'I' for Inactive)
REMARK    1  A    between atoms: C_3  and  C_7
REMARK    2  A    between atoms: C_4  and  C_16
REMARK    3  A    between atoms: C_16  and  C_17
REMARK    4  A    between atoms: C_26  and  C_29
REMARK    5  A    between atoms: C_32  and  C_34
REMARK                            x       y       z     vdW  Elec       q    Type
REMARK                         _______ _______ _______ _____ _____    ______ ____
ROOT
ATOM      1  C   UNL A   1     -26.649   3.710  29.422  0.00  0.00    +0.062 C 
ATOM      2  C   UNL A   1     -25.932   4.759  28.972  0.00  0.00    +0.016 C 
ATOM      3  C   UNL A   1     -26.346   5.569  27.989  0.00  0.00    +0.003 C 
ATOM      4  C   UNL A   1     -27.540   5.547  27.655  0.00  0.00    +0.016 C 
ATOM      5  C   UNL A   1     -28.461   4.576  28.184  0.00  0.00    +0.058 C 
ATOM      6  N   UNL A   1     -27.820   3.499  28.526  0.00  0.00    -0.276 NA
ATOM      7  C   UNL A   1     -28.830   2.679  29.114  0.00  0.00    +0.058 C 
ATOM      8  C   UNL A   1     -29.690   3.475  29.950  0.00  0.00    +0.018 C 
ATOM      9  C   UNL A   1     -29.620   4.858  29.266  0.00  0.00    +0.018 C 
ATOM     10  C   UNL A   1     -31.123   3.000  30.138  0.00  0.00    +0.023 C 
ATOM     11  C   UNL A   1     -29.035   3.763  31.366  0.00  0.00    +0.002 C 
ATOM     12  C   UNL A   1     -29.862   3.635  32.550  0.00  0.00    +0.000 C 
ATOM     13  C   UNL A   1     -31.734   2.954  31.394  0.00  0.00    +0.004 C 
ATOM     14  C   UNL A   1     -31.084   3.183  32.552  0.00  0.00    +0.000 C 
ATOM     15  C   UNL A   1     -29.387   1.644  28.429  0.00  0.00    +0.017 C 
ENDROOT
BRANCH  10  16
ATOM     16  C   UNL A   1     -31.767   2.648  28.990  0.00  0.00    -0.026 C 
ATOM     17  C   UNL A   1     -31.924   3.027  28.035  0.00  0.00    -0.005 C 
BRANCH  17  18
ATOM     18  C   UNL A   1     -32.597   2.521  26.900  0.00  0.00    -0.000 C 
ATOM     19  C   UNL A   1     -33.075   1.232  27.066  0.00  0.00    -0.000 C 
ENDBRANCH  17  18
ENDBRANCH  10  16
BRANCH   1  20
ATOM     20  C   UNL A   1     -25.956   2.381  29.413  0.00  0.00    +0.042 C 
BRANCH  20  24
ATOM     21  C   UNL A   1     -28.016  -0.814  28.878  0.00  0.00    +0.004 A 
ATOM     22  C   UNL A   1     -28.469  -0.785  29.829  0.00  0.00    +0.000 A 
ATOM     23  C   UNL A   1     -27.087   0.290  28.638  0.00  0.00    +0.050 A 
ATOM     24  C   UNL A   1     -26.832   1.249  29.587  0.00  0.00    -0.017 A 
ATOM     25  C   UNL A   1     -28.391   0.080  31.006  0.00  0.00    -0.000 A 
ATOM     26  C   UNL A   1     -27.494   1.152  30.784  0.00  0.00    -0.004 A 
BRANCH  23  27
ATOM     27  C   UNL A   1     -26.317   0.399  27.365  0.00  0.00    +0.249 C 
ATOM     28  N   UNL A   1     -25.072   0.157  27.430  0.00  0.00    -0.276 N 
ATOM     29  O   UNL A   1     -26.893   0.638  26.280  0.00  0.00    -0.270 OA
ATOM     30  C   UNL A   1     -24.182   0.355  26.285  0.00  0.00    +0.094 C 
ATOM     31  C   UNL A   1     -24.347  -0.279  28.606  0.00  0.00    +0.094 C 
ATOM     32  C   UNL A   1     -23.168   0.499  28.952  0.00  0.00    +0.022 C 
ATOM     33  C   UNL A   1     -22.346   0.941  27.810  0.00  0.00    +0.003 C 
ATOM     34  C   UNL A   1     -23.051   1.176  26.616  0.00  0.00    +0.022 C 
ATOM     35  C   UNL A   1     -21.128   1.634  28.101  0.00  0.00    +0.000 C 
ENDBRANCH  23  27
ENDBRANCH  20  24
ENDBRANCH   1  20
TORSDOF 5
