REMARK  Name = No_4241-gen_results/8p0m/2024-11-27-11-27-31/
REMARK  3 active torsions:
REMARK  status: ('A' for Active; 'I' for Inactive)
REMARK    1  A    between atoms: C_1  and  C_3
REMARK    2  A    between atoms: C_3  and  C_4
REMARK    3  A    between atoms: C_9  and  C_14
REMARK                            x       y       z     vdW  Elec       q    Type
REMARK                         _______ _______ _______ _____ _____    ______ ____
ROOT
ATOM      1  C   UNL A   1     -25.950   0.116  29.405  0.00  0.00    -0.018 A 
ATOM      2  C   UNL A   1     -24.452   0.195  29.476  0.00  0.00    -0.004 A 
ATOM      3  C   UNL A   1     -23.812   1.425  29.343  0.00  0.00    -0.000 A 
ATOM      4  C   UNL A   1     -24.609   2.588  29.559  0.00  0.00    +0.007 A 
ATOM      5  C   UNL A   1     -25.953   2.554  29.563  0.00  0.00    +0.080 A 
ATOM      6  C   UNL A   1     -26.557   1.314  29.443  0.00  0.00    +0.003 A 
ENDROOT
BRANCH   5   7
ATOM      7  C   UNL A   1     -26.698   3.806  29.652  0.00  0.00    +0.388 C 
ATOM      8  O   UNL A   1     -27.880   3.839  29.392  0.00  0.00    -0.241 OA
ATOM      9  O   UNL A   1     -26.072   4.863  30.000  0.00  0.00    -0.241 OA
ENDBRANCH   5   7
BRANCH   1  10
ATOM     10  C   UNL A   1     -26.504  -0.778  28.877  0.00  0.00    +0.053 C 
BRANCH  10  11
ATOM     11  C   UNL A   1     -28.016  -0.814  28.878  0.00  0.00    -0.018 A 
ATOM     12  C   UNL A   1     -28.469  -0.785  29.829  0.00  0.00    -0.004 A 
ATOM     13  C   UNL A   1     -29.971  -0.832  29.860  0.00  0.00    -0.000 A 
ATOM     14  C   UNL A   1     -30.587  -0.643  28.711  0.00  0.00    -0.000 A 
ATOM     15  C   UNL A   1     -29.918  -0.421  27.566  0.00  0.00    -0.000 A 
ATOM     16  C   UNL A   1     -28.545  -0.444  27.607  0.00  0.00    -0.004 A 
ENDBRANCH  10  11
ENDBRANCH   1  10
TORSDOF 3
