MODEL 4242
MODEL 1
REMARK VINA RESULT:    -8.109      0.000      0.000
REMARK INTER + INTRA:          -6.974
REMARK INTER:                  -9.532
REMARK INTRA:                   2.557
REMARK UNBOUND:                 2.557
REMARK  Name = No_4242-gen_results/8p0m/2024-11-27-11-27-31/
REMARK  3 active torsions:
REMARK  status: ('A' for Active; 'I' for Inactive)
REMARK    1  A    between atoms: C_15  and  C_16
REMARK    2  A    between atoms: C_16  and  C_18
REMARK    3  A    between atoms: C_18  and  C_19
REMARK                            x       y       z     vdW  Elec       q    Type
REMARK                         _______ _______ _______ _____ _____    ______ ____
ROOT
ATOM      1  C   UNL A   1     -22.132   2.033  27.256  0.00  0.00    -0.004 A 
ATOM      2  C   UNL A   1     -22.935   1.361  27.375  0.00  0.00    -0.025 A 
ATOM      3  C   UNL A   1     -20.846   1.635  27.850  0.00  0.00    -0.000 A 
ATOM      4  C   UNL A   1     -20.683   0.342  28.427  0.00  0.00    -0.000 A 
ATOM      5  C   UNL A   1     -23.018  -0.040  27.871  0.00  0.00    -0.019 A 
ATOM      6  C   UNL A   1     -21.846  -0.442  28.439  0.00  0.00    -0.004 A 
ATOM      7  C   UNL A   1     -24.340   1.748  26.729  0.00  0.00    +0.031 C 
ATOM      8  C   UNL A   1     -25.393   2.040  27.584  0.00  0.00    +0.031 C 
ATOM      9  C   UNL A   1     -25.240   2.078  28.769  0.00  0.00    -0.025 A 
ATOM     10  C   UNL A   1     -25.732   2.460  29.758  0.00  0.00    -0.004 A 
ATOM     11  C   UNL A   1     -25.430   2.367  31.216  0.00  0.00    -0.000 A 
ATOM     12  C   UNL A   1     -24.166   1.760  31.489  0.00  0.00    -0.000 A 
ATOM     13  C   UNL A   1     -23.435   1.294  30.424  0.00  0.00    -0.004 A 
ATOM     14  C   UNL A   1     -23.892   1.369  29.201  0.00  0.00    -0.019 A 
ATOM     15  C   UNL A   1     -23.600   0.353  28.576  0.00  0.00    +0.062 C 
ENDROOT
BRANCH  15  16
ATOM     16  C   UNL A   1     -24.858  -0.169  28.234  0.00  0.00    -0.032 C 
ATOM     17  C   UNL A   1     -25.556  -0.395  27.220  0.00  0.00    -0.008 C 
BRANCH  16  18
ATOM     18  C   UNL A   1     -25.158  -1.101  29.457  0.00  0.00    +0.049 C 
BRANCH  18  19
ATOM     19  C   UNL A   1     -25.140  -2.432  29.360  0.00  0.00    -0.018 A 
ATOM     20  C   UNL A   1     -24.104  -3.214  28.963  0.00  0.00    -0.004 A 
ATOM     21  C   UNL A   1     -24.189  -4.605  28.950  0.00  0.00    -0.000 A 
ATOM     22  C   UNL A   1     -25.383  -5.258  29.305  0.00  0.00    -0.000 A 
ATOM     23  C   UNL A   1     -26.376  -3.146  29.742  0.00  0.00    -0.004 A 
ATOM     24  C   UNL A   1     -26.484  -4.531  29.695  0.00  0.00    -0.000 A 
ENDBRANCH  18  19
ENDBRANCH  16  18
ENDBRANCH  15  16
TORSDOF 3
ENDMDL
ENDMDL
