MODEL 4243
MODEL 1
REMARK VINA RESULT:    -6.413      0.000      0.000
REMARK INTER + INTRA:         -11.623
REMARK INTER:                  -9.413
REMARK INTRA:                  -2.210
REMARK UNBOUND:                -2.210
REMARK  Name = No_4243-gen_results/8p0m/2024-11-27-11-27-31/
REMARK  8 active torsions:
REMARK  status: ('A' for Active; 'I' for Inactive)
REMARK    1  A    between atoms: C_2  and  C_4
REMARK    2  A    between atoms: N_5  and  C_6
REMARK    3  A    between atoms: C_7  and  C_13
REMARK    4  A    between atoms: C_8  and  C_25
REMARK    5  A    between atoms: C_17  and  C_19
REMARK    6  A    between atoms: C_28  and  C_29
REMARK    7  A    between atoms: C_29  and  C_32
REMARK    8  A    between atoms: C_29  and  C_34
REMARK                            x       y       z     vdW  Elec       q    Type
REMARK                         _______ _______ _______ _____ _____    ______ ____
ROOT
ATOM      1  C   UNL A   1     -12.379   2.728  36.260  0.00  0.00    +0.074 A 
ATOM      2  C   UNL A   1     -11.532   2.680  35.725  0.00  0.00    +0.018 A 
ATOM      3  C   UNL A   1     -11.061   2.207  34.372  0.00  0.00    +0.037 A 
ATOM      4  C   UNL A   1     -12.090   1.716  33.606  0.00  0.00    +0.003 A 
ATOM      5  C   UNL A   1     -13.327   1.699  34.044  0.00  0.00    +0.001 A 
ATOM      6  C   UNL A   1     -13.622   2.209  35.281  0.00  0.00    +0.017 A 
ENDROOT
BRANCH   2   7
ATOM      7  C   UNL A   1     -10.210   3.219  36.473  0.00  0.00    +0.001 A 
ATOM      8  C   UNL A   1      -9.897   4.515  36.362  0.00  0.00    +0.000 A 
ATOM      9  C   UNL A   1      -9.065   5.148  37.267  0.00  0.00    +0.000 A 
ATOM     10  C   UNL A   1      -8.601   4.369  38.364  0.00  0.00    +0.000 A 
ATOM     11  C   UNL A   1      -9.829   2.536  37.607  0.00  0.00    +0.000 A 
ATOM     12  C   UNL A   1      -9.028   3.070  38.500  0.00  0.00    +0.000 A 
BRANCH  11  13
ATOM     13  C   UNL A   1     -10.329   1.136  37.850  0.00  0.00    +0.000 A 
ATOM     14  C   UNL A   1     -11.160   0.973  38.943  0.00  0.00    +0.000 A 
ATOM     15  C   UNL A   1     -11.577  -0.382  39.112  0.00  0.00    +0.000 A 
ATOM     16  C   UNL A   1     -11.204  -1.443  38.220  0.00  0.00    +0.000 A 
ATOM     17  C   UNL A   1     -10.276  -1.203  37.199  0.00  0.00    +0.000 A 
ATOM     18  C   UNL A   1      -9.865   0.091  37.003  0.00  0.00    +0.000 A 
ENDBRANCH  11  13
ENDBRANCH   2   7
BRANCH   3  19
ATOM     19  C   UNL A   1      -9.676   2.240  33.901  0.00  0.00    +0.162 A 
ATOM     20  N   UNL A   1      -9.156   2.797  33.080  0.00  0.00    -0.225 NA
ATOM     21  N   UNL A   1      -8.974   1.114  34.364  0.00  0.00    -0.231 NA
ATOM     22  C   UNL A   1      -7.627   1.340  34.443  0.00  0.00    +0.066 A 
ATOM     23  C   UNL A   1      -6.922   2.461  34.108  0.00  0.00    +0.036 A 
ATOM     24  C   UNL A   1      -7.826   3.325  33.322  0.00  0.00    +0.102 A 
BRANCH  22  25
ATOM     25  C   UNL A   1      -6.866   0.212  34.945  0.00  0.00    +0.062 C 
BRANCH  25  26
ATOM     26  C   UNL A   1      -5.961   0.267  36.003  0.00  0.00    -0.021 C 
ATOM     27  C   UNL A   1      -6.150   1.082  37.119  0.00  0.00    -0.004 C 
ENDBRANCH  25  26
BRANCH  25  28
ATOM     28  C   UNL A   1      -7.130  -1.070  34.465  0.00  0.00    +0.010 C 
ATOM     29  C   UNL A   1      -6.198  -2.123  34.452  0.00  0.00    +0.001 C 
ENDBRANCH  25  28
ENDBRANCH  22  25
ENDBRANCH   3  19
BRANCH   1  31
ATOM     30  C   UNL A   1     -13.512   3.932  37.721  0.00  0.00    +0.349 C 
ATOM     31  N   UNL A   1     -12.921   3.025  37.296  0.00  0.00    -0.170 NA
ATOM     32  O   UNL A   1     -13.368   5.096  37.322  0.00  0.00    -0.261 OA
BRANCH  30  34
ATOM     33  O   UNL A   1     -15.541   3.144  38.391  0.00  0.00    -0.235 OA
ATOM     34  C   UNL A   1     -14.578   3.670  38.726  0.00  0.00    +0.442 C 
ATOM     35  O   UNL A   1     -14.353   4.007  39.905  0.00  0.00    -0.235 OA
ENDBRANCH  30  34
ENDBRANCH   1  31
TORSDOF 8
ENDMDL
ENDMDL
