REMARK  Name = No_4244-gen_results/8p0m/2024-11-27-11-27-31/
REMARK  5 active torsions:
REMARK  status: ('A' for Active; 'I' for Inactive)
REMARK    1  A    between atoms: C_4  and  C_6
REMARK    2  A    between atoms: C_5  and  C_15
REMARK    3  A    between atoms: C_16  and  C_17
REMARK    4  A    between atoms: C_20  and  C_23
REMARK    5  A    between atoms: C_23  and  C_24
REMARK                            x       y       z     vdW  Elec       q    Type
REMARK                         _______ _______ _______ _____ _____    ______ ____
ROOT
ATOM      1  C   UNL A   1     -31.340  -1.748  31.320  0.00  0.00    -0.000 A 
ATOM      2  C   UNL A   1     -31.594  -1.703  30.153  0.00  0.00    -0.000 A 
ATOM      3  C   UNL A   1     -32.201  -2.847  29.406  0.00  0.00    -0.004 A 
ATOM      4  C   UNL A   1     -32.154  -4.049  30.051  0.00  0.00    -0.018 A 
ATOM      5  C   UNL A   1     -31.820  -4.135  31.395  0.00  0.00    -0.004 A 
ATOM      6  C   UNL A   1     -31.453  -3.027  32.102  0.00  0.00    -0.000 A 
ENDROOT
BRANCH   1   8
ATOM      7  C   UNL A   1     -30.182   0.126  31.697  0.00  0.00    +0.001 C 
ATOM      8  C   UNL A   1     -30.848  -0.563  32.069  0.00  0.00    +0.000 C 
BRANCH   7  13
ATOM      9  C   UNL A   1     -28.016  -0.814  28.878  0.00  0.00    +0.023 A 
ATOM     10  C   UNL A   1     -28.469  -0.785  29.829  0.00  0.00    +0.059 A 
ATOM     11  C   UNL A   1     -28.196   0.348  28.055  0.00  0.00    +0.059 A 
ATOM     12  C   UNL A   1     -29.019   1.350  28.378  0.00  0.00    +0.011 A 
ATOM     13  C   UNL A   1     -29.411   0.180  30.378  0.00  0.00    +0.011 A 
ATOM     14  C   UNL A   1     -29.587   1.224  29.619  0.00  0.00    +0.002 A 
ATOM     15 CL   UNL A   1     -27.364   0.354  26.528  0.00  0.00    -0.082 Cl
ATOM     16 CL   UNL A   1     -28.235  -2.274  30.928  0.00  0.00    -0.082 Cl
BRANCH  12  17
ATOM     17  C   UNL A   1     -29.224   2.492  27.543  0.00  0.00    +0.001 A 
ATOM     18  C   UNL A   1     -29.230   2.769  26.451  0.00  0.00    +0.000 A 
ATOM     19  C   UNL A   1     -29.438   4.053  25.741  0.00  0.00    +0.000 A 
ATOM     20  C   UNL A   1     -29.646   5.168  26.551  0.00  0.00    +0.000 A 
ATOM     21  C   UNL A   1     -29.687   5.018  27.877  0.00  0.00    +0.000 A 
ATOM     22  C   UNL A   1     -29.452   3.822  28.470  0.00  0.00    +0.000 A 
ENDBRANCH  12  17
ENDBRANCH   7  13
ENDBRANCH   1   8
BRANCH   4  23
ATOM     23  C   UNL A   1     -32.679  -5.239  29.294  0.00  0.00    +0.051 C 
BRANCH  23  24
ATOM     24  C   UNL A   1     -31.976  -5.619  28.317  0.00  0.00    -0.002 C 
ATOM     25  C   UNL A   1     -30.819  -4.998  27.949  0.00  0.00    +0.171 C 
ATOM     26  C   UNL A   1     -32.028  -7.030  27.876  0.00  0.00    +0.026 C 
ATOM     27  C   UNL A   1     -32.743  -7.298  26.951  0.00  0.00    +0.009 C 
ATOM     28  C   UNL A   1     -33.400  -6.485  26.293  0.00  0.00    +0.030 C 
ATOM     29  C   UNL A   1     -33.405  -5.142  26.578  0.00  0.00    +0.012 A 
ATOM     30  C   UNL A   1     -34.493  -4.284  26.320  0.00  0.00    -0.001 A 
ATOM     31  C   UNL A   1     -34.387  -2.880  26.388  0.00  0.00    -0.000 A 
ATOM     32  C   UNL A   1     -33.166  -2.309  26.043  0.00  0.00    +0.003 A 
ATOM     33  C   UNL A   1     -31.994  -3.188  26.059  0.00  0.00    +0.037 A 
ATOM     34  C   UNL A   1     -32.152  -4.435  26.213  0.00  0.00    +0.141 A 
ATOM     35  O   UNL A   1     -31.053  -5.174  26.368  0.00  0.00    -0.451 OA
ENDBRANCH  23  24
ENDBRANCH   4  23
TORSDOF 5
