MODEL 4244
MODEL 1
REMARK VINA RESULT:    -9.146      0.000      0.000
REMARK INTER + INTRA:         -13.753
REMARK INTER:                 -11.819
REMARK INTRA:                  -1.934
REMARK UNBOUND:                -1.934
REMARK  Name = No_4244-gen_results/8p0m/2024-11-27-11-27-31/
REMARK  5 active torsions:
REMARK  status: ('A' for Active; 'I' for Inactive)
REMARK    1  A    between atoms: C_4  and  C_6
REMARK    2  A    between atoms: C_5  and  C_15
REMARK    3  A    between atoms: C_16  and  C_17
REMARK    4  A    between atoms: C_20  and  C_23
REMARK    5  A    between atoms: C_23  and  C_24
REMARK                            x       y       z     vdW  Elec       q    Type
REMARK                         _______ _______ _______ _____ _____    ______ ____
ROOT
ATOM      1  C   UNL A   1     -25.019   1.679  25.797  0.00  0.00    -0.000 A 
ATOM      2  C   UNL A   1     -25.785   2.594  25.724  0.00  0.00    -0.000 A 
ATOM      3  C   UNL A   1     -27.141   2.474  25.107  0.00  0.00    -0.004 A 
ATOM      4  C   UNL A   1     -27.335   1.356  24.348  0.00  0.00    -0.018 A 
ATOM      5  C   UNL A   1     -26.439   0.297  24.380  0.00  0.00    -0.004 A 
ATOM      6  C   UNL A   1     -25.292   0.367  25.116  0.00  0.00    -0.000 A 
ENDROOT
BRANCH   1   8
ATOM      7  C   UNL A   1     -23.553   1.421  27.463  0.00  0.00    +0.001 C 
ATOM      8  C   UNL A   1     -23.725   1.787  26.518  0.00  0.00    +0.000 C 
BRANCH   7  13
ATOM      9  C   UNL A   1     -26.068   0.941  30.102  0.00  0.00    +0.023 A 
ATOM     10  C   UNL A   1     -25.344   1.378  29.474  0.00  0.00    +0.059 A 
ATOM     11  C   UNL A   1     -26.101  -0.494  30.127  0.00  0.00    +0.059 A 
ATOM     12  C   UNL A   1     -25.386  -1.254  29.292  0.00  0.00    +0.011 A 
ATOM     13  C   UNL A   1     -24.483   0.757  28.478  0.00  0.00    +0.011 A 
ATOM     14  C   UNL A   1     -24.531  -0.545  28.490  0.00  0.00    +0.002 A 
ATOM     15 CL   UNL A   1     -27.220  -1.226  31.239  0.00  0.00    -0.082 Cl
ATOM     16 CL   UNL A   1     -25.265   3.242  29.437  0.00  0.00    -0.082 Cl
BRANCH  12  17
ATOM     17  C   UNL A   1     -25.444  -2.683  29.294  0.00  0.00    +0.001 A 
ATOM     18  C   UNL A   1     -26.109  -3.516  29.657  0.00  0.00    +0.000 A 
ATOM     19  C   UNL A   1     -25.995  -4.992  29.597  0.00  0.00    +0.000 A 
ATOM     20  C   UNL A   1     -24.835  -5.488  29.003  0.00  0.00    +0.000 A 
ATOM     21  C   UNL A   1     -23.939  -4.635  28.500  0.00  0.00    +0.000 A 
ATOM     22  C   UNL A   1     -24.083  -3.293  28.619  0.00  0.00    +0.000 A 
ENDBRANCH  12  17
ENDBRANCH   7  13
ENDBRANCH   1   8
BRANCH   4  23
ATOM     23  C   UNL A   1     -28.659   1.244  23.642  0.00  0.00    +0.051 C 
BRANCH  23  24
ATOM     24  C   UNL A   1     -29.531   0.539  24.223  0.00  0.00    -0.002 C 
ATOM     25  C   UNL A   1     -29.975  -0.651  23.727  0.00  0.00    +0.171 C 
ATOM     26  C   UNL A   1     -29.706   0.644  25.688  0.00  0.00    +0.026 C 
ATOM     27  C   UNL A   1     -30.585   1.352  26.094  0.00  0.00    +0.009 C 
ATOM     28  C   UNL A   1     -31.399   1.960  25.392  0.00  0.00    +0.030 C 
ATOM     29  C   UNL A   1     -31.366   1.912  24.020  0.00  0.00    +0.012 A 
ATOM     30  C   UNL A   1     -31.806   2.956  23.182  0.00  0.00    -0.001 A 
ATOM     31  C   UNL A   1     -31.995   2.790  21.795  0.00  0.00    -0.000 A 
ATOM     32  C   UNL A   1     -32.405   1.539  21.346  0.00  0.00    +0.003 A 
ATOM     33  C   UNL A   1     -32.196   0.407  22.252  0.00  0.00    +0.037 A 
ATOM     34  C   UNL A   1     -31.820   0.622  23.442  0.00  0.00    +0.141 A 
ATOM     35  O   UNL A   1     -31.502  -0.440  24.183  0.00  0.00    -0.451 OA
ENDBRANCH  23  24
ENDBRANCH   4  23
TORSDOF 5
ENDMDL
ENDMDL
