MODEL 4245
MODEL 1
REMARK VINA RESULT:    -8.079      0.000      0.000
REMARK INTER + INTRA:         -11.760
REMARK INTER:                  -9.968
REMARK INTRA:                  -1.792
REMARK UNBOUND:                -1.792
REMARK  Name = No_4245-gen_results/8p0m/2024-11-27-11-27-31/
REMARK  4 active torsions:
REMARK  status: ('A' for Active; 'I' for Inactive)
REMARK    1  A    between atoms: C_3  and  C_7
REMARK    2  A    between atoms: C_7  and  C_8
REMARK    3  A    between atoms: C_7  and  C_14
REMARK    4  A    between atoms: C_14  and  C_15
REMARK                            x       y       z     vdW  Elec       q    Type
REMARK                         _______ _______ _______ _____ _____    ______ ____
ROOT
ATOM      1  C   UNL A   1     -24.467  -1.357  29.565  0.00  0.00    +0.049 C 
ENDROOT
BRANCH   1   4
ATOM      2  C   UNL A   1     -25.638  -0.053  31.407  0.00  0.00    -0.004 A 
ATOM      3  C   UNL A   1     -25.712   0.118  32.444  0.00  0.00    -0.000 A 
ATOM      4  C   UNL A   1     -24.561  -0.981  31.042  0.00  0.00    -0.018 A 
ATOM      5  C   UNL A   1     -23.658  -1.412  31.924  0.00  0.00    -0.004 A 
ATOM      6  C   UNL A   1     -24.862  -0.211  33.562  0.00  0.00    -0.000 A 
ATOM      7  C   UNL A   1     -23.853  -1.054  33.199  0.00  0.00    -0.000 A 
ENDBRANCH   1   4
BRANCH   1   8
ATOM      8  C   UNL A   1     -24.795  -2.704  29.236  0.00  0.00    -0.018 A 
ATOM      9  C   UNL A   1     -26.027  -3.234  29.724  0.00  0.00    -0.004 A 
ATOM     10  C   UNL A   1     -26.170  -4.641  29.686  0.00  0.00    -0.000 A 
ATOM     11  C   UNL A   1     -25.171  -5.435  29.047  0.00  0.00    -0.000 A 
ATOM     12  C   UNL A   1     -24.044  -4.899  28.545  0.00  0.00    -0.000 A 
ATOM     13  C   UNL A   1     -23.793  -3.534  28.681  0.00  0.00    -0.004 A 
ENDBRANCH   1   8
BRANCH   1  14
ATOM     14  C   UNL A   1     -23.575  -0.911  28.922  0.00  0.00    +0.035 C 
BRANCH  14  15
ATOM     15  C   UNL A   1     -23.431   0.205  28.180  0.00  0.00    -0.021 A 
ATOM     16  C   UNL A   1     -22.283   1.026  28.210  0.00  0.00    -0.004 A 
ATOM     17  C   UNL A   1     -22.103   1.868  27.127  0.00  0.00    -0.000 A 
ATOM     18  C   UNL A   1     -23.113   2.086  26.130  0.00  0.00    -0.000 A 
ATOM     19  C   UNL A   1     -24.261   1.289  26.154  0.00  0.00    -0.000 A 
ATOM     20  C   UNL A   1     -24.392   0.300  27.053  0.00  0.00    -0.004 A 
ENDBRANCH  14  15
ENDBRANCH   1  14
TORSDOF 4
ENDMDL
ENDMDL
