REMARK  Name = outputs/IAG933/test6/raw/output_4245_IAG933_linker_design_.xyz
REMARK  14 active torsions:
REMARK  status: ('A' for Active; 'I' for Inactive)
REMARK    1  A    between atoms: C_1  and  C_2
REMARK    2  A    between atoms: C_1  and  C_8
REMARK    3  A    between atoms: C_1  and  N_29
REMARK    4  A    between atoms: C_13  and  C_32
REMARK    5  A    between atoms: C_14  and  C_15
REMARK    6  A    between atoms: C_21  and  O_22
REMARK    7  A    between atoms: O_22  and  C_23
REMARK    8  A    between atoms: C_23  and  C_24
REMARK    9  A    between atoms: C_31  and  C_34
REMARK   10  A    between atoms: C_31  and  C_36
REMARK   11  A    between atoms: C_31  and  C_38
REMARK   12  A    between atoms: C_32  and  C_38
REMARK   13  A    between atoms: O_37  and  C_41
REMARK   14  A    between atoms: C_38  and  C_41
REMARK                            x       y       z     vdW  Elec       q    Type
REMARK                         _______ _______ _______ _____ _____    ______ ____
ROOT
ATOM      1  C   UNL A   1     -22.637   0.814  27.663  0.00  0.00    +0.181 C 
ENDROOT
BRANCH   1   5
ATOM      2  N   UNL A   1     -22.425  -0.354  29.659  0.00  0.00    +0.189 NA
ATOM      3  N   UNL A   1     -24.794  -0.112  29.102  0.00  0.00    -0.120 N 
ATOM      4  O   UNL A   1     -27.067  -0.687  28.851  0.00  0.00    -0.220 OA
ATOM      5  C   UNL A   1     -23.279   0.120  28.757  0.00  0.00    +0.367 C 
ATOM      6  C   UNL A   1     -26.222   0.189  28.987  0.00  0.00    +0.434 C 
ATOM      7  N   UNL A   1     -26.639   1.472  29.355  0.00  0.00    -0.045 NA
BRANCH   3   8
ATOM      8  C   UNL A   1     -24.855  -1.012  30.143  0.00  0.00    +0.207 C 
BRANCH   8   9
ATOM      9  C   UNL A   1     -24.973  -2.505  29.788  0.00  0.00    +0.022 C 
ATOM     10  C   UNL A   1     -23.906  -3.173  29.146  0.00  0.00    -0.000 C 
ATOM     11  C   UNL A   1     -23.989  -4.549  28.853  0.00  0.00    -0.000 C 
ATOM     12  C   UNL A   1     -25.137  -5.280  29.205  0.00  0.00    -0.000 C 
ATOM     13  C   UNL A   1     -26.232  -4.611  29.784  0.00  0.00    -0.000 C 
ATOM     14  C   UNL A   1     -26.155  -3.232  30.065  0.00  0.00    -0.000 C 
ENDBRANCH   8   9
BRANCH   8  15
ATOM     15  C   UNL A   1     -25.387  -0.679  31.571  0.00  0.00    +0.120 C 
ATOM     16  C   UNL A   1     -25.189   0.773  32.028  0.00  0.00    +0.023 C 
ATOM     17  C   UNL A   1     -25.336   0.684  33.544  0.00  0.00    +0.020 C 
ATOM     18  C   UNL A   1     -24.829  -0.715  33.905  0.00  0.00    +0.089 C 
ATOM     19  N   UNL A   1     -24.758  -1.481  32.646  0.00  0.00    -0.215 NA
ENDBRANCH   8  15
ENDBRANCH   3   8
ENDBRANCH   1   5
BRANCH   1  20
ATOM     20  C   UNL A   1     -21.376   1.037  27.574  0.00  0.00    +0.220 C 
ATOM     21  O   UNL A   1     -20.369   1.146  28.200  0.00  0.00    -0.288 OA
ENDBRANCH   1  20
BRANCH   1  22
ATOM     22  C   UNL A   1     -23.488   1.214  26.701  0.00  0.00    +0.088 C 
BRANCH  22  24
ATOM     23  F   UNL A   1     -23.619   0.408  24.506  0.00  0.00    -0.201 F 
ATOM     24  C   UNL A   1     -23.149   1.231  25.421  0.00  0.00    +0.314 C 
BRANCH  24  26
ATOM     25  O   UNL A   1     -22.853   3.182  25.984  0.00  0.00    -0.032 OA
ATOM     26  O   UNL A   1     -22.427   2.287  25.026  0.00  0.00    -0.155 OA
ENDBRANCH  24  26
ENDBRANCH  22  24
BRANCH  22  27
ATOM     27  C   UNL A   1     -24.769   1.252  27.084  0.00  0.00    +0.035 C 
BRANCH  27  28
ATOM     28  C   UNL A   1     -25.688   1.614  26.461  0.00  0.00    +0.016 C 
ATOM     29  C   UNL A   1     -26.250   2.920  26.395  0.00  0.00    +0.073 C 
ATOM     30  C   UNL A   1     -27.438   3.091  25.645  0.00  0.00    +0.106 C 
ATOM     31  N   UNL A   1     -28.075   2.089  25.003  0.00  0.00    -0.208 NA
ATOM     32  C   UNL A   1     -27.543   0.849  25.079  0.00  0.00    +0.253 C 
ATOM     33  C   UNL A   1     -26.354   0.576  25.777  0.00  0.00    +0.189 C 
ATOM     34  F   UNL A   1     -25.860  -0.681  25.795  0.00  0.00    -0.200 F 
BRANCH  29  35
ATOM     35  C   UNL A   1     -25.642   4.093  27.123  0.00  0.00    +0.266 C 
ATOM     36  N   UNL A   1     -25.614   5.252  26.449  0.00  0.00    -0.200 NA
ATOM     37  C   UNL A   1     -25.026   6.479  26.963  0.00  0.00    +0.139 C 
ATOM     38  O   UNL A   1     -25.143   3.966  28.243  0.00  0.00    -0.268 OA
ENDBRANCH  29  35
BRANCH  32  39
ATOM     39  O   UNL A   1     -28.193  -0.208  24.477  0.00  0.00    -0.456 OA
BRANCH  39  40
ATOM     40  C   UNL A   1     -29.460   0.005  23.866  0.00  0.00    +0.243 C 
BRANCH  40  41
ATOM     41  C   UNL A   1     -30.065  -1.377  23.573  0.00  0.00    +0.229 C 
ATOM     42  O   UNL A   1     -30.729  -1.878  24.721  0.00  0.00    -0.216 OA
ENDBRANCH  40  41
ENDBRANCH  39  40
ENDBRANCH  32  39
ENDBRANCH  27  28
ENDBRANCH  22  27
ENDBRANCH   1  22
TORSDOF 14
