MODEL 4247
MODEL 1
REMARK VINA RESULT:    -6.528      0.000      0.000
REMARK INTER + INTRA:          -7.998
REMARK INTER:                  -7.673
REMARK INTRA:                  -0.325
REMARK UNBOUND:                -0.325
REMARK  Name = No_4247-gen_results/8p0m/2024-11-27-11-27-31/
REMARK  3 active torsions:
REMARK  status: ('A' for Active; 'I' for Inactive)
REMARK    1  A    between atoms: C_2  and  C_5
REMARK    2  A    between atoms: C_10  and  C_14
REMARK    3  A    between atoms: C_11  and  C_16
REMARK                            x       y       z     vdW  Elec       q    Type
REMARK                         _______ _______ _______ _____ _____    ______ ____
ROOT
ATOM      1  C   UNL A   1     -28.085 -11.897  31.695  0.00  0.00    +0.007 A 
ATOM      2  C   UNL A   1     -28.185 -11.339  32.583  0.00  0.00    +0.080 A 
ATOM      3  C   UNL A   1     -29.011 -11.489  30.639  0.00  0.00    +0.000 A 
ATOM      4  C   UNL A   1     -28.994 -12.049  29.270  0.00  0.00    +0.000 A 
ATOM      5  C   UNL A   1     -29.071 -10.248  32.907  0.00  0.00    +0.007 A 
ATOM      6  C   UNL A   1     -29.979  -9.817  31.985  0.00  0.00    +0.000 A 
ATOM      7  C   UNL A   1     -29.937 -10.414  30.762  0.00  0.00    +0.006 A 
ATOM      8  C   UNL A   1     -29.419 -11.586  28.194  0.00  0.00    +0.004 A 
ATOM      9  C   UNL A   1     -30.355 -10.446  28.385  0.00  0.00    +0.049 A 
ATOM     10  C   UNL A   1     -30.540  -9.838  29.580  0.00  0.00    +0.083 A 
ENDROOT
BRANCH   2  11
ATOM     11  C   UNL A   1     -27.222 -11.600  33.782  0.00  0.00    +0.388 C 
ATOM     12  O   UNL A   1     -26.934 -10.814  34.564  0.00  0.00    -0.241 OA
ATOM     13  O   UNL A   1     -26.722 -12.781  33.803  0.00  0.00    -0.241 OA
ENDBRANCH   2  11
BRANCH  10  14
ATOM     14  C   UNL A   1     -31.490  -8.686  29.704  0.00  0.00    +0.388 C 
ATOM     15  O   UNL A   1     -31.211  -7.579  29.504  0.00  0.00    -0.241 OA
ATOM     16  O   UNL A   1     -32.743  -9.097  30.044  0.00  0.00    -0.241 OA
ENDBRANCH  10  14
BRANCH   9  17
ATOM     17  C   UNL A   1     -30.989  -9.964  27.069  0.00  0.00    +0.234 C 
ATOM     18  O   UNL A   1     -32.107 -10.376  26.653  0.00  0.00    -0.283 OA
ENDBRANCH   9  17
TORSDOF 3
ENDMDL
ENDMDL
