MODEL 4248
MODEL 1
REMARK VINA RESULT:    -8.107      0.000      0.000
REMARK INTER + INTRA:          -9.172
REMARK INTER:                  -9.529
REMARK INTRA:                   0.357
REMARK UNBOUND:                 0.357
REMARK  Name = No_4248-gen_results/8p0m/2024-11-27-11-27-31/
REMARK  3 active torsions:
REMARK  status: ('A' for Active; 'I' for Inactive)
REMARK    1  A    between atoms: C_1  and  O_20
REMARK    2  A    between atoms: C_5  and  C_7
REMARK    3  A    between atoms: O_20  and  C_21
REMARK                            x       y       z     vdW  Elec       q    Type
REMARK                         _______ _______ _______ _____ _____    ______ ____
ROOT
ATOM      1  C   UNL A   1     -25.843  -0.271  28.995  0.00  0.00    +0.162 A 
ATOM      2  C   UNL A   1     -25.135   0.380  28.262  0.00  0.00    +0.035 A 
ATOM      3  C   UNL A   1     -25.575   1.116  27.176  0.00  0.00    +0.018 A 
ATOM      4  C   UNL A   1     -26.979   1.126  26.925  0.00  0.00    +0.007 A 
ATOM      5  C   UNL A   1     -27.751   0.514  27.846  0.00  0.00    +0.099 A 
ATOM      6  C   UNL A   1     -27.225  -0.095  28.911  0.00  0.00    +0.130 A 
ATOM      7  C   UNL A   1     -23.544   0.316  28.367  0.00  0.00    +0.006 A 
ATOM      8  C   UNL A   1     -22.936  -0.337  28.845  0.00  0.00    +0.000 A 
ATOM      9  C   UNL A   1     -21.426  -0.371  28.937  0.00  0.00    +0.000 A 
ATOM     10  C   UNL A   1     -20.777   0.580  28.156  0.00  0.00    +0.000 A 
ATOM     11  C   UNL A   1     -21.565   1.456  27.397  0.00  0.00    +0.003 A 
ATOM     12  C   UNL A   1     -23.000   1.411  27.429  0.00  0.00    +0.038 A 
ATOM     13  C   UNL A   1     -23.653   2.258  26.550  0.00  0.00    +0.207 C 
ATOM     14  C   UNL A   1     -24.877   2.096  26.386  0.00  0.00    +0.235 C 
ATOM     15  O   UNL A   1     -22.853   2.734  25.639  0.00  0.00    -0.288 OA
ATOM     16  O   UNL A   1     -25.469   2.772  25.379  0.00  0.00    -0.210 OA
ATOM     17  N   UNL A   1     -27.809  -0.223  30.005  0.00  0.00    -0.125 NA
ENDROOT
BRANCH   5  18
ATOM     18  C   UNL A   1     -29.201   0.584  27.581  0.00  0.00    +0.389 C 
ATOM     19  O   UNL A   1     -29.708   1.561  27.680  0.00  0.00    -0.240 OA
ATOM     20  O   UNL A   1     -29.837  -0.371  26.967  0.00  0.00    -0.240 OA
ENDBRANCH   5  18
BRANCH   1  21
ATOM     21  O   UNL A   1     -25.416  -1.010  30.045  0.00  0.00    -0.452 OA
BRANCH  21  22
ATOM     22  C   UNL A   1     -25.234  -2.331  29.947  0.00  0.00    +0.145 A 
ATOM     23  C   UNL A   1     -26.462  -3.049  30.259  0.00  0.00    +0.037 A 
ATOM     24  C   UNL A   1     -26.538  -4.370  29.694  0.00  0.00    +0.003 A 
ATOM     25  C   UNL A   1     -25.625  -4.784  29.226  0.00  0.00    +0.000 A 
ATOM     26  C   UNL A   1     -24.406  -4.214  28.802  0.00  0.00    +0.003 A 
ATOM     27  C   UNL A   1     -24.328  -2.947  29.188  0.00  0.00    +0.037 A 
ENDBRANCH  21  22
ENDBRANCH   1  21
TORSDOF 3
ENDMDL
ENDMDL
