MODEL 4249
MODEL 1
REMARK VINA RESULT:    -6.907      0.000      0.000
REMARK INTER + INTRA:          -9.893
REMARK INTER:                  -8.522
REMARK INTRA:                  -1.371
REMARK UNBOUND:                -1.371
REMARK  Name = No_4249-gen_results/8p0m/2024-11-27-11-27-31/
REMARK  4 active torsions:
REMARK  status: ('A' for Active; 'I' for Inactive)
REMARK    1  A    between atoms: C_2  and  N_7
REMARK    2  A    between atoms: C_4  and  C_13
REMARK    3  A    between atoms: C_13  and  C_14
REMARK    4  A    between atoms: C_14  and  C_15
REMARK                            x       y       z     vdW  Elec       q    Type
REMARK                         _______ _______ _______ _____ _____    ______ ____
ROOT
ATOM      1  C   UNL A   1     -23.816  -1.067  33.445  0.00  0.00    +0.014 A 
ATOM      2  C   UNL A   1     -24.771  -0.634  33.548  0.00  0.00    +0.048 A 
ATOM      3  C   UNL A   1     -23.282  -1.168  32.077  0.00  0.00    -0.003 A 
ATOM      4  C   UNL A   1     -23.976  -0.575  30.983  0.00  0.00    -0.022 A 
ATOM      5  C   UNL A   1     -25.658   0.097  32.603  0.00  0.00    +0.014 A 
ATOM      6  C   UNL A   1     -25.201   0.017  31.321  0.00  0.00    -0.003 A 
ENDROOT
BRANCH   2   7
ATOM      7  N   UNL A   1     -25.335  -0.505  34.930  0.00  0.00    -0.307 N 
ATOM      8  C   UNL A   1     -24.901  -1.181  35.965  0.00  0.00    +0.091 C 
ATOM      9  C   UNL A   1     -25.461  -0.891  37.207  0.00  0.00    +0.021 C 
ATOM     10  C   UNL A   1     -26.385   0.348  35.171  0.00  0.00    +0.091 C 
ATOM     11  C   UNL A   1     -26.931   0.718  36.332  0.00  0.00    +0.021 C 
ATOM     12  C   UNL A   1     -26.410  -0.004  37.393  0.00  0.00    +0.004 C 
ENDBRANCH   2   7
BRANCH   4  13
ATOM     13  C   UNL A   1     -23.487  -0.683  29.641  0.00  0.00    +0.031 C 
BRANCH  13  14
ATOM     14  C   UNL A   1     -24.341  -1.402  28.738  0.00  0.00    +0.027 C 
ATOM     15  C   UNL A   1     -25.038  -0.598  27.727  0.00  0.00    +0.005 C 
BRANCH  14  16
ATOM     16  C   UNL A   1     -24.706  -2.723  29.004  0.00  0.00    -0.022 A 
ATOM     17  C   UNL A   1     -23.875  -3.649  28.541  0.00  0.00    -0.004 A 
ATOM     18  C   UNL A   1     -24.275  -4.953  28.692  0.00  0.00    -0.000 A 
ATOM     19  C   UNL A   1     -25.469  -5.287  29.363  0.00  0.00    -0.000 A 
ATOM     20  C   UNL A   1     -25.921  -3.157  29.536  0.00  0.00    -0.004 A 
ATOM     21  C   UNL A   1     -26.290  -4.371  29.680  0.00  0.00    -0.000 A 
ENDBRANCH  14  16
ENDBRANCH  13  14
ENDBRANCH   4  13
TORSDOF 4
ENDMDL
ENDMDL
