MODEL 424
MODEL 1
REMARK VINA RESULT:    -5.480      0.000      0.000
REMARK INTER + INTRA:          -6.033
REMARK INTER:                  -5.801
REMARK INTRA:                  -0.232
REMARK UNBOUND:                -0.232
REMARK  Name = No_424-gen_results/8p0m/2024-11-27-11-27-31/
REMARK  1 active torsions:
REMARK  status: ('A' for Active; 'I' for Inactive)
REMARK    1  A    between atoms: C_4  and  C_8
REMARK                            x       y       z     vdW  Elec       q    Type
REMARK                         _______ _______ _______ _____ _____    ______ ____
ROOT
ATOM      1  C   UNL A   1     -30.486 -10.068  29.473  0.00  0.00    +0.007 A 
ATOM      2  C   UNL A   1     -30.028 -10.849  28.933  0.00  0.00    +0.035 A 
ATOM      3  C   UNL A   1     -30.124  -9.950  30.895  0.00  0.00    +0.001 A 
ATOM      4  C   UNL A   1     -29.100 -10.770  31.453  0.00  0.00    +0.002 A 
ATOM      5  C   UNL A   1     -28.914 -11.783  29.252  0.00  0.00    +0.007 A 
ATOM      6  C   UNL A   1     -28.558 -11.710  30.566  0.00  0.00    +0.001 A 
ATOM      7 BR   UNL A   1     -30.493 -11.019  27.013  0.00  0.00    -0.049 Br
ENDROOT
BRANCH   4   8
ATOM      8  C   UNL A   1     -28.705 -10.665  32.839  0.00  0.00    +0.019 A 
ATOM      9  C   UNL A   1     -28.962  -9.396  33.438  0.00  0.00    +0.003 A 
ATOM     10  C   UNL A   1     -28.086  -8.902  34.458  0.00  0.00    +0.021 A 
ATOM     11  C   UNL A   1     -27.171  -9.855  35.007  0.00  0.00    +0.099 A 
ATOM     12  C   UNL A   1     -27.665 -11.473  33.372  0.00  0.00    +0.099 A 
ATOM     13  N   UNL A   1     -26.911 -10.983  34.411  0.00  0.00    -0.242 NA
ENDBRANCH   4   8
TORSDOF 1
ENDMDL
ENDMDL
