REMARK  Name = No_425-gen_results/8p0m/2024-11-27-11-27-31/
REMARK  3 active torsions:
REMARK  status: ('A' for Active; 'I' for Inactive)
REMARK    1  A    between atoms: C_1  and  C_2
REMARK    2  A    between atoms: C_1  and  C_8
REMARK    3  A    between atoms: C_5  and  C_11
REMARK                            x       y       z     vdW  Elec       q    Type
REMARK                         _______ _______ _______ _____ _____    ______ ____
ROOT
ATOM      1  C   UNL A   1     -27.064  -0.119  28.608  0.00  0.00    -0.011 A 
ATOM      2  C   UNL A   1     -27.001   0.691  27.491  0.00  0.00    -0.004 A 
ATOM      3  C   UNL A   1     -25.855   1.482  27.083  0.00  0.00    +0.001 A 
ATOM      4  C   UNL A   1     -24.690   1.453  27.881  0.00  0.00    +0.021 A 
ATOM      5  C   UNL A   1     -24.738   0.601  29.042  0.00  0.00    +0.001 A 
ATOM      6  C   UNL A   1     -25.823  -0.169  29.389  0.00  0.00    -0.004 A 
ENDROOT
BRANCH   4   7
ATOM      7  C   UNL A   1     -23.524   2.217  27.563  0.00  0.00    +0.122 C 
ATOM      8  N   UNL A   1     -22.527   2.236  28.366  0.00  0.00    -0.146 NA
ENDBRANCH   4   7
BRANCH   1   9
ATOM      9  C   UNL A   1     -28.016  -0.814  28.878  0.00  0.00    +0.140 C 
BRANCH   9  10
ATOM     10  C   UNL A   1     -29.225  -0.047  29.280  0.00  0.00    +0.369 C 
ATOM     11  O   UNL A   1     -30.196  -0.796  29.655  0.00  0.00    -0.245 OA
ATOM     12  O   UNL A   1     -29.196   1.115  29.579  0.00  0.00    -0.245 OA
ENDBRANCH   9  10
ENDBRANCH   1   9
TORSDOF 3
