MODEL 4250
MODEL 1
REMARK VINA RESULT:    -8.692      0.000      0.000
REMARK INTER + INTRA:         -14.248
REMARK INTER:                 -12.249
REMARK INTRA:                  -1.999
REMARK UNBOUND:                -1.999
REMARK  Name = No_4250-gen_results/8p0m/2024-11-27-11-27-31/
REMARK  7 active torsions:
REMARK  status: ('A' for Active; 'I' for Inactive)
REMARK    1  A    between atoms: C_3  and  C_21
REMARK    2  A    between atoms: C_5  and  C_17
REMARK    3  A    between atoms: C_8  and  C_9
REMARK    4  A    between atoms: C_13  and  C_33
REMARK    5  A    between atoms: C_16  and  C_27
REMARK    6  A    between atoms: C_26  and  C_30
REMARK    7  A    between atoms: C_33  and  N_34
REMARK                            x       y       z     vdW  Elec       q    Type
REMARK                         _______ _______ _______ _____ _____    ______ ____
ROOT
ATOM      1  C   UNL A   1      -8.845  -0.135  35.726  0.00  0.00    +0.030 C 
ATOM      2  C   UNL A   1      -9.777   0.632  35.799  0.00  0.00    -0.025 A 
ATOM      3  C   UNL A   1     -10.830   0.475  36.679  0.00  0.00    -0.004 A 
ATOM      4  C   UNL A   1     -12.005   1.323  36.752  0.00  0.00    +0.004 A 
ATOM      5  C   UNL A   1     -12.186   2.094  36.010  0.00  0.00    +0.071 A 
ATOM      6  C   UNL A   1     -11.216   2.478  34.935  0.00  0.00    -0.000 A 
ATOM      7  C   UNL A   1     -10.044   1.691  34.829  0.00  0.00    -0.023 A 
ATOM      8  C   UNL A   1      -7.734   0.307  34.826  0.00  0.00    +0.027 C 
ATOM      9  C   UNL A   1      -7.579   1.714  34.790  0.00  0.00    +0.013 C 
ATOM     10  C   UNL A   1      -8.857   2.417  34.390  0.00  0.00    +0.041 C 
ENDROOT
BRANCH   8  11
ATOM     11  C   UNL A   1      -6.544  -0.514  34.780  0.00  0.00    -0.022 A 
ATOM     12  C   UNL A   1      -6.669  -1.801  34.527  0.00  0.00    -0.004 A 
ATOM     13  C   UNL A   1      -5.489  -2.575  34.454  0.00  0.00    -0.001 A 
ATOM     14  C   UNL A   1      -4.258  -2.020  34.705  0.00  0.00    -0.003 A 
ATOM     15  C   UNL A   1      -4.189  -0.681  34.910  0.00  0.00    -0.005 A 
ATOM     16  C   UNL A   1      -5.341   0.110  34.930  0.00  0.00    -0.007 A 
BRANCH  15  17
ATOM     17  C   UNL A   1      -2.840  -0.047  35.101  0.00  0.00    +0.115 C 
BRANCH  17  18
ATOM     18  N   UNL A   1      -2.431   0.803  34.544  0.00  0.00    -0.212 NA
ATOM     19  C   UNL A   1      -1.949   0.731  33.361  0.00  0.00    +0.108 C 
ENDBRANCH  17  18
ENDBRANCH  15  17
ENDBRANCH   8  11
BRANCH   3  20
ATOM     20  C   UNL A   1     -10.767  -0.626  37.712  0.00  0.00    -0.001 A 
ATOM     21  C   UNL A   1     -11.491  -1.753  37.570  0.00  0.00    -0.000 A 
ATOM     22  C   UNL A   1     -11.774  -2.390  38.527  0.00  0.00    -0.000 A 
ATOM     23  C   UNL A   1     -11.214  -2.313  39.854  0.00  0.00    -0.000 A 
ATOM     24  C   UNL A   1      -9.960  -0.433  38.867  0.00  0.00    -0.000 A 
ATOM     25  C   UNL A   1     -10.228  -1.259  39.968  0.00  0.00    +0.025 A 
BRANCH  25  26
ATOM     26  C   UNL A   1      -9.510  -1.122  41.233  0.00  0.00    +0.262 C 
ATOM     27 CL   UNL A   1      -8.928  -0.421  41.709  0.00  0.00    -0.072 Cl
ATOM     28  F   UNL A   1      -9.363  -2.451  41.566  0.00  0.00    -0.214 F 
ENDBRANCH  25  26
ENDBRANCH   3  20
BRANCH   5  29
ATOM     29  C   UNL A   1     -13.481   2.990  35.899  0.00  0.00    +0.419 C 
ATOM     30  F   UNL A   1     -13.380   4.138  36.234  0.00  0.00    -0.166 F 
ATOM     31  F   UNL A   1     -13.954   2.995  34.513  0.00  0.00    -0.166 F 
ATOM     32  F   UNL A   1     -14.634   2.477  36.498  0.00  0.00    -0.166 F 
ENDBRANCH   5  29
BRANCH  10  33
ATOM     33  C   UNL A   1      -8.853   3.677  33.684  0.00  0.00    -0.040 C 
ATOM     34  C   UNL A   1      -9.038   4.657  34.256  0.00  0.00    -0.009 C 
ATOM     35  C   UNL A   1      -8.173   3.693  32.387  0.00  0.00    +0.027 C 
ENDBRANCH  10  33
TORSDOF 7
ENDMDL
ENDMDL
