REMARK  Name = No_4250-gen_results/8p0m/2024-11-27-11-27-31/
REMARK  7 active torsions:
REMARK  status: ('A' for Active; 'I' for Inactive)
REMARK    1  A    between atoms: C_3  and  C_21
REMARK    2  A    between atoms: C_5  and  C_17
REMARK    3  A    between atoms: C_8  and  C_9
REMARK    4  A    between atoms: C_13  and  C_33
REMARK    5  A    between atoms: C_16  and  C_27
REMARK    6  A    between atoms: C_26  and  C_30
REMARK    7  A    between atoms: C_33  and  N_34
REMARK                            x       y       z     vdW  Elec       q    Type
REMARK                         _______ _______ _______ _____ _____    ______ ____
ROOT
ATOM      1  C   UNL A   1     -28.016  -0.814  28.878  0.00  0.00    +0.030 C 
ATOM      2  C   UNL A   1     -27.064  -0.119  28.608  0.00  0.00    -0.025 A 
ATOM      3  C   UNL A   1     -27.001   0.691  27.491  0.00  0.00    -0.004 A 
ATOM      4  C   UNL A   1     -25.855   1.482  27.083  0.00  0.00    +0.004 A 
ATOM      5  C   UNL A   1     -24.901   1.389  27.592  0.00  0.00    +0.071 A 
ATOM      6  C   UNL A   1     -24.678   0.576  28.830  0.00  0.00    -0.000 A 
ATOM      7  C   UNL A   1     -25.770  -0.205  29.280  0.00  0.00    -0.023 A 
ATOM      8  C   UNL A   1     -27.947  -1.484  30.215  0.00  0.00    +0.027 C 
ATOM      9  C   UNL A   1     -27.252  -0.718  31.182  0.00  0.00    +0.013 C 
ATOM     10  C   UNL A   1     -25.854  -0.362  30.728  0.00  0.00    +0.041 C 
ENDROOT
BRANCH   8  11
ATOM     11  C   UNL A   1     -29.102  -2.242  30.643  0.00  0.00    -0.022 A 
ATOM     12  C   UNL A   1     -28.927  -3.466  31.098  0.00  0.00    -0.004 A 
ATOM     13  C   UNL A   1     -30.067  -4.173  31.540  0.00  0.00    -0.001 A 
ATOM     14  C   UNL A   1     -31.325  -3.630  31.438  0.00  0.00    -0.003 A 
ATOM     15  C   UNL A   1     -31.436  -2.349  31.009  0.00  0.00    -0.005 A 
ATOM     16  C   UNL A   1     -30.312  -1.614  30.619  0.00  0.00    -0.007 A 
BRANCH  15  17
ATOM     17  C   UNL A   1     -32.797  -1.713  30.973  0.00  0.00    +0.115 C 
BRANCH  17  18
ATOM     18  N   UNL A   1     -33.407  -1.521  30.084  0.00  0.00    -0.212 NA
ATOM     19  C   UNL A   1     -33.083  -1.863  28.894  0.00  0.00    +0.108 C 
ENDBRANCH  17  18
ENDBRANCH  15  17
ENDBRANCH   8  11
BRANCH   3  20
ATOM     20  C   UNL A   1     -28.228   0.842  26.622  0.00  0.00    -0.001 A 
ATOM     21  C   UNL A   1     -28.218   0.456  25.332  0.00  0.00    -0.000 A 
ATOM     22  C   UNL A   1     -28.980   0.944  24.570  0.00  0.00    -0.000 A 
ATOM     23  C   UNL A   1     -30.163   1.718  24.855  0.00  0.00    -0.000 A 
ATOM     24  C   UNL A   1     -29.389   1.445  27.181  0.00  0.00    -0.000 A 
ATOM     25  C   UNL A   1     -30.343   1.933  26.276  0.00  0.00    +0.025 A 
BRANCH  25  26
ATOM     26  C   UNL A   1     -31.551   2.625  26.720  0.00  0.00    +0.262 C 
ATOM     27 CL   UNL A   1     -32.568   2.535  26.605  0.00  0.00    -0.072 Cl
ATOM     28  F   UNL A   1     -31.018   3.858  27.024  0.00  0.00    -0.214 F 
ENDBRANCH  25  26
ENDBRANCH   3  20
BRANCH   5  29
ATOM     29  C   UNL A   1     -23.551   2.089  27.168  0.00  0.00    +0.419 C 
ATOM     30  F   UNL A   1     -23.549   2.686  26.127  0.00  0.00    -0.166 F 
ATOM     31  F   UNL A   1     -23.151   3.045  28.203  0.00  0.00    -0.166 F 
ATOM     32  F   UNL A   1     -22.409   1.284  27.194  0.00  0.00    -0.166 F 
ENDBRANCH   5  29
BRANCH  10  33
ATOM     33  C   UNL A   1     -24.766  -0.177  31.660  0.00  0.00    -0.040 C 
ATOM     34  C   UNL A   1     -23.705  -0.520  31.381  0.00  0.00    -0.009 C 
ATOM     35  C   UNL A   1     -24.968   0.832  32.702  0.00  0.00    +0.027 C 
ENDBRANCH  10  33
TORSDOF 7
