REMARK  Name = outputs/IAG933/test6/raw/output_4251_IAG933_linker_design_.xyz
REMARK  4 active torsions:
REMARK  status: ('A' for Active; 'I' for Inactive)
REMARK    1  A    between atoms: C_1  and  C_2
REMARK    2  A    between atoms: C_1  and  C_8
REMARK    3  A    between atoms: C_1  and  N_43
REMARK    4  A    between atoms: C_14  and  C_15
REMARK                            x       y       z     vdW  Elec       q    Type
REMARK                         _______ _______ _______ _____ _____    ______ ____
ROOT
ATOM      1  C   UNL A   1     -25.688   1.614  26.461  0.00  0.00    +0.103 C 
ATOM      2  C   UNL A   1     -26.250   2.920  26.395  0.00  0.00    +0.060 C 
ATOM      3  C   UNL A   1     -27.438   3.091  25.645  0.00  0.00    +0.102 C 
ATOM      4  N   UNL A   1     -28.075   2.089  25.003  0.00  0.00    -0.212 NA
ATOM      5  C   UNL A   1     -27.543   0.849  25.079  0.00  0.00    +0.234 C 
ATOM      6  O   UNL A   1     -28.193  -0.208  24.477  0.00  0.00    -0.457 OA
ATOM      7  C   UNL A   1     -29.460   0.005  23.866  0.00  0.00    +0.254 C 
ATOM      8  C   UNL A   1     -30.065  -1.377  23.573  0.00  0.00    +0.256 C 
ATOM      9  O   UNL A   1     -30.729  -1.878  24.721  0.00  0.00    -0.444 OA
ATOM     10  C   UNL A   1     -26.354   0.576  25.777  0.00  0.00    +0.245 C 
ATOM     11  F   UNL A   1     -25.860  -0.681  25.795  0.00  0.00    -0.227 F 
ATOM     12  C   UNL A   1     -31.146  -0.762  28.350  0.00  0.00    +0.059 C 
ATOM     13  C   UNL A   1     -28.632  -0.115  28.161  0.00  0.00    +0.003 C 
ATOM     14  C   UNL A   1     -21.706   1.579  27.451  0.00  0.00    +0.036 C 
ATOM     15  C   UNL A   1     -23.506   0.302  28.639  0.00  0.00    +0.246 C 
ATOM     16  C   UNL A   1     -26.043   0.501  28.666  0.00  0.00    +0.094 C 
ATOM     17 CL   UNL A   1     -23.253   2.553  25.255  0.00  0.00    -0.087 Cl
ATOM     18  C   UNL A   1     -31.361  -1.735  25.894  0.00  0.00    +0.318 C 
ATOM     19  C   UNL A   1     -24.162   1.586  26.523  0.00  0.00    +0.043 C 
ATOM     20  C   UNL A   1     -30.898   0.255  31.019  0.00  0.00    +0.012 C 
ATOM     21  C   UNL A   1     -29.985   0.112  28.764  0.00  0.00    +0.011 C 
ATOM     22  O   UNL A   1     -32.347  -2.455  26.231  0.00  0.00    -0.250 OA
ATOM     23  C   UNL A   1     -31.633  -0.997  30.815  0.00  0.00    +0.058 C 
ATOM     24  S   UNL A   1     -31.486  -2.046  29.541  0.00  0.00    -0.141 S 
ATOM     25  C   UNL A   1     -29.698   0.156  30.203  0.00  0.00    +0.002 C 
ATOM     26  C   UNL A   1     -28.730  -0.819  30.836  0.00  0.00    +0.000 C 
ATOM     27  N   UNL A   1     -24.715  -0.150  28.978  0.00  0.00    -0.273 N 
ATOM     28  C   UNL A   1     -23.152   1.125  27.491  0.00  0.00    +0.039 C 
ATOM     29  O   UNL A   1     -22.570  -0.068  29.356  0.00  0.00    -0.270 OA
ATOM     30  C   UNL A   1     -30.912  -0.706  26.896  0.00  0.00    +0.120 C 
ATOM     31  C   UNL A   1     -27.258  -0.532  28.727  0.00  0.00    +0.022 C 
ENDROOT
BRANCH   2  32
ATOM     32  C   UNL A   1     -25.642   4.093  27.123  0.00  0.00    +0.263 C 
ATOM     33  N   UNL A   1     -25.614   5.252  26.449  0.00  0.00    -0.200 NA
ATOM     34  C   UNL A   1     -25.026   6.479  26.963  0.00  0.00    +0.139 C 
ATOM     35  O   UNL A   1     -25.143   3.966  28.243  0.00  0.00    -0.269 OA
ENDBRANCH   2  32
BRANCH  27  36
ATOM     36  C   UNL A   1     -24.855  -1.012  30.143  0.00  0.00    +0.114 C 
BRANCH  36  37
ATOM     37  C   UNL A   1     -24.973  -2.505  29.788  0.00  0.00    -0.003 C 
ATOM     38  C   UNL A   1     -23.906  -3.173  29.146  0.00  0.00    -0.003 C 
ATOM     39  C   UNL A   1     -23.989  -4.549  28.853  0.00  0.00    -0.000 C 
ATOM     40  C   UNL A   1     -25.137  -5.280  29.205  0.00  0.00    -0.000 C 
ATOM     41  C   UNL A   1     -26.232  -4.611  29.784  0.00  0.00    -0.000 C 
ATOM     42  C   UNL A   1     -26.155  -3.232  30.065  0.00  0.00    -0.003 C 
ENDBRANCH  36  37
BRANCH  36  43
ATOM     43  C   UNL A   1     -25.387  -0.679  31.571  0.00  0.00    +0.095 C 
ATOM     44  C   UNL A   1     -25.189   0.773  32.028  0.00  0.00    +0.021 C 
ATOM     45  C   UNL A   1     -25.336   0.684  33.544  0.00  0.00    +0.020 C 
ATOM     46  C   UNL A   1     -24.829  -0.715  33.905  0.00  0.00    +0.089 C 
ATOM     47  N   UNL A   1     -24.758  -1.481  32.646  0.00  0.00    -0.217 NA
ENDBRANCH  36  43
ENDBRANCH  27  36
TORSDOF 4
