MODEL 4251
MODEL 1
REMARK VINA RESULT:    -5.809      0.000      0.000
REMARK INTER + INTRA:          -6.723
REMARK INTER:                  -6.488
REMARK INTRA:                  -0.235
REMARK UNBOUND:                -0.235
REMARK  Name = No_4251-gen_results/8p0m/2024-11-27-11-27-31/
REMARK  2 active torsions:
REMARK  status: ('A' for Active; 'I' for Inactive)
REMARK    1  A    between atoms: C_2  and  C_12
REMARK    2  A    between atoms: C_3  and  C_7
REMARK                            x       y       z     vdW  Elec       q    Type
REMARK                         _______ _______ _______ _____ _____    ______ ____
ROOT
ATOM      1  C   UNL A   1     -28.504 -11.793  31.172  0.00  0.00    +0.011 A 
ATOM      2  C   UNL A   1     -28.321 -11.443  32.149  0.00  0.00    +0.081 A 
ATOM      3  C   UNL A   1     -29.411 -10.932  30.403  0.00  0.00    +0.072 A 
ATOM      4  C   UNL A   1     -30.076  -9.917  30.957  0.00  0.00    +0.015 A 
ATOM      5  C   UNL A   1     -28.922 -10.409  32.957  0.00  0.00    +0.018 A 
ATOM      6  C   UNL A   1     -29.780  -9.637  32.232  0.00  0.00    +0.058 A 
ATOM      7 CL   UNL A   1     -30.613  -8.334  33.009  0.00  0.00    -0.082 Cl
ENDROOT
BRANCH   3   8
ATOM      8  C   UNL A   1     -29.620 -11.326  28.939  0.00  0.00    +0.419 C 
ATOM      9  F   UNL A   1     -28.643 -11.708  28.367  0.00  0.00    -0.166 F 
ATOM     10  F   UNL A   1     -30.189 -10.277  28.258  0.00  0.00    -0.166 F 
ATOM     11  F   UNL A   1     -30.558 -12.357  28.823  0.00  0.00    -0.166 F 
ENDBRANCH   3   8
BRANCH   2  12
ATOM     12  C   UNL A   1     -27.239 -12.339  33.086  0.00  0.00    +0.388 C 
ATOM     13  O   UNL A   1     -26.390 -12.983  32.599  0.00  0.00    -0.241 OA
ATOM     14  O   UNL A   1     -27.322 -12.183  34.352  0.00  0.00    -0.241 OA
ENDBRANCH   2  12
TORSDOF 2
ENDMDL
ENDMDL
