MODEL 4252
MODEL 1
REMARK VINA RESULT:    -6.304      0.000      0.000
REMARK INTER + INTRA:          -8.065
REMARK INTER:                  -7.410
REMARK INTRA:                  -0.655
REMARK UNBOUND:                -0.655
REMARK  Name = No_4252-gen_results/8p0m/2024-11-27-11-27-31/
REMARK  3 active torsions:
REMARK  status: ('A' for Active; 'I' for Inactive)
REMARK    1  A    between atoms: C_4  and  C_7
REMARK    2  A    between atoms: C_7  and  C_11
REMARK    3  A    between atoms: C_8  and  C_9
REMARK                            x       y       z     vdW  Elec       q    Type
REMARK                         _______ _______ _______ _____ _____    ______ ____
ROOT
ATOM      1  C   UNL A   1     -24.468  -1.345  29.052  0.00  0.00    +0.036 C 
ATOM      2  C   UNL A   1     -24.259  -0.734  28.100  0.00  0.00    +0.002 C 
ENDROOT
BRANCH   2   3
ATOM      3  C   UNL A   1     -24.189   0.177  27.509  0.00  0.00    -0.008 C 
ATOM      4  C   UNL A   1     -24.253   1.504  26.997  0.00  0.00    -0.044 C 
ATOM      5  C   UNL A   1     -23.850   2.483  26.087  0.00  0.00    +0.022 C 
ATOM      6  C   UNL A   1     -23.870   3.618  25.581  0.00  0.00    +0.004 C 
ATOM      7  C   UNL A   1     -24.654   4.353  26.425  0.00  0.00    +0.001 C 
ATOM      8  C   UNL A   1     -25.297   3.856  27.541  0.00  0.00    +0.004 C 
ATOM      9  C   UNL A   1     -25.069   2.514  27.857  0.00  0.00    +0.022 C 
ENDBRANCH   2   3
BRANCH   1  13
ATOM     10  C   UNL A   1     -24.090  -4.925  28.585  0.00  0.00    +0.102 A 
ATOM     11  C   UNL A   1     -24.956  -5.234  29.099  0.00  0.00    +0.041 A 
ATOM     12  N   UNL A   1     -23.819  -3.566  28.610  0.00  0.00    -0.225 NA
ATOM     13  C   UNL A   1     -24.805  -2.869  29.103  0.00  0.00    +0.162 A 
ATOM     14  C   UNL A   1     -26.088  -4.624  29.644  0.00  0.00    +0.102 A 
ATOM     15  N   UNL A   1     -25.861  -3.266  29.643  0.00  0.00    -0.225 NA
ENDBRANCH   1  13
BRANCH   1  16
ATOM     16  C   UNL A   1     -24.376  -0.823  30.437  0.00  0.00    +0.003 C 
ATOM     17  C   UNL A   1     -23.055  -0.760  30.898  0.00  0.00    +0.000 C 
ENDBRANCH   1  16
TORSDOF 3
ENDMDL
ENDMDL
