MODEL 4253
MODEL 1
REMARK VINA RESULT:    -5.254      0.000      0.000
REMARK INTER + INTRA:          -5.713
REMARK INTER:                  -5.561
REMARK INTRA:                  -0.152
REMARK UNBOUND:                -0.152
REMARK  Name = No_4253-gen_results/8p0m/2024-11-27-11-27-31/
REMARK  1 active torsions:
REMARK  status: ('A' for Active; 'I' for Inactive)
REMARK    1  A    between atoms: C_2  and  C_7
REMARK                            x       y       z     vdW  Elec       q    Type
REMARK                         _______ _______ _______ _____ _____    ______ ____
ROOT
ATOM      1  C   UNL A   1     -25.530  -2.583  29.597  0.00  0.00    +0.004 A 
ATOM      2  C   UNL A   1     -24.419  -2.767  29.156  0.00  0.00    +0.071 A 
ATOM      3  C   UNL A   1     -23.987  -4.041  28.805  0.00  0.00    +0.004 A 
ATOM      4  C   UNL A   1     -24.834  -5.190  29.000  0.00  0.00    -0.000 A 
ATOM      5  C   UNL A   1     -26.093  -4.890  29.537  0.00  0.00    -0.000 A 
ATOM      6  C   UNL A   1     -26.446  -3.669  29.867  0.00  0.00    -0.000 A 
ENDROOT
BRANCH   2   7
ATOM      7  C   UNL A   1     -23.540  -1.601  29.064  0.00  0.00    +0.419 C 
ATOM      8  F   UNL A   1     -22.388  -1.849  28.806  0.00  0.00    -0.166 F 
ATOM      9  F   UNL A   1     -23.522  -0.887  30.209  0.00  0.00    -0.166 F 
ATOM     10  F   UNL A   1     -23.993  -0.791  28.035  0.00  0.00    -0.166 F 
ENDBRANCH   2   7
TORSDOF 1
ENDMDL
ENDMDL
