MODEL 4255
MODEL 1
REMARK VINA RESULT:    -9.208      0.000      0.000
REMARK INTER + INTRA:         -12.476
REMARK INTER:                 -11.362
REMARK INTRA:                  -1.114
REMARK UNBOUND:                -1.114
REMARK  Name = No_4255-gen_results/8p0m/2024-11-27-11-27-31/
REMARK  4 active torsions:
REMARK  status: ('A' for Active; 'I' for Inactive)
REMARK    1  A    between atoms: C_5  and  C_8
REMARK    2  A    between atoms: C_13  and  C_14
REMARK    3  A    between atoms: N_15  and  C_17
REMARK    4  A    between atoms: C_22  and  C_23
REMARK                            x       y       z     vdW  Elec       q    Type
REMARK                         _______ _______ _______ _____ _____    ______ ____
ROOT
ATOM      1  C   UNL A   1     -24.124   1.631  27.245  0.00  0.00    -0.040 C 
ATOM      2  C   UNL A   1     -23.295   1.641  26.294  0.00  0.00    -0.009 C 
ATOM      3  C   UNL A   1     -23.133   2.713  25.336  0.00  0.00    -0.005 C 
ATOM      4  C   UNL A   1     -23.969   3.808  25.538  0.00  0.00    -0.017 C 
ATOM      5  C   UNL A   1     -24.580   2.878  27.543  0.00  0.00    +0.036 C 
ATOM      6  C   UNL A   1     -24.667   3.881  26.691  0.00  0.00    +0.104 C 
ENDROOT
BRANCH   1  11
ATOM      7  C   UNL A   1     -25.081   0.557  29.261  0.00  0.00    +0.040 C 
ATOM      8  C   UNL A   1     -25.100  -0.481  29.880  0.00  0.00    +0.117 C 
ATOM      9  C   UNL A   1     -24.204  -0.716  30.918  0.00  0.00    +0.001 C 
ATOM     10  C   UNL A   1     -23.199  -1.247  30.878  0.00  0.00    -0.003 C 
ATOM     11  C   UNL A   1     -24.132   0.643  28.337  0.00  0.00    +0.043 C 
ATOM     12  C   UNL A   1     -22.667   0.263  28.608  0.00  0.00    -0.022 C 
ATOM     13  C   UNL A   1     -22.207  -0.641  29.625  0.00  0.00    -0.004 C 
ATOM     14  C   UNL A   1     -26.503  -1.019  30.396  0.00  0.00    +0.057 C 
ATOM     15  C   UNL A   1     -26.707  -2.369  30.247  0.00  0.00    -0.025 C 
ATOM     16  C   UNL A   1     -25.946  -3.054  29.776  0.00  0.00    +0.005 C 
ATOM     17  C   UNL A   1     -26.148  -4.569  29.690  0.00  0.00    -0.002 C 
ATOM     18  C   UNL A   1     -25.275  -5.472  29.091  0.00  0.00    -0.001 C 
ATOM     19  C   UNL A   1     -24.081  -4.937  28.574  0.00  0.00    -0.002 C 
ATOM     20  C   UNL A   1     -23.824  -3.579  28.619  0.00  0.00    +0.007 C 
ATOM     21  C   UNL A   1     -24.682  -2.793  29.143  0.00  0.00    +0.159 C 
ATOM     22  O   UNL A   1     -24.147  -1.880  29.424  0.00  0.00    -0.348 OA
ENDBRANCH   1  11
BRANCH   6  23
ATOM     23  C   UNL A   1     -25.420   5.133  26.996  0.00  0.00    +0.249 C 
ATOM     24  N   UNL A   1     -25.071   6.182  26.895  0.00  0.00    -0.179 NA
ATOM     25  O   UNL A   1     -26.695   4.915  27.292  0.00  0.00    -0.273 OA
BRANCH  24  26
ATOM     26  C   UNL A   1     -25.516   7.351  26.958  0.00  0.00    +0.069 C 
ATOM     27  C   UNL A   1     -26.091   8.087  26.324  0.00  0.00    -0.009 C 
ATOM     28  C   UNL A   1     -25.005   7.934  28.233  0.00  0.00    +0.012 C 
ATOM     29  C   UNL A   1     -25.254   9.324  28.511  0.00  0.00    -0.014 C 
ATOM     30  C   UNL A   1     -26.455   9.447  26.416  0.00  0.00    +0.043 C 
ATOM     31  C   UNL A   1     -26.010  10.028  27.610  0.00  0.00    +0.130 C 
BRANCH  31  32
ATOM     32  C   UNL A   1     -26.296  11.469  27.710  0.00  0.00    +0.369 C 
ATOM     33  O   UNL A   1     -26.658  12.161  27.061  0.00  0.00    -0.245 OA
ATOM     34  O   UNL A   1     -26.277  11.740  29.087  0.00  0.00    -0.245 OA
ENDBRANCH  31  32
ENDBRANCH  24  26
ENDBRANCH   6  23
TORSDOF 4
ENDMDL
ENDMDL
