REMARK  Name = No_4256-gen_results/8p0m/2024-11-27-11-27-31/
REMARK  7 active torsions:
REMARK  status: ('A' for Active; 'I' for Inactive)
REMARK    1  A    between atoms: C_3  and  C_11
REMARK    2  A    between atoms: C_6  and  C_15
REMARK    3  A    between atoms: C_8  and  O_18
REMARK    4  A    between atoms: O_18  and  C_19
REMARK    5  A    between atoms: N_23  and  C_25
REMARK    6  A    between atoms: C_29  and  C_32
REMARK    7  A    between atoms: C_33  and  C_34
REMARK                            x       y       z     vdW  Elec       q    Type
REMARK                         _______ _______ _______ _____ _____    ______ ____
ROOT
ATOM      1  O   UNL A   1     -29.126  -2.343  30.425  0.00  0.00    -0.468 OA
ENDROOT
BRANCH   1   9
ATOM      2  C   UNL A   1     -28.016  -0.814  28.878  0.00  0.00    +0.037 A 
ATOM      3  C   UNL A   1     -27.064  -0.119  28.608  0.00  0.00    +0.007 A 
ATOM      4  C   UNL A   1     -26.972   0.714  27.506  0.00  0.00    +0.071 A 
ATOM      5  C   UNL A   1     -25.820   1.491  27.116  0.00  0.00    +0.004 A 
ATOM      6  C   UNL A   1     -24.656   1.424  27.918  0.00  0.00    +0.005 A 
ATOM      7  C   UNL A   1     -24.711   0.542  29.051  0.00  0.00    +0.057 A 
ATOM      8  C   UNL A   1     -25.804  -0.206  29.388  0.00  0.00    +0.005 A 
ATOM      9  C   UNL A   1     -28.031  -1.590  30.149  0.00  0.00    +0.139 A 
ATOM     10  C   UNL A   1     -26.810  -1.796  30.851  0.00  0.00    +0.037 A 
ATOM     11  C   UNL A   1     -25.696  -1.068  30.503  0.00  0.00    +0.003 A 
BRANCH   4  12
ATOM     12  C   UNL A   1     -28.091   0.880  26.538  0.00  0.00    +0.419 C 
ATOM     13  F   UNL A   1     -27.758   0.979  25.378  0.00  0.00    -0.166 F 
ATOM     14  F   UNL A   1     -28.756   1.929  26.988  0.00  0.00    -0.166 F 
ATOM     15  F   UNL A   1     -28.941  -0.175  26.596  0.00  0.00    -0.166 F 
ENDBRANCH   4  12
BRANCH   7  16
ATOM     16  C   UNL A   1     -23.428   0.533  29.843  0.00  0.00    +0.284 C 
ATOM     17  O   UNL A   1     -22.828   1.507  30.094  0.00  0.00    -0.267 OA
ATOM     18  N   UNL A   1     -22.953  -0.713  30.209  0.00  0.00    -0.084 NA
ENDBRANCH   7  16
ENDBRANCH   1   9
BRANCH   1  19
ATOM     19  C   UNL A   1     -29.011  -3.698  30.467  0.00  0.00    +0.259 C 
ATOM     20  C   UNL A   1     -28.363  -4.396  30.887  0.00  0.00    +0.144 C 
ATOM     21  C   UNL A   1     -30.319  -4.286  29.840  0.00  0.00    +0.272 C 
ATOM     22  O   UNL A   1     -31.084  -3.647  29.257  0.00  0.00    -0.271 OA
ATOM     23  N   UNL A   1     -30.250  -5.713  29.761  0.00  0.00    -0.240 N 
ATOM     24  N   UNL A   1     -28.347  -5.770  31.140  0.00  0.00    -0.193 NA
ATOM     25  C   UNL A   1     -29.385  -6.343  30.601  0.00  0.00    +0.190 C 
BRANCH  23  26
ATOM     26  C   UNL A   1     -31.345  -6.282  29.268  0.00  0.00    +0.055 A 
ATOM     27  C   UNL A   1     -31.616  -6.133  27.935  0.00  0.00    +0.015 A 
ATOM     28  C   UNL A   1     -32.195  -7.010  27.114  0.00  0.00    +0.001 A 
ATOM     29  C   UNL A   1     -32.700  -8.164  27.696  0.00  0.00    -0.000 A 
ATOM     30  C   UNL A   1     -32.454  -8.379  29.082  0.00  0.00    +0.001 A 
ATOM     31  C   UNL A   1     -31.718  -7.532  29.832  0.00  0.00    +0.015 A 
BRANCH  29  32
ATOM     32  C   UNL A   1     -33.481  -9.098  26.904  0.00  0.00    -0.005 C 
ATOM     33  C   UNL A   1     -33.039 -10.052  26.350  0.00  0.00    -0.026 C 
BRANCH  33  34
ATOM     34  C   UNL A   1     -31.613 -10.369  26.497  0.00  0.00    +0.026 C 
ATOM     35  C   UNL A   1     -30.932 -10.113  27.418  0.00  0.00    +0.005 C 
ENDBRANCH  33  34
ENDBRANCH  29  32
ENDBRANCH  23  26
ENDBRANCH   1  19
TORSDOF 7
