MODEL 4256
MODEL 1
REMARK VINA RESULT:    -7.434      0.000      0.000
REMARK INTER + INTRA:         -11.743
REMARK INTER:                 -10.476
REMARK INTRA:                  -1.267
REMARK UNBOUND:                -1.267
REMARK  Name = No_4256-gen_results/8p0m/2024-11-27-11-27-31/
REMARK  7 active torsions:
REMARK  status: ('A' for Active; 'I' for Inactive)
REMARK    1  A    between atoms: C_3  and  C_11
REMARK    2  A    between atoms: C_6  and  C_15
REMARK    3  A    between atoms: C_8  and  O_18
REMARK    4  A    between atoms: O_18  and  C_19
REMARK    5  A    between atoms: N_23  and  C_25
REMARK    6  A    between atoms: C_29  and  C_32
REMARK    7  A    between atoms: C_33  and  C_34
REMARK                            x       y       z     vdW  Elec       q    Type
REMARK                         _______ _______ _______ _____ _____    ______ ____
ROOT
ATOM      1  O   UNL A   1     -28.611  -9.941   8.429  0.00  0.00    -0.468 OA
ENDROOT
BRANCH   1   9
ATOM      2  C   UNL A   1     -29.233 -11.649  10.060  0.00  0.00    +0.037 A 
ATOM      3  C   UNL A   1     -29.441 -12.811  10.319  0.00  0.00    +0.007 A 
ATOM      4  C   UNL A   1     -29.916 -13.286  11.530  0.00  0.00    +0.071 A 
ATOM      5  C   UNL A   1     -30.097 -14.671  11.893  0.00  0.00    +0.004 A 
ATOM      6  C   UNL A   1     -29.772 -15.667  10.942  0.00  0.00    +0.005 A 
ATOM      7  C   UNL A   1     -29.246 -15.206   9.688  0.00  0.00    +0.057 A 
ATOM      8  C   UNL A   1     -29.057 -13.889   9.373  0.00  0.00    +0.005 A 
ATOM      9  C   UNL A   1     -28.816 -11.258   8.685  0.00  0.00    +0.139 A 
ATOM     10  C   UNL A   1     -28.324 -12.257   7.798  0.00  0.00    +0.037 A 
ATOM     11  C   UNL A   1     -28.483 -13.586   8.117  0.00  0.00    +0.003 A 
BRANCH   4  12
ATOM     12  C   UNL A   1     -30.276 -12.379  12.654  0.00  0.00    +0.419 C 
ATOM     13  F   UNL A   1     -29.399 -11.623  13.008  0.00  0.00    -0.166 F 
ATOM     14  F   UNL A   1     -30.688 -13.194  13.609  0.00  0.00    -0.166 F 
ATOM     15  F   UNL A   1     -31.335 -11.597  12.325  0.00  0.00    -0.166 F 
ENDBRANCH   4  12
BRANCH   7  16
ATOM     16  C   UNL A   1     -28.926 -16.335   8.741  0.00  0.00    +0.284 C 
ATOM     17  O   UNL A   1     -29.659 -16.684   7.897  0.00  0.00    -0.267 OA
ATOM     18  N   UNL A   1     -27.730 -16.991   8.965  0.00  0.00    -0.084 NA
ENDBRANCH   7  16
ENDBRANCH   1   9
BRANCH   1  19
ATOM     19  C   UNL A   1     -29.671  -9.151   8.105  0.00  0.00    +0.259 C 
ATOM     20  C   UNL A   1     -30.498  -9.204   7.476  0.00  0.00    +0.144 C 
ATOM     21  C   UNL A   1     -29.658  -7.943   9.100  0.00  0.00    +0.272 C 
ATOM     22  O   UNL A   1     -28.765  -7.700   9.790  0.00  0.00    -0.271 OA
ATOM     23  N   UNL A   1     -30.692  -7.007   8.778  0.00  0.00    -0.240 N 
ATOM     24  N   UNL A   1     -31.705  -8.524   7.297  0.00  0.00    -0.193 NA
ATOM     25  C   UNL A   1     -31.749  -7.469   8.058  0.00  0.00    +0.190 C 
BRANCH  23  26
ATOM     26  C   UNL A   1     -30.760  -5.970   9.606  0.00  0.00    +0.055 A 
ATOM     27  C   UNL A   1     -30.802  -4.710   9.074  0.00  0.00    +0.015 A 
ATOM     28  C   UNL A   1     -31.453  -3.644   9.543  0.00  0.00    +0.001 A 
ATOM     29  C   UNL A   1     -32.060  -3.784  10.782  0.00  0.00    -0.000 A 
ATOM     30  C   UNL A   1     -32.051  -5.071  11.392  0.00  0.00    +0.001 A 
ATOM     31  C   UNL A   1     -31.517  -6.157  10.795  0.00  0.00    +0.015 A 
BRANCH  29  32
ATOM     32  C   UNL A   1     -32.656  -2.632  11.436  0.00  0.00    -0.005 C 
ATOM     33  C   UNL A   1     -33.782  -2.280  11.295  0.00  0.00    -0.026 C 
BRANCH  33  34
ATOM     34  C   UNL A   1     -34.680  -3.072  10.445  0.00  0.00    +0.026 C 
ATOM     35  C   UNL A   1     -35.571  -3.745  10.807  0.00  0.00    +0.005 C 
ENDBRANCH  33  34
ENDBRANCH  29  32
ENDBRANCH  23  26
ENDBRANCH   1  19
TORSDOF 7
ENDMDL
ENDMDL
