MODEL 4257
MODEL 1
REMARK VINA RESULT:    -5.519      0.000      0.000
REMARK INTER + INTRA:          -5.958
REMARK INTER:                  -5.842
REMARK INTRA:                  -0.116
REMARK UNBOUND:                -0.116
REMARK  Name = No_4257-gen_results/8p0m/2024-11-27-11-27-31/
REMARK  1 active torsions:
REMARK  status: ('A' for Active; 'I' for Inactive)
REMARK    1  A    between atoms: C_5  and  C_8
REMARK                            x       y       z     vdW  Elec       q    Type
REMARK                         _______ _______ _______ _____ _____    ______ ____
ROOT
ATOM      1  C   UNL A   1     -24.320  -5.121  28.839  0.00  0.00    +0.001 A 
ATOM      2  C   UNL A   1     -25.475  -5.208  29.186  0.00  0.00    +0.011 A 
ATOM      3  C   UNL A   1     -26.249  -4.159  29.651  0.00  0.00    +0.058 A 
ATOM      4  C   UNL A   1     -25.638  -2.871  29.694  0.00  0.00    +0.015 A 
ATOM      5  C   UNL A   1     -24.411  -2.772  29.157  0.00  0.00    +0.072 A 
ATOM      6  C   UNL A   1     -23.979  -3.654  28.544  0.00  0.00    +0.004 A 
ATOM      7 CL   UNL A   1     -27.805  -4.392  30.397  0.00  0.00    -0.082 Cl
ENDROOT
BRANCH   5   8
ATOM      8  C   UNL A   1     -23.774  -1.443  28.978  0.00  0.00    +0.419 C 
ATOM      9  F   UNL A   1     -23.882  -0.617  29.895  0.00  0.00    -0.166 F 
ATOM     10  F   UNL A   1     -24.207  -0.800  27.881  0.00  0.00    -0.166 F 
ATOM     11  F   UNL A   1     -22.430  -1.628  28.944  0.00  0.00    -0.166 F 
ENDBRANCH   5   8
TORSDOF 1
ENDMDL
ENDMDL
