MODEL 4259
MODEL 1
REMARK VINA RESULT:    -6.594      0.000      0.000
REMARK INTER + INTRA:         -10.001
REMARK INTER:                  -8.522
REMARK INTRA:                  -1.479
REMARK UNBOUND:                -1.479
REMARK  Name = No_4259-gen_results/8p0m/2024-11-27-11-27-31/
REMARK  5 active torsions:
REMARK  status: ('A' for Active; 'I' for Inactive)
REMARK    1  A    between atoms: C_1  and  C_2
REMARK    2  A    between atoms: C_6  and  C_18
REMARK    3  A    between atoms: C_14  and  C_15
REMARK    4  A    between atoms: C_19  and  C_20
REMARK    5  A    between atoms: C_21  and  C_22
REMARK                            x       y       z     vdW  Elec       q    Type
REMARK                         _______ _______ _______ _____ _____    ______ ____
ROOT
ATOM      1  C   UNL A   1     -24.812  -3.668  29.223  0.00  0.00    +0.043 A 
ATOM      2  C   UNL A   1     -26.015  -3.400  29.866  0.00  0.00    -0.002 A 
ATOM      3  C   UNL A   1     -26.341  -2.174  30.650  0.00  0.00    -0.006 A 
ATOM      4  C   UNL A   1     -25.258  -1.276  30.881  0.00  0.00    +0.052 A 
ATOM      5  C   UNL A   1     -24.029  -1.597  30.269  0.00  0.00    +0.004 A 
ATOM      6  C   UNL A   1     -23.812  -2.693  29.528  0.00  0.00    +0.001 A 
ATOM      7  C   UNL A   1     -25.546  -0.114  31.671  0.00  0.00    +0.265 C 
ATOM      8  N   UNL A   1     -26.750   0.061  32.259  0.00  0.00    -0.201 NA
ATOM      9  O   UNL A   1     -24.550   0.471  32.276  0.00  0.00    -0.268 OA
ATOM     10  C   UNL A   1     -27.881  -0.605  31.955  0.00  0.00    +0.131 C 
ATOM     11  C   UNL A   1     -27.688  -1.895  31.193  0.00  0.00    +0.147 C 
ENDROOT
BRANCH   1  12
ATOM     12  C   UNL A   1     -24.650  -4.693  28.602  0.00  0.00    +0.341 C 
ATOM     13  F   UNL A   1     -23.457  -4.863  28.198  0.00  0.00    -0.193 F 
ATOM     14  F   UNL A   1     -25.066  -5.785  28.959  0.00  0.00    -0.193 F 
ENDBRANCH   1  12
BRANCH  11  15
ATOM     15  C   UNL A   1     -28.822  -2.720  30.947  0.00  0.00    +0.370 C 
ATOM     16  O   UNL A   1     -29.518  -2.490  29.992  0.00  0.00    -0.245 OA
ATOM     17  O   UNL A   1     -29.085  -3.666  31.830  0.00  0.00    -0.245 OA
ENDBRANCH  11  15
BRANCH   5  18
ATOM     18  C   UNL A   1     -22.901  -0.642  30.451  0.00  0.00    +0.000 C 
ATOM     19  C   UNL A   1     -22.774   0.307  29.661  0.00  0.00    +0.000 C 
BRANCH  19  20
ATOM     20  C   UNL A   1     -22.499   0.313  28.532  0.00  0.00    +0.000 C 
ATOM     21  C   UNL A   1     -23.358   0.612  27.362  0.00  0.00    +0.000 C 
BRANCH  21  22
ATOM     22  C   UNL A   1     -24.704   0.826  27.693  0.00  0.00    +0.000 C 
ATOM     23  C   UNL A   1     -25.696  -0.099  27.319  0.00  0.00    +0.000 C 
ENDBRANCH  21  22
ENDBRANCH  19  20
ENDBRANCH   5  18
TORSDOF 5
ENDMDL
ENDMDL
