MODEL 425
MODEL 1
REMARK VINA RESULT:    -5.125      0.000      0.000
REMARK INTER + INTRA:          -6.203
REMARK INTER:                  -6.024
REMARK INTRA:                  -0.179
REMARK UNBOUND:                -0.179
REMARK  Name = No_425-gen_results/8p0m/2024-11-27-11-27-31/
REMARK  3 active torsions:
REMARK  status: ('A' for Active; 'I' for Inactive)
REMARK    1  A    between atoms: C_1  and  C_2
REMARK    2  A    between atoms: C_1  and  C_8
REMARK    3  A    between atoms: C_5  and  C_11
REMARK                            x       y       z     vdW  Elec       q    Type
REMARK                         _______ _______ _______ _____ _____    ______ ____
ROOT
ATOM      1  C   UNL A   1     -17.291 -22.128   7.836  0.00  0.00    -0.011 A 
ATOM      2  C   UNL A   1     -18.639 -22.103   8.135  0.00  0.00    -0.004 A 
ATOM      3  C   UNL A   1     -19.625 -21.232   7.522  0.00  0.00    +0.001 A 
ATOM      4  C   UNL A   1     -19.201 -20.310   6.540  0.00  0.00    +0.021 A 
ATOM      5  C   UNL A   1     -17.799 -20.336   6.209  0.00  0.00    +0.001 A 
ATOM      6  C   UNL A   1     -16.889 -21.196   6.777  0.00  0.00    -0.004 A 
ENDROOT
BRANCH   4   7
ATOM      7  C   UNL A   1     -20.102 -19.402   5.901  0.00  0.00    +0.122 C 
ATOM      8  N   UNL A   1     -19.782 -18.171   5.755  0.00  0.00    -0.146 NA
ENDBRANCH   4   7
BRANCH   1   9
ATOM      9  C   UNL A   1     -16.512 -22.915   8.322  0.00  0.00    +0.140 C 
BRANCH   9  10
ATOM     10  C   UNL A   1     -15.569 -22.304   9.296  0.00  0.00    +0.369 C 
ATOM     11  O   UNL A   1     -16.016 -22.299  10.498  0.00  0.00    -0.245 OA
ATOM     12  O   UNL A   1     -14.397 -22.168   9.077  0.00  0.00    -0.245 OA
ENDBRANCH   9  10
ENDBRANCH   1   9
TORSDOF 3
ENDMDL
ENDMDL
