MODEL 4260
MODEL 1
REMARK VINA RESULT:    -4.262      0.000      0.000
REMARK INTER + INTRA:          -4.262
REMARK INTER:                  -4.262
REMARK INTRA:                   0.000
REMARK UNBOUND:                 0.000
REMARK  Name = No_4260-gen_results/8p0m/2024-11-27-11-27-31/
REMARK  0 active torsions:
REMARK  status: ('A' for Active; 'I' for Inactive)
REMARK                            x       y       z     vdW  Elec       q    Type
REMARK                         _______ _______ _______ _____ _____    ______ ____
ROOT
ATOM      1  C   UNL A   1     -24.985  -5.373  28.936  0.00  0.00    +0.000 A 
ATOM      2  C   UNL A   1     -24.049  -4.671  28.631  0.00  0.00    +0.000 A 
ATOM      3  C   UNL A   1     -24.062  -3.293  28.729  0.00  0.00    +0.000 A 
ATOM      4  C   UNL A   1     -25.231  -2.673  29.254  0.00  0.00    +0.000 A 
ATOM      5  C   UNL A   1     -26.181  -3.507  29.738  0.00  0.00    +0.000 A 
ATOM      6  C   UNL A   1     -26.065  -4.818  29.638  0.00  0.00    +0.000 A 
ENDROOT
TORSDOF 0
ENDMDL
ENDMDL
