MODEL 4261
MODEL 1
REMARK VINA RESULT:    -5.353      0.000      0.000
REMARK INTER + INTRA:         -10.927
REMARK INTER:                  -8.795
REMARK INTRA:                  -2.133
REMARK UNBOUND:                -2.133
REMARK  Name = No_4261-gen_results/8p0m/2024-11-27-11-27-31/
REMARK  11 active torsions:
REMARK  status: ('A' for Active; 'I' for Inactive)
REMARK    1  A    between atoms: C_2  and  C_11
REMARK    2  A    between atoms: C_3  and  C_7
REMARK    3  A    between atoms: C_6  and  C_14
REMARK    4  A    between atoms: C_14  and  O_16
REMARK    5  A    between atoms: O_16  and  C_17
REMARK    6  A    between atoms: C_17  and  C_18
REMARK    7  A    between atoms: C_18  and  C_19
REMARK    8  A    between atoms: C_19  and  O_20
REMARK    9  A    between atoms: O_20  and  C_22
REMARK   10  A    between atoms: C_22  and  C_24
REMARK   11  A    between atoms: C_24  and  C_25
REMARK                            x       y       z     vdW  Elec       q    Type
REMARK                         _______ _______ _______ _____ _____    ______ ____
ROOT
ATOM      1  C   UNL A   1     -23.483  -2.503  28.919  0.00  0.00    +0.010 A 
ATOM      2  C   UNL A   1     -24.438  -2.949  28.913  0.00  0.00    +0.080 A 
ATOM      3  C   UNL A   1     -23.414  -1.096  29.016  0.00  0.00    +0.072 A 
ATOM      4  C   UNL A   1     -24.549  -0.312  29.087  0.00  0.00    +0.010 A 
ATOM      5  C   UNL A   1     -25.786  -2.353  28.980  0.00  0.00    +0.013 A 
ATOM      6  C   UNL A   1     -25.766  -1.005  29.072  0.00  0.00    +0.076 A 
ENDROOT
BRANCH   3   7
ATOM      7  C   UNL A   1     -22.118  -0.338  29.083  0.00  0.00    +0.419 C 
ATOM      8  F   UNL A   1     -21.202  -1.162  29.018  0.00  0.00    -0.166 F 
ATOM      9  F   UNL A   1     -22.040   0.544  28.093  0.00  0.00    -0.166 F 
ATOM     10  F   UNL A   1     -22.007   0.323  30.267  0.00  0.00    -0.166 F 
ENDBRANCH   3   7
BRANCH   2  11
ATOM     11  C   UNL A   1     -24.578  -4.566  28.916  0.00  0.00    +0.388 C 
ATOM     12  O   UNL A   1     -25.387  -5.029  29.521  0.00  0.00    -0.241 OA
ATOM     13  O   UNL A   1     -23.764  -5.270  28.135  0.00  0.00    -0.241 OA
ENDBRANCH   2  11
BRANCH   6  14
ATOM     14  C   UNL A   1     -27.028  -0.201  29.149  0.00  0.00    +0.341 C 
ATOM     15  O   UNL A   1     -27.556   0.178  30.040  0.00  0.00    -0.245 OA
BRANCH  14  16
ATOM     16  O   UNL A   1     -27.245   0.452  27.950  0.00  0.00    -0.443 OA
BRANCH  16  17
ATOM     17  C   UNL A   1     -27.771   1.667  28.041  0.00  0.00    +0.244 C 
BRANCH  17  18
ATOM     18  C   UNL A   1     -28.055   2.346  26.723  0.00  0.00    +0.225 C 
ATOM     19  O   UNL A   1     -28.242   1.386  25.640  0.00  0.00    -0.216 OA
BRANCH  18  20
ATOM     20  C   UNL A   1     -26.918   3.062  26.520  0.00  0.00    +0.179 C 
BRANCH  20  21
ATOM     21  O   UNL A   1     -26.014   2.598  25.694  0.00  0.00    -0.353 OA
BRANCH  21  22
ATOM     22  C   UNL A   1     -24.668   2.412  25.890  0.00  0.00    +0.123 C 
ATOM     23  C   UNL A   1     -24.286   2.862  27.201  0.00  0.00    +0.033 C 
BRANCH  22  24
ATOM     24  C   UNL A   1     -24.319   0.970  25.735  0.00  0.00    +0.102 C 
BRANCH  24  25
ATOM     25  C   UNL A   1     -25.078   0.241  24.802  0.00  0.00    +0.210 C 
ATOM     26  O   UNL A   1     -25.679  -0.700  25.341  0.00  0.00    -0.288 OA
ENDBRANCH  24  25
ENDBRANCH  22  24
ENDBRANCH  21  22
ENDBRANCH  20  21
ENDBRANCH  18  20
ENDBRANCH  17  18
ENDBRANCH  16  17
ENDBRANCH  14  16
ENDBRANCH   6  14
TORSDOF 11
ENDMDL
ENDMDL
