MODEL 4262
MODEL 1
REMARK VINA RESULT:    -6.001      0.000      0.000
REMARK INTER + INTRA:          -8.971
REMARK INTER:                  -7.755
REMARK INTRA:                  -1.216
REMARK UNBOUND:                -1.216
REMARK  Name = No_4262-gen_results/8p0m/2024-11-27-11-27-31/
REMARK  5 active torsions:
REMARK  status: ('A' for Active; 'I' for Inactive)
REMARK    1  A    between atoms: C_6  and  O_17
REMARK    2  A    between atoms: O_17  and  C_18
REMARK    3  A    between atoms: C_18  and  C_19
REMARK    4  A    between atoms: C_19  and  O_20
REMARK    5  A    between atoms: O_20  and  C_21
REMARK                            x       y       z     vdW  Elec       q    Type
REMARK                         _______ _______ _______ _____ _____    ______ ____
ROOT
ATOM      1  C   UNL A   1     -25.281  -0.860  28.862  0.00  0.00    +0.065 A 
ATOM      2  C   UNL A   1     -24.102  -1.002  28.636  0.00  0.00    -0.016 A 
ATOM      3  C   UNL A   1     -23.489  -2.243  28.770  0.00  0.00    -0.004 A 
ATOM      4  C   UNL A   1     -24.231  -3.391  29.226  0.00  0.00    +0.003 A 
ATOM      5  C   UNL A   1     -25.583  -3.132  29.486  0.00  0.00    +0.037 A 
ATOM      6  C   UNL A   1     -26.111  -1.936  29.360  0.00  0.00    +0.141 A 
ATOM      7  C   UNL A   1     -23.179   0.074  28.184  0.00  0.00    +0.028 C 
ATOM      8  C   UNL A   1     -23.342   1.048  27.923  0.00  0.00    +0.020 C 
ATOM      9  C   UNL A   1     -24.769   1.585  28.053  0.00  0.00    +0.085 C 
ATOM     10  C   UNL A   1     -25.749   0.960  28.625  0.00  0.00    +0.179 C 
ATOM     11  C   UNL A   1     -25.244   2.956  27.907  0.00  0.00    -0.019 C 
ATOM     12  C   UNL A   1     -24.973   3.676  27.080  0.00  0.00    -0.004 C 
ATOM     13  C   UNL A   1     -24.122   3.241  25.908  0.00  0.00    -0.005 C 
ATOM     14  C   UNL A   1     -23.284   2.623  25.834  0.00  0.00    -0.026 C 
ATOM     15  C   UNL A   1     -22.996   1.354  26.684  0.00  0.00    +0.027 C 
ATOM     16  O   UNL A   1     -26.922   1.051  29.054  0.00  0.00    -0.291 OA
ENDROOT
BRANCH   6  17
ATOM     17  O   UNL A   1     -27.418  -1.703  29.705  0.00  0.00    -0.471 OA
BRANCH  17  18
ATOM     18  C   UNL A   1     -27.781  -1.791  31.075  0.00  0.00    +0.253 C 
BRANCH  18  19
ATOM     19  C   UNL A   1     -27.524  -0.719  31.885  0.00  0.00    +0.253 C 
BRANCH  19  20
ATOM     20  O   UNL A   1     -26.458  -0.643  32.359  0.00  0.00    -0.469 OA
BRANCH  20  21
ATOM     21  C   UNL A   1     -25.478  -0.352  32.341  0.00  0.00    +0.168 C 
ATOM     22  C   UNL A   1     -24.478  -1.206  32.442  0.00  0.00    +0.014 C 
ATOM     23  C   UNL A   1     -23.096  -0.834  32.321  0.00  0.00    +0.034 C 
ENDBRANCH  20  21
ENDBRANCH  19  20
ENDBRANCH  18  19
ENDBRANCH  17  18
ENDBRANCH   6  17
TORSDOF 5
ENDMDL
ENDMDL
