MODEL 4263
MODEL 1
REMARK VINA RESULT:    -7.399      0.000      0.000
REMARK INTER + INTRA:         -10.336
REMARK INTER:                  -8.696
REMARK INTRA:                  -1.640
REMARK UNBOUND:                -1.640
REMARK  Name = No_4263-gen_results/8p0m/2024-11-27-11-27-31/
REMARK  3 active torsions:
REMARK  status: ('A' for Active; 'I' for Inactive)
REMARK    1  A    between atoms: C_2  and  C_16
REMARK    2  A    between atoms: C_3  and  C_7
REMARK    3  A    between atoms: C_6  and  C_13
REMARK                            x       y       z     vdW  Elec       q    Type
REMARK                         _______ _______ _______ _____ _____    ______ ____
ROOT
ATOM      1  C   UNL A   1     -24.256  -2.100  28.341  0.00  0.00    +0.007 A 
ATOM      2  C   UNL A   1     -24.426  -0.922  28.555  0.00  0.00    +0.001 A 
ATOM      3  C   UNL A   1     -25.107  -0.432  29.669  0.00  0.00    -0.002 A 
ATOM      4  C   UNL A   1     -25.700  -1.369  30.603  0.00  0.00    -0.022 A 
ATOM      5  C   UNL A   1     -25.496  -2.716  30.307  0.00  0.00    +0.002 A 
ATOM      6  C   UNL A   1     -24.848  -3.093  29.222  0.00  0.00    +0.080 A 
ATOM      7  C   UNL A   1     -26.440  -0.905  31.794  0.00  0.00    +0.031 C 
ENDROOT
BRANCH   3   8
ATOM      8  C   UNL A   1     -25.349   1.001  30.004  0.00  0.00    +0.027 A 
ATOM      9  C   UNL A   1     -24.620   1.656  30.940  0.00  0.00    +0.140 A 
ATOM     10  C   UNL A   1     -24.857   2.681  31.338  0.00  0.00    +0.030 A 
ATOM     11  C   UNL A   1     -25.933   3.560  30.795  0.00  0.00    +0.002 A 
ATOM     12  C   UNL A   1     -26.445   1.724  29.529  0.00  0.00    +0.002 A 
ATOM     13  C   UNL A   1     -26.683   2.963  29.914  0.00  0.00    +0.000 A 
ATOM     14  F   UNL A   1     -23.489   0.867  31.371  0.00  0.00    -0.204 F 
ENDBRANCH   3   8
BRANCH   2  15
ATOM     15  C   UNL A   1     -23.764   0.248  27.861  0.00  0.00    +0.011 A 
ATOM     16  C   UNL A   1     -24.367   0.509  26.698  0.00  0.00    +0.058 A 
ATOM     17  C   UNL A   1     -23.812   1.536  25.881  0.00  0.00    +0.011 A 
ATOM     18  C   UNL A   1     -22.538   0.693  28.156  0.00  0.00    +0.001 A 
ATOM     19  C   UNL A   1     -21.915   1.680  27.408  0.00  0.00    +0.000 A 
ATOM     20  C   UNL A   1     -22.567   2.131  26.248  0.00  0.00    +0.001 A 
ATOM     21 CL   UNL A   1     -25.906   0.008  26.161  0.00  0.00    -0.082 Cl
ENDBRANCH   2  15
BRANCH   6  22
ATOM     22  C   UNL A   1     -24.719  -4.550  28.938  0.00  0.00    +0.388 C 
ATOM     23  O   UNL A   1     -23.887  -4.968  28.354  0.00  0.00    -0.241 OA
ATOM     24  O   UNL A   1     -25.606  -5.329  29.654  0.00  0.00    -0.241 OA
ENDBRANCH   6  22
TORSDOF 3
ENDMDL
ENDMDL
