MODEL 4264
MODEL 1
REMARK VINA RESULT:    -4.270      0.000      0.000
REMARK INTER + INTRA:          -4.270
REMARK INTER:                  -4.270
REMARK INTRA:                   0.000
REMARK UNBOUND:                 0.000
REMARK  Name = No_4264-gen_results/8p0m/2024-11-27-11-27-31/
REMARK  0 active torsions:
REMARK  status: ('A' for Active; 'I' for Inactive)
REMARK                            x       y       z     vdW  Elec       q    Type
REMARK                         _______ _______ _______ _____ _____    ______ ____
ROOT
ATOM      1  C   UNL A   1     -26.070  -4.847  29.656  0.00  0.00    +0.000 A 
ATOM      2  C   UNL A   1     -26.209  -3.647  29.714  0.00  0.00    +0.000 A 
ATOM      3  C   UNL A   1     -25.243  -2.745  29.314  0.00  0.00    +0.000 A 
ATOM      4  C   UNL A   1     -24.033  -3.261  28.770  0.00  0.00    +0.000 A 
ATOM      5  C   UNL A   1     -23.994  -4.599  28.569  0.00  0.00    +0.000 A 
ATOM      6  C   UNL A   1     -24.986  -5.383  28.946  0.00  0.00    +0.000 A 
ENDROOT
TORSDOF 0
ENDMDL
ENDMDL
