MODEL 4265
MODEL 1
REMARK VINA RESULT:    -5.344      0.000      0.000
REMARK INTER + INTRA:          -5.881
REMARK INTER:                  -5.656
REMARK INTRA:                  -0.225
REMARK UNBOUND:                -0.225
REMARK  Name = No_4265-gen_results/8p0m/2024-11-27-11-27-31/
REMARK  1 active torsions:
REMARK  status: ('A' for Active; 'I' for Inactive)
REMARK    1  A    between atoms: C_3  and  C_4
REMARK                            x       y       z     vdW  Elec       q    Type
REMARK                         _______ _______ _______ _____ _____    ______ ____
ROOT
ATOM      1  C   UNL A   1      -8.458  -9.746  19.737  0.00  0.00    +0.004 A 
ATOM      2  C   UNL A   1      -7.760  -9.065  20.137  0.00  0.00    -0.000 A 
ATOM      3  C   UNL A   1      -8.720  -9.682  18.351  0.00  0.00    +0.071 A 
ATOM      4  C   UNL A   1      -6.973  -7.993  19.502  0.00  0.00    -0.000 A 
ATOM      5  C   UNL A   1      -7.185  -7.869  18.129  0.00  0.00    -0.000 A 
ATOM      6  C   UNL A   1      -8.025  -8.735  17.507  0.00  0.00    +0.004 A 
ENDROOT
BRANCH   3   7
ATOM      7  C   UNL A   1      -9.590 -10.635  17.612  0.00  0.00    +0.419 C 
ATOM      8  F   UNL A   1     -10.677 -10.505  18.023  0.00  0.00    -0.166 F 
ATOM      9  F   UNL A   1      -9.193 -11.887  17.962  0.00  0.00    -0.166 F 
ATOM     10  F   UNL A   1      -9.501 -10.493  16.268  0.00  0.00    -0.166 F 
ENDBRANCH   3   7
TORSDOF 1
ENDMDL
ENDMDL
