MODEL 4266
MODEL 1
REMARK VINA RESULT:    -5.552      0.000      0.000
REMARK INTER + INTRA:          -7.164
REMARK INTER:                  -6.850
REMARK INTRA:                  -0.314
REMARK UNBOUND:                -0.314
REMARK  Name = No_4266-gen_results/8p0m/2024-11-27-11-27-31/
REMARK  4 active torsions:
REMARK  status: ('A' for Active; 'I' for Inactive)
REMARK    1  A    between atoms: C_2  and  C_10
REMARK    2  A    between atoms: C_5  and  C_7
REMARK    3  A    between atoms: N_11  and  C_12
REMARK    4  A    between atoms: C_13  and  C_14
REMARK                            x       y       z     vdW  Elec       q    Type
REMARK                         _______ _______ _______ _____ _____    ______ ____
ROOT
ATOM      1  C   UNL A   1     -28.643 -11.933  30.355  0.00  0.00    +0.002 A 
ATOM      2  C   UNL A   1     -29.377 -10.979  30.240  0.00  0.00    +0.019 A 
ATOM      3  C   UNL A   1     -29.723 -10.112  31.262  0.00  0.00    +0.002 A 
ATOM      4  C   UNL A   1     -29.142 -10.353  32.542  0.00  0.00    +0.007 A 
ATOM      5  C   UNL A   1     -28.215 -11.332  32.598  0.00  0.00    +0.080 A 
ATOM      6  C   UNL A   1     -27.890 -12.055  31.525  0.00  0.00    +0.007 A 
ENDROOT
BRANCH   5   7
ATOM      7  C   UNL A   1     -27.437 -11.638  33.799  0.00  0.00    +0.388 C 
ATOM      8  O   UNL A   1     -27.263 -10.913  34.677  0.00  0.00    -0.241 OA
ATOM      9  O   UNL A   1     -26.724 -12.816  33.782  0.00  0.00    -0.241 OA
ENDBRANCH   5   7
BRANCH   2  10
ATOM     10  C   UNL A   1     -30.213 -10.700  28.906  0.00  0.00    +0.099 C 
ATOM     11  N   UNL A   1     -30.856  -9.695  28.686  0.00  0.00    -0.242 NA
BRANCH  11  12
ATOM     12  C   UNL A   1     -31.588  -9.534  27.529  0.00  0.00    +0.099 C 
ATOM     13  C   UNL A   1     -32.158  -8.253  27.247  0.00  0.00    +0.021 C 
BRANCH  13  14
ATOM     14  C   UNL A   1     -31.612  -7.183  27.975  0.00  0.00    +0.002 C 
ATOM     15  C   UNL A   1     -30.870  -6.142  27.478  0.00  0.00    +0.000 C 
ENDBRANCH  13  14
ENDBRANCH  11  12
ENDBRANCH   2  10
TORSDOF 4
ENDMDL
ENDMDL
