REMARK  Name = outputs/IAG933/test6/raw/output_4267_IAG933_linker_design_.xyz
REMARK  10 active torsions:
REMARK  status: ('A' for Active; 'I' for Inactive)
REMARK    1  A    between atoms: C_1  and  C_2
REMARK    2  A    between atoms: C_1  and  C_8
REMARK    3  A    between atoms: C_1  and  C_36
REMARK    4  A    between atoms: C_13  and  C_31
REMARK    5  A    between atoms: C_14  and  C_15
REMARK    6  A    between atoms: C_21  and  O_22
REMARK    7  A    between atoms: O_22  and  C_23
REMARK    8  A    between atoms: C_23  and  C_24
REMARK    9  A    between atoms: N_35  and  C_36
REMARK   10  A    between atoms: C_36  and  N_41
REMARK                            x       y       z     vdW  Elec       q    Type
REMARK                         _______ _______ _______ _____ _____    ______ ____
ROOT
ATOM      1  C   UNL A   1     -25.453  -0.009  29.082  0.00  0.00    +0.142 C 
ENDROOT
BRANCH   1   8
ATOM      2  O   UNL A   1     -28.825  -1.089  28.960  0.00  0.00    -0.342 OA
ATOM      3  C   UNL A   1     -27.652  -0.737  28.280  0.00  0.00    +0.221 C 
ATOM      4  C   UNL A   1     -31.366  -1.204  27.611  0.00  0.00    +0.030 C 
ATOM      5  C   UNL A   1     -29.385   1.681  29.317  0.00  0.00    +0.020 C 
ATOM      6  C   UNL A   1     -29.808   1.017  27.971  0.00  0.00    +0.029 C 
ATOM      7  C   UNL A   1     -30.006  -0.518  28.157  0.00  0.00    +0.095 C 
ATOM      8  N   UNL A   1     -26.882   0.369  28.952  0.00  0.00    -0.233 NA
ATOM      9  C   UNL A   1     -31.262  -0.678  28.991  0.00  0.00    +0.030 C 
ATOM     10  C   UNL A   1     -27.983   1.155  29.769  0.00  0.00    +0.076 C 
ENDBRANCH   1   8
BRANCH   1  15
ATOM     11  S   UNL A   1     -23.096   1.575  26.520  0.00  0.00    -0.071 S 
ATOM     12  C   UNL A   1     -23.011   0.406  28.810  0.00  0.00    +0.088 C 
ATOM     13  C   UNL A   1     -24.505   1.200  27.292  0.00  0.00    +0.153 C 
ATOM     14  C   UNL A   1     -22.257   1.083  27.821  0.00  0.00    +0.131 C 
ATOM     15  N   UNL A   1     -24.410   0.553  28.388  0.00  0.00    -0.282 N 
ATOM     16  N   UNL A   1     -20.897   1.522  27.969  0.00  0.00    -0.120 NA
BRANCH  13  17
ATOM     17  C   UNL A   1     -25.688   1.614  26.461  0.00  0.00    +0.044 C 
ATOM     18  C   UNL A   1     -26.250   2.920  26.395  0.00  0.00    +0.075 C 
ATOM     19  C   UNL A   1     -27.438   3.091  25.645  0.00  0.00    +0.106 C 
ATOM     20  N   UNL A   1     -28.075   2.089  25.003  0.00  0.00    -0.208 NA
ATOM     21  C   UNL A   1     -27.543   0.849  25.079  0.00  0.00    +0.253 C 
ATOM     22  C   UNL A   1     -26.354   0.576  25.777  0.00  0.00    +0.192 C 
ATOM     23  F   UNL A   1     -25.860  -0.681  25.795  0.00  0.00    -0.200 F 
BRANCH  18  24
ATOM     24  C   UNL A   1     -25.642   4.093  27.123  0.00  0.00    +0.266 C 
ATOM     25  N   UNL A   1     -25.614   5.252  26.449  0.00  0.00    -0.200 NA
ATOM     26  C   UNL A   1     -25.026   6.479  26.963  0.00  0.00    +0.139 C 
ATOM     27  O   UNL A   1     -25.143   3.966  28.243  0.00  0.00    -0.268 OA
ENDBRANCH  18  24
BRANCH  21  28
ATOM     28  O   UNL A   1     -28.193  -0.208  24.477  0.00  0.00    -0.456 OA
BRANCH  28  29
ATOM     29  C   UNL A   1     -29.460   0.005  23.866  0.00  0.00    +0.243 C 
BRANCH  29  30
ATOM     30  C   UNL A   1     -30.065  -1.377  23.573  0.00  0.00    +0.229 C 
ATOM     31  O   UNL A   1     -30.729  -1.878  24.721  0.00  0.00    -0.216 OA
ENDBRANCH  29  30
ENDBRANCH  28  29
ENDBRANCH  21  28
ENDBRANCH  13  17
ENDBRANCH   1  15
BRANCH   1  32
ATOM     32  C   UNL A   1     -24.855  -1.012  30.143  0.00  0.00    +0.072 C 
BRANCH  32  33
ATOM     33  C   UNL A   1     -24.973  -2.505  29.788  0.00  0.00    -0.018 C 
ATOM     34  C   UNL A   1     -23.906  -3.173  29.146  0.00  0.00    -0.004 C 
ATOM     35  C   UNL A   1     -23.989  -4.549  28.853  0.00  0.00    -0.000 C 
ATOM     36  C   UNL A   1     -25.137  -5.280  29.205  0.00  0.00    -0.000 C 
ATOM     37  C   UNL A   1     -26.232  -4.611  29.784  0.00  0.00    -0.000 C 
ATOM     38  C   UNL A   1     -26.155  -3.232  30.065  0.00  0.00    -0.004 C 
ENDBRANCH  32  33
BRANCH  32  39
ATOM     39  C   UNL A   1     -25.387  -0.679  31.571  0.00  0.00    +0.080 C 
ATOM     40  C   UNL A   1     -25.189   0.773  32.028  0.00  0.00    +0.019 C 
ATOM     41  C   UNL A   1     -25.336   0.684  33.544  0.00  0.00    +0.020 C 
ATOM     42  C   UNL A   1     -24.829  -0.715  33.905  0.00  0.00    +0.089 C 
ATOM     43  N   UNL A   1     -24.758  -1.481  32.646  0.00  0.00    -0.219 NA
ENDBRANCH  32  39
ENDBRANCH   1  32
TORSDOF 10
