MODEL 4267
MODEL 1
REMARK VINA RESULT:    -6.017      0.000      0.000
REMARK INTER + INTRA:          -8.353
REMARK INTER:                  -7.776
REMARK INTRA:                  -0.577
REMARK UNBOUND:                -0.577
REMARK  Name = No_4267-gen_results/8p0m/2024-11-27-11-27-31/
REMARK  5 active torsions:
REMARK  status: ('A' for Active; 'I' for Inactive)
REMARK    1  A    between atoms: C_2  and  C_7
REMARK    2  A    between atoms: C_7  and  N_8
REMARK    3  A    between atoms: C_7  and  C_9
REMARK    4  A    between atoms: N_8  and  C_10
REMARK    5  A    between atoms: C_12  and  C_13
REMARK                            x       y       z     vdW  Elec       q    Type
REMARK                         _______ _______ _______ _____ _____    ______ ____
ROOT
ATOM      1  C   UNL A   1     -23.620  -0.692  29.368  0.00  0.00    +0.137 C 
ENDROOT
BRANCH   1   3
ATOM      2  C   UNL A   1     -22.281   0.904  28.181  0.00  0.00    -0.002 A 
ATOM      3  C   UNL A   1     -23.299   0.258  28.269  0.00  0.00    +0.002 A 
ATOM      4  C   UNL A   1     -24.289   0.340  27.296  0.00  0.00    -0.002 A 
ATOM      5  C   UNL A   1     -24.153   1.234  26.175  0.00  0.00    -0.000 A 
ATOM      6  C   UNL A   1     -22.956   1.962  26.164  0.00  0.00    -0.000 A 
ATOM      7  C   UNL A   1     -22.059   1.860  27.118  0.00  0.00    -0.000 A 
ENDBRANCH   1   3
BRANCH   1   8
ATOM      8  C   UNL A   1     -23.513  -2.119  28.963  0.00  0.00    -0.001 C 
ATOM      9  C   UNL A   1     -24.302  -3.005  28.905  0.00  0.00    -0.003 C 
BRANCH   9  10
ATOM     10  C   UNL A   1     -24.111  -4.378  28.505  0.00  0.00    -0.000 C 
ATOM     11  C   UNL A   1     -24.974  -5.290  29.158  0.00  0.00    -0.000 C 
ENDBRANCH   9  10
ENDBRANCH   1   8
BRANCH   1  12
ATOM     12  N   UNL A   1     -23.931  -0.492  30.386  0.00  0.00    -0.229 NA
BRANCH  12  13
ATOM     13  C   UNL A   1     -23.097  -0.581  31.551  0.00  0.00    +0.081 C 
ATOM     14  C   UNL A   1     -23.629  -1.167  32.747  0.00  0.00    +0.019 C 
ENDBRANCH  12  13
ENDBRANCH   1  12
TORSDOF 5
ENDMDL
ENDMDL
