REMARK  Name = No_4269-gen_results/8p0m/2024-11-27-11-27-31/
REMARK  7 active torsions:
REMARK  status: ('A' for Active; 'I' for Inactive)
REMARK    1  A    between atoms: C_1  and  C_2
REMARK    2  A    between atoms: C_1  and  N_8
REMARK    3  A    between atoms: C_4  and  C_17
REMARK    4  A    between atoms: C_5  and  C_14
REMARK    5  A    between atoms: C_9  and  C_10
REMARK    6  A    between atoms: C_17  and  C_18
REMARK    7  A    between atoms: C_18  and  C_19
REMARK                            x       y       z     vdW  Elec       q    Type
REMARK                         _______ _______ _______ _____ _____    ______ ____
ROOT
ATOM      1  C   UNL A   1     -27.064  -0.119  28.608  0.00  0.00    -0.001 A 
ATOM      2  C   UNL A   1     -26.929   1.171  29.008  0.00  0.00    -0.006 A 
ATOM      3  C   UNL A   1     -25.770   2.034  28.688  0.00  0.00    -0.010 A 
ATOM      4  C   UNL A   1     -24.714   1.443  27.919  0.00  0.00    +0.076 A 
ATOM      5  C   UNL A   1     -24.859   0.078  27.584  0.00  0.00    +0.006 A 
ATOM      6  C   UNL A   1     -25.965  -0.661  27.916  0.00  0.00    -0.002 A 
ENDROOT
BRANCH   4   7
ATOM      7  C   UNL A   1     -23.522   2.159  27.573  0.00  0.00    +0.387 C 
ATOM      8  O   UNL A   1     -22.459   1.908  27.615  0.00  0.00    -0.241 OA
ATOM      9  O   UNL A   1     -23.864   3.128  26.550  0.00  0.00    -0.241 OA
ENDBRANCH   4   7
BRANCH   1  10
ATOM     10  C   UNL A   1     -28.016  -0.814  28.878  0.00  0.00    +0.142 C 
BRANCH  10  11
ATOM     11  N   UNL A   1     -28.700  -0.644  30.077  0.00  0.00    -0.194 NA
ATOM     12  C   UNL A   1     -29.803  -1.365  30.506  0.00  0.00    +0.337 C 
ATOM     13  O   UNL A   1     -29.509  -1.816  31.809  0.00  0.00    -0.264 OA
BRANCH  12  14
ATOM     14  C   UNL A   1     -30.375  -2.179  29.745  0.00  0.00    +0.471 C 
ATOM     15  F   UNL A   1     -30.054  -3.409  29.871  0.00  0.00    -0.162 F 
ATOM     16  F   UNL A   1     -31.772  -2.215  29.941  0.00  0.00    -0.162 F 
ATOM     17  F   UNL A   1     -30.321  -1.914  28.447  0.00  0.00    -0.162 F 
ENDBRANCH  12  14
ENDBRANCH  10  11
ENDBRANCH   1  10
BRANCH   3  18
ATOM     18  C   UNL A   1     -25.662   3.421  29.098  0.00  0.00    +0.102 C 
BRANCH  18  19
ATOM     19  C   UNL A   1     -25.798   3.544  30.438  0.00  0.00    +0.353 C 
ATOM     20  F   UNL A   1     -24.550   3.078  31.064  0.00  0.00    -0.195 F 
ATOM     21  F   UNL A   1     -26.721   2.795  31.004  0.00  0.00    -0.195 F 
BRANCH  19  22
ATOM     22  C   UNL A   1     -25.991   4.883  30.956  0.00  0.00    +0.455 C 
ATOM     23  F   UNL A   1     -25.618   4.932  32.237  0.00  0.00    -0.165 F 
ATOM     24  F   UNL A   1     -25.106   5.778  30.393  0.00  0.00    -0.165 F 
ATOM     25  F   UNL A   1     -27.215   5.307  30.761  0.00  0.00    -0.165 F 
ENDBRANCH  19  22
ENDBRANCH  18  19
ENDBRANCH   3  18
TORSDOF 7
