MODEL 4269
MODEL 1
REMARK VINA RESULT:    -6.330      0.000      0.000
REMARK INTER + INTRA:          -9.970
REMARK INTER:                  -8.920
REMARK INTRA:                  -1.050
REMARK UNBOUND:                -1.050
REMARK  Name = No_4269-gen_results/8p0m/2024-11-27-11-27-31/
REMARK  7 active torsions:
REMARK  status: ('A' for Active; 'I' for Inactive)
REMARK    1  A    between atoms: C_1  and  C_2
REMARK    2  A    between atoms: C_1  and  N_8
REMARK    3  A    between atoms: C_4  and  C_17
REMARK    4  A    between atoms: C_5  and  C_14
REMARK    5  A    between atoms: C_9  and  C_10
REMARK    6  A    between atoms: C_17  and  C_18
REMARK    7  A    between atoms: C_18  and  C_19
REMARK                            x       y       z     vdW  Elec       q    Type
REMARK                         _______ _______ _______ _____ _____    ______ ____
ROOT
ATOM      1  C   UNL A   1      -7.242   0.427   9.288  0.00  0.00    -0.001 A 
ATOM      2  C   UNL A   1      -8.034   0.783  10.330  0.00  0.00    -0.006 A 
ATOM      3  C   UNL A   1      -9.212   1.673  10.226  0.00  0.00    -0.010 A 
ATOM      4  C   UNL A   1      -9.510   2.206   8.929  0.00  0.00    +0.076 A 
ATOM      5  C   UNL A   1      -8.619   1.870   7.884  0.00  0.00    +0.006 A 
ATOM      6  C   UNL A   1      -7.544   1.037   8.056  0.00  0.00    -0.002 A 
ENDROOT
BRANCH   4   7
ATOM      7  C   UNL A   1     -10.600   3.108   8.700  0.00  0.00    +0.387 C 
ATOM      8  O   UNL A   1     -10.654   4.177   8.479  0.00  0.00    -0.241 OA
ATOM      9  O   UNL A   1     -11.716   2.337   8.187  0.00  0.00    -0.241 OA
ENDBRANCH   4   7
BRANCH   1  10
ATOM     10  C   UNL A   1      -6.281  -0.300   9.387  0.00  0.00    +0.142 C 
BRANCH  10  11
ATOM     11  N   UNL A   1      -4.993   0.225   9.393  0.00  0.00    -0.194 NA
ATOM     12  C   UNL A   1      -4.003  -0.010   8.452  0.00  0.00    +0.337 C 
ATOM     13  O   UNL A   1      -3.518   1.252   8.052  0.00  0.00    -0.264 OA
BRANCH  12  14
ATOM     14  C   UNL A   1      -4.163  -0.862   7.548  0.00  0.00    +0.471 C 
ATOM     15  F   UNL A   1      -5.142  -0.677   6.749  0.00  0.00    -0.162 F 
ATOM     16  F   UNL A   1      -3.065  -0.929   6.664  0.00  0.00    -0.162 F 
ATOM     17  F   UNL A   1      -4.237  -2.128   7.936  0.00  0.00    -0.162 F 
ENDBRANCH  12  14
ENDBRANCH  10  11
ENDBRANCH   1  10
BRANCH   3  18
ATOM     18  C   UNL A   1     -10.065   2.014  11.349  0.00  0.00    +0.102 C 
BRANCH  18  19
ATOM     19  C   UNL A   1      -9.456   2.898  12.172  0.00  0.00    +0.353 C 
ATOM     20  F   UNL A   1      -8.540   3.715  11.360  0.00  0.00    -0.195 F 
ATOM     21  F   UNL A   1      -8.672   2.390  13.099  0.00  0.00    -0.195 F 
BRANCH  19  22
ATOM     22  C   UNL A   1     -10.307   3.859  12.844  0.00  0.00    +0.455 C 
ATOM     23  F   UNL A   1     -11.148   3.224  13.664  0.00  0.00    -0.165 F 
ATOM     24  F   UNL A   1      -9.596   4.625  13.743  0.00  0.00    -0.165 F 
ATOM     25  F   UNL A   1     -10.916   4.647  11.993  0.00  0.00    -0.165 F 
ENDBRANCH  19  22
ENDBRANCH  18  19
ENDBRANCH   3  18
TORSDOF 7
ENDMDL
ENDMDL
