MODEL 426
MODEL 1
REMARK VINA RESULT:    -6.403      0.000      0.000
REMARK INTER + INTRA:          -7.633
REMARK INTER:                  -7.152
REMARK INTRA:                  -0.481
REMARK UNBOUND:                -0.481
REMARK  Name = No_426-gen_results/8p0m/2024-11-27-11-27-31/
REMARK  2 active torsions:
REMARK  status: ('A' for Active; 'I' for Inactive)
REMARK    1  A    between atoms: C_4  and  C_7
REMARK    2  A    between atoms: C_7  and  C_8
REMARK                            x       y       z     vdW  Elec       q    Type
REMARK                         _______ _______ _______ _____ _____    ______ ____
ROOT
ATOM      1  C   UNL A   1     -24.451  -1.231  29.914  0.00  0.00    +0.053 C 
ENDROOT
BRANCH   1   5
ATOM      2  C   UNL A   1     -21.779   0.853  28.187  0.00  0.00    -0.000 A 
ATOM      3  C   UNL A   1     -22.284   1.331  27.395  0.00  0.00    -0.000 A 
ATOM      4  C   UNL A   1     -22.330  -0.031  29.230  0.00  0.00    -0.004 A 
ATOM      5  C   UNL A   1     -23.762  -0.361  28.990  0.00  0.00    -0.018 A 
ATOM      6  C   UNL A   1     -24.407   0.170  27.856  0.00  0.00    -0.004 A 
ATOM      7  C   UNL A   1     -23.706   0.993  27.026  0.00  0.00    -0.000 A 
ENDBRANCH   1   5
BRANCH   1   8
ATOM      8  C   UNL A   1     -24.800  -2.588  29.524  0.00  0.00    -0.018 A 
ATOM      9  C   UNL A   1     -25.936  -3.095  29.874  0.00  0.00    -0.004 A 
ATOM     10  C   UNL A   1     -23.782  -3.395  28.918  0.00  0.00    -0.004 A 
ATOM     11  C   UNL A   1     -24.101  -4.729  28.554  0.00  0.00    -0.000 A 
ATOM     12  C   UNL A   1     -26.225  -4.566  29.709  0.00  0.00    -0.000 A 
ATOM     13  C   UNL A   1     -25.278  -5.276  29.029  0.00  0.00    -0.000 A 
ENDBRANCH   1   8
TORSDOF 2
ENDMDL
ENDMDL
