REMARK  Name = No_427-gen_results/8p0m/2024-11-27-11-27-31/
REMARK  4 active torsions:
REMARK  status: ('A' for Active; 'I' for Inactive)
REMARK    1  A    between atoms: C_3  and  C_7
REMARK    2  A    between atoms: C_7  and  C_8
REMARK    3  A    between atoms: C_7  and  C_15
REMARK    4  A    between atoms: C_8  and  C_9
REMARK                            x       y       z     vdW  Elec       q    Type
REMARK                         _______ _______ _______ _____ _____    ______ ____
ROOT
ATOM      1  C   UNL A   1     -27.459   0.493  26.770  0.00  0.00    +0.048 C 
ENDROOT
BRANCH   1   4
ATOM      2  C   UNL A   1     -28.016  -0.814  28.878  0.00  0.00    -0.004 A 
ATOM      3  C   UNL A   1     -28.469  -0.785  29.829  0.00  0.00    -0.000 A 
ATOM      4  C   UNL A   1     -28.182   0.428  28.113  0.00  0.00    -0.018 A 
ATOM      5  C   UNL A   1     -28.984   1.415  28.515  0.00  0.00    -0.004 A 
ATOM      6  C   UNL A   1     -29.380   0.138  30.461  0.00  0.00    -0.000 A 
ATOM      7  C   UNL A   1     -29.541   1.274  29.724  0.00  0.00    -0.000 A 
ENDBRANCH   1   4
BRANCH   1   8
ATOM      8  C   UNL A   1     -28.131   0.751  25.609  0.00  0.00    -0.026 C 
ATOM      9  C   UNL A   1     -29.187   1.547  25.500  0.00  0.00    -0.030 C 
ATOM     10  C   UNL A   1     -29.874   1.719  24.282  0.00  0.00    +0.030 C 
ENDBRANCH   1   8
BRANCH   1  11
ATOM     11  C   UNL A   1     -26.026   0.384  26.762  0.00  0.00    +0.035 C 
BRANCH  11  12
ATOM     12  C   UNL A   1     -25.226   1.351  27.372  0.00  0.00    -0.021 A 
ATOM     13  C   UNL A   1     -23.855   1.100  27.582  0.00  0.00    -0.004 A 
ATOM     14  C   UNL A   1     -22.947   2.179  27.642  0.00  0.00    -0.000 A 
ATOM     15  C   UNL A   1     -23.470   3.446  27.566  0.00  0.00    -0.000 A 
ATOM     16  C   UNL A   1     -25.464   2.782  27.168  0.00  0.00    -0.004 A 
ATOM     17  C   UNL A   1     -24.641   3.738  27.241  0.00  0.00    -0.000 A 
ENDBRANCH  11  12
ENDBRANCH   1  11
TORSDOF 4
