MODEL 4270
MODEL 1
REMARK VINA RESULT:    -6.780      0.000      0.000
REMARK INTER + INTRA:          -7.863
REMARK INTER:                  -7.572
REMARK INTRA:                  -0.290
REMARK UNBOUND:                -0.290
REMARK  Name = No_4270-gen_results/8p0m/2024-11-27-11-27-31/
REMARK  2 active torsions:
REMARK  status: ('A' for Active; 'I' for Inactive)
REMARK    1  A    between atoms: C_3  and  C_7
REMARK    2  A    between atoms: C_5  and  C_14
REMARK                            x       y       z     vdW  Elec       q    Type
REMARK                         _______ _______ _______ _____ _____    ______ ____
ROOT
ATOM      1  C   UNL A   1     -24.472  -4.722  28.692  0.00  0.00    +0.000 A 
ATOM      2  C   UNL A   1     -23.869  -3.695  28.905  0.00  0.00    +0.004 A 
ATOM      3  C   UNL A   1     -24.399  -2.570  29.513  0.00  0.00    +0.054 A 
ATOM      4  C   UNL A   1     -25.755  -2.646  29.947  0.00  0.00    +0.009 A 
ATOM      5  C   UNL A   1     -26.351  -3.845  29.844  0.00  0.00    +0.055 A 
ATOM      6  C   UNL A   1     -25.757  -4.865  29.295  0.00  0.00    +0.005 A 
ENDROOT
BRANCH   3   7
ATOM      7  C   UNL A   1     -23.649  -1.269  29.628  0.00  0.00    +0.253 C 
ATOM      8  N   UNL A   1     -23.742  -0.478  28.647  0.00  0.00    -0.254 N 
ATOM      9  C   UNL A   1     -24.437  -0.191  27.778  0.00  0.00    +0.063 C 
ATOM     10  C   UNL A   1     -24.079   0.737  26.703  0.00  0.00    -0.008 C 
ATOM     11  C   UNL A   1     -22.947   1.386  27.304  0.00  0.00    +0.049 C 
ATOM     12  C   UNL A   1     -22.557   0.539  28.495  0.00  0.00    +0.103 C 
ATOM     13  O   UNL A   1     -23.082  -1.033  30.714  0.00  0.00    -0.270 OA
ENDBRANCH   3   7
BRANCH   5  14
ATOM     14  C   UNL A   1     -27.724  -3.967  30.375  0.00  0.00    +0.265 C 
ATOM     15  O   UNL A   1     -28.154  -4.937  30.693  0.00  0.00    -0.268 OA
ATOM     16  N   UNL A   1     -28.521  -2.899  30.254  0.00  0.00    -0.200 NA
ATOM     17  C   UNL A   1     -29.890  -2.901  30.716  0.00  0.00    +0.139 C 
ENDBRANCH   5  14
TORSDOF 2
ENDMDL
ENDMDL
