MODEL 4271
MODEL 1
REMARK VINA RESULT:    -5.918      0.000      0.000
REMARK INTER + INTRA:         -13.834
REMARK INTER:                 -10.070
REMARK INTRA:                  -3.763
REMARK UNBOUND:                -3.763
REMARK  Name = No_4271-gen_results/8p0m/2024-11-27-11-27-31/
REMARK  12 active torsions:
REMARK  status: ('A' for Active; 'I' for Inactive)
REMARK    1  A    between atoms: C_6  and  O_7
REMARK    2  A    between atoms: O_7  and  C_8
REMARK    3  A    between atoms: C_8  and  C_9
REMARK    4  A    between atoms: C_8  and  C_16
REMARK    5  A    between atoms: C_9  and  C_10
REMARK    6  A    between atoms: C_10  and  C_12
REMARK    7  A    between atoms: C_12  and  C_13
REMARK    8  A    between atoms: C_13  and  O_14
REMARK    9  A    between atoms: O_14  and  C_15
REMARK   10  A    between atoms: C_15  and  C_19
REMARK   11  A    between atoms: C_23  and  C_24
REMARK   12  A    between atoms: C_24  and  C_26
REMARK                            x       y       z     vdW  Elec       q    Type
REMARK                         _______ _______ _______ _____ _____    ______ ____
ROOT
ATOM      1  C   UNL A   1     -30.673 -10.272   7.380  0.00  0.00    +0.143 C 
ENDROOT
BRANCH   1   2
ATOM      2  C   UNL A   1     -31.147  -9.622   8.373  0.00  0.00    +0.040 C 
BRANCH   2   3
ATOM      3  C   UNL A   1     -30.716 -10.024   9.652  0.00  0.00    +0.071 C 
BRANCH   3   4
ATOM      4  C   UNL A   1     -31.283 -11.106  10.151  0.00  0.00    +0.202 C 
ATOM      5  O   UNL A   1     -32.622 -11.286  10.083  0.00  0.00    -0.292 OA
BRANCH   4   6
ATOM      6  C   UNL A   1     -30.543 -12.107  10.771  0.00  0.00    +0.324 C 
BRANCH   6   7
ATOM      7  C   UNL A   1     -30.223 -11.830  12.199  0.00  0.00    +0.411 C 
ATOM      8  O   UNL A   1     -29.045 -11.924  12.508  0.00  0.00    -0.241 OA
ATOM      9  O   UNL A   1     -31.140 -11.530  12.931  0.00  0.00    -0.241 OA
ENDBRANCH   6   7
BRANCH   6  10
ATOM     10  O   UNL A   1     -29.474 -12.423  10.021  0.00  0.00    -0.461 OA
BRANCH  10  16
ATOM     11  C   UNL A   1     -29.796 -14.834  10.396  0.00  0.00    +0.037 A 
ATOM     12  C   UNL A   1     -29.659 -15.973  10.013  0.00  0.00    +0.003 A 
ATOM     13  C   UNL A   1     -28.929 -16.261   8.864  0.00  0.00    +0.000 A 
ATOM     14  C   UNL A   1     -28.353 -15.207   8.069  0.00  0.00    +0.003 A 
ATOM     15  C   UNL A   1     -28.580 -13.920   8.572  0.00  0.00    +0.037 A 
ATOM     16  C   UNL A   1     -29.248 -13.756   9.587  0.00  0.00    +0.140 A 
ENDBRANCH  10  16
ENDBRANCH   6  10
ENDBRANCH   4   6
ENDBRANCH   3   4
ENDBRANCH   2   3
ENDBRANCH   1   2
BRANCH   1  17
ATOM     17  O   UNL A   1     -29.742  -9.923   6.779  0.00  0.00    -0.349 OA
BRANCH  17  18
ATOM     18  C   UNL A   1     -28.684 -10.757   6.668  0.00  0.00    +0.169 C 
BRANCH  18  19
ATOM     19  C   UNL A   1     -27.446 -10.264   7.111  0.00  0.00    +0.007 A 
ATOM     20  C   UNL A   1     -26.827 -10.714   8.153  0.00  0.00    -0.002 A 
ATOM     21  C   UNL A   1     -26.867 -10.318   9.096  0.00  0.00    -0.001 A 
ATOM     22  C   UNL A   1     -27.125  -9.331   9.595  0.00  0.00    -0.004 A 
ATOM     23  C   UNL A   1     -27.385  -8.250   8.567  0.00  0.00    -0.018 A 
ATOM     24  C   UNL A   1     -27.470  -8.677   7.217  0.00  0.00    -0.006 A 
BRANCH  23  25
ATOM     25  C   UNL A   1     -27.507  -6.847   8.832  0.00  0.00    +0.053 C 
BRANCH  25  26
ATOM     26  C   UNL A   1     -28.978  -6.493   9.105  0.00  0.00    -0.018 A 
ATOM     27  C   UNL A   1     -29.542  -6.710  10.243  0.00  0.00    -0.004 A 
ATOM     28  C   UNL A   1     -30.863  -6.256  10.536  0.00  0.00    -0.000 A 
ATOM     29  C   UNL A   1     -31.547  -5.532   9.583  0.00  0.00    -0.000 A 
ATOM     30  C   UNL A   1     -30.996  -5.374   8.356  0.00  0.00    -0.000 A 
ATOM     31  C   UNL A   1     -29.682  -5.807   8.085  0.00  0.00    -0.004 A 
ENDBRANCH  25  26
ENDBRANCH  23  25
ENDBRANCH  18  19
ENDBRANCH  17  18
ENDBRANCH   1  17
TORSDOF 12
ENDMDL
ENDMDL
