MODEL 4272
MODEL 1
REMARK VINA RESULT:    -5.013      0.000      0.000
REMARK INTER + INTRA:          -5.013
REMARK INTER:                  -5.013
REMARK INTRA:                   0.000
REMARK UNBOUND:                 0.000
REMARK  Name = No_4272-gen_results/8p0m/2024-11-27-11-27-31/
REMARK  0 active torsions:
REMARK  status: ('A' for Active; 'I' for Inactive)
REMARK                            x       y       z     vdW  Elec       q    Type
REMARK                         _______ _______ _______ _____ _____    ______ ____
ROOT
ATOM      1  C   UNL A   1     -10.527  -9.308  19.181  0.00  0.00    +0.042 A 
ATOM      2  C   UNL A   1      -9.797  -9.110  20.124  0.00  0.00    +0.003 A 
ATOM      3  C   UNL A   1      -8.492  -9.589  20.135  0.00  0.00    +0.000 A 
ATOM      4  C   UNL A   1      -7.982 -10.375  19.042  0.00  0.00    +0.003 A 
ATOM      5  C   UNL A   1      -8.900 -10.576  18.003  0.00  0.00    +0.042 A 
ATOM      6  C   UNL A   1     -10.130 -10.117  18.049  0.00  0.00    +0.196 A 
ATOM      7  O   UNL A   1     -10.971 -10.390  17.014  0.00  0.00    -0.287 OA
ENDROOT
TORSDOF 0
ENDMDL
ENDMDL
