MODEL 4273
MODEL 1
REMARK VINA RESULT:    -6.548      0.000      0.000
REMARK INTER + INTRA:          -7.328
REMARK INTER:                  -6.931
REMARK INTRA:                  -0.397
REMARK UNBOUND:                -0.397
REMARK  Name = No_4273-gen_results/8p0m/2024-11-27-11-27-31/
REMARK  1 active torsions:
REMARK  status: ('A' for Active; 'I' for Inactive)
REMARK    1  A    between atoms: C_3  and  C_4
REMARK                            x       y       z     vdW  Elec       q    Type
REMARK                         _______ _______ _______ _____ _____    ______ ____
ROOT
ATOM      1  C   UNL A   1     -25.639  -2.609  29.820  0.00  0.00    +0.000 A 
ATOM      2  C   UNL A   1     -26.217  -3.487  29.896  0.00  0.00    +0.000 A 
ATOM      3  C   UNL A   1     -24.367  -2.707  29.214  0.00  0.00    +0.000 A 
ATOM      4  C   UNL A   1     -25.937  -4.873  29.483  0.00  0.00    +0.000 A 
ATOM      5  C   UNL A   1     -24.693  -5.047  28.877  0.00  0.00    +0.000 A 
ATOM      6  C   UNL A   1     -23.894  -3.966  28.683  0.00  0.00    +0.000 A 
ENDROOT
BRANCH   3   7
ATOM      7  C   UNL A   1     -23.476  -1.551  28.932  0.00  0.00    +0.000 A 
ATOM      8  C   UNL A   1     -22.431  -1.242  29.240  0.00  0.00    +0.000 A 
ATOM      9  C   UNL A   1     -21.645  -0.103  28.887  0.00  0.00    +0.000 A 
ATOM     10  C   UNL A   1     -22.371   0.825  28.030  0.00  0.00    +0.000 A 
ATOM     11  C   UNL A   1     -23.605   0.541  27.722  0.00  0.00    +0.000 A 
ATOM     12  C   UNL A   1     -24.210  -0.563  28.092  0.00  0.00    +0.000 A 
ENDBRANCH   3   7
TORSDOF 1
ENDMDL
ENDMDL
