MODEL 4274
MODEL 1
REMARK VINA RESULT:    -6.545      0.000      0.000
REMARK INTER + INTRA:          -7.106
REMARK INTER:                  -6.927
REMARK INTRA:                  -0.178
REMARK UNBOUND:                -0.178
REMARK  Name = No_4274-gen_results/8p0m/2024-11-27-11-27-31/
REMARK  1 active torsions:
REMARK  status: ('A' for Active; 'I' for Inactive)
REMARK    1  A    between atoms: C_2  and  C_13
REMARK                            x       y       z     vdW  Elec       q    Type
REMARK                         _______ _______ _______ _____ _____    ______ ____
ROOT
ATOM      1  C   UNL A   1     -24.093   2.096  27.851  0.00  0.00    +0.041 A 
ATOM      2  C   UNL A   1     -23.286   1.699  27.301  0.00  0.00    +0.074 A 
ATOM      3  C   UNL A   1     -24.288   1.512  29.232  0.00  0.00    +0.139 A 
ATOM      4  C   UNL A   1     -23.331   0.610  29.743  0.00  0.00    +0.034 A 
ATOM      5  C   UNL A   1     -22.147   0.803  27.603  0.00  0.00    +0.004 A 
ATOM      6  C   UNL A   1     -22.289   0.251  28.868  0.00  0.00    +0.003 A 
ATOM      7  C   UNL A   1     -23.472   0.016  31.028  0.00  0.00    +0.002 A 
ATOM      8  C   UNL A   1     -22.727  -0.625  31.540  0.00  0.00    -0.000 A 
ATOM      9  C   UNL A   1     -22.836  -1.350  32.862  0.00  0.00    -0.000 A 
ATOM     10  C   UNL A   1     -24.025  -1.136  33.447  0.00  0.00    -0.000 A 
ATOM     11  C   UNL A   1     -24.740   0.162  31.737  0.00  0.00    +0.021 A 
ATOM     12  C   UNL A   1     -25.005  -0.394  32.887  0.00  0.00    -0.001 A 
ATOM     13  O   UNL A   1     -25.328   1.895  29.950  0.00  0.00    -0.471 OA
ATOM     14  C   UNL A   1     -25.689   1.166  31.008  0.00  0.00    +0.232 C 
ENDROOT
BRANCH   2  15
ATOM     15  C   UNL A   1     -23.088   2.289  25.804  0.00  0.00    +0.419 C 
ATOM     16  F   UNL A   1     -23.648   1.557  25.131  0.00  0.00    -0.166 F 
ATOM     17  F   UNL A   1     -23.540   3.542  25.686  0.00  0.00    -0.166 F 
ATOM     18  F   UNL A   1     -21.804   2.304  25.459  0.00  0.00    -0.166 F 
ENDBRANCH   2  15
TORSDOF 1
ENDMDL
ENDMDL
