MODEL 4275
MODEL 1
REMARK VINA RESULT:    -7.194      0.000      0.000
REMARK INTER + INTRA:          -8.644
REMARK INTER:                  -8.035
REMARK INTRA:                  -0.609
REMARK UNBOUND:                -0.609
REMARK  Name = No_4275-gen_results/8p0m/2024-11-27-11-27-31/
REMARK  2 active torsions:
REMARK  status: ('A' for Active; 'I' for Inactive)
REMARK    1  A    between atoms: C_3  and  C_4
REMARK    2  A    between atoms: C_4  and  C_8
REMARK                            x       y       z     vdW  Elec       q    Type
REMARK                         _______ _______ _______ _____ _____    ______ ____
ROOT
ATOM      1  C   UNL A   1     -23.060  -0.699  28.605  0.00  0.00    -0.013 A 
ATOM      2  C   UNL A   1     -21.782  -0.408  28.971  0.00  0.00    +0.017 A 
ATOM      3  C   UNL A   1     -23.446   0.428  27.756  0.00  0.00    +0.032 A 
ATOM      4  C   UNL A   1     -24.720   0.482  27.096  0.00  0.00    +0.004 A 
ATOM      5  C   UNL A   1     -22.494   1.342  27.296  0.00  0.00    +0.162 A 
ATOM      6  N   UNL A   1     -22.918   2.243  26.306  0.00  0.00    -0.225 NA
ATOM      7  C   UNL A   1     -25.191   1.554  26.336  0.00  0.00    +0.021 A 
ATOM      8  C   UNL A   1     -24.175   2.458  25.948  0.00  0.00    +0.101 A 
ATOM      9  N   UNL A   1     -21.350   1.135  27.778  0.00  0.00    -0.225 NA
ATOM     10  C   UNL A   1     -20.871   0.349  28.483  0.00  0.00    +0.100 A 
ENDROOT
BRANCH   1  11
ATOM     11  C   UNL A   1     -23.979  -1.162  29.659  0.00  0.00    +0.053 C 
BRANCH  11  14
ATOM     12  C   UNL A   1     -23.813  -3.658  28.876  0.00  0.00    -0.004 A 
ATOM     13  C   UNL A   1     -24.384  -4.534  28.749  0.00  0.00    -0.000 A 
ATOM     14  C   UNL A   1     -24.492  -2.515  29.505  0.00  0.00    -0.018 A 
ATOM     15  C   UNL A   1     -25.715  -4.926  29.272  0.00  0.00    -0.000 A 
ATOM     16  C   UNL A   1     -26.420  -3.899  29.889  0.00  0.00    -0.000 A 
ATOM     17  C   UNL A   1     -25.843  -2.658  30.060  0.00  0.00    -0.004 A 
ENDBRANCH  11  14
ENDBRANCH   1  11
TORSDOF 2
ENDMDL
ENDMDL
