REMARK  Name = outputs/IAG933/test6/raw/output_4275_IAG933_linker_design_.xyz
REMARK  12 active torsions:
REMARK  status: ('A' for Active; 'I' for Inactive)
REMARK    1  A    between atoms: C_1  and  C_2
REMARK    2  A    between atoms: C_1  and  C_8
REMARK    3  A    between atoms: C_1  and  O_41
REMARK    4  A    between atoms: C_13  and  C_36
REMARK    5  A    between atoms: C_14  and  C_15
REMARK    6  A    between atoms: C_21  and  O_22
REMARK    7  A    between atoms: O_22  and  C_23
REMARK    8  A    between atoms: C_23  and  C_24
REMARK    9  A    between atoms: C_32  and  O_41
REMARK   10  A    between atoms: C_33  and  C_39
REMARK   11  A    between atoms: C_38  and  C_44
REMARK   12  A    between atoms: C_40  and  C_43
REMARK                            x       y       z     vdW  Elec       q    Type
REMARK                         _______ _______ _______ _____ _____    ______ ____
ROOT
ATOM      1  C   UNL A   1     -23.275   1.710  26.116  0.00  0.00    +0.012 C 
ATOM      2  C   UNL A   1     -24.169   0.380  28.321  0.00  0.00    +0.142 C 
ATOM      3  C   UNL A   1     -23.455   1.263  29.341  0.00  0.00    +0.004 C 
ATOM      4  C   UNL A   1     -21.832   1.095  28.988  0.00  0.00    -0.006 C 
ATOM      5  C   UNL A   1     -24.494   1.292  27.170  0.00  0.00    +0.057 C 
ATOM      6  C   UNL A   1     -24.526   2.135  30.077  0.00  0.00    -0.002 C 
ATOM      7  C   UNL A   1     -22.043   2.140  26.381  0.00  0.00    +0.026 C 
ATOM      8  C   UNL A   1     -21.211   1.456  27.531  0.00  0.00    -0.026 C 
ENDROOT
BRANCH   5   9
ATOM      9  C   UNL A   1     -25.688   1.614  26.461  0.00  0.00    +0.018 C 
ATOM     10  C   UNL A   1     -26.250   2.920  26.395  0.00  0.00    +0.073 C 
ATOM     11  C   UNL A   1     -27.438   3.091  25.645  0.00  0.00    +0.106 C 
ATOM     12  N   UNL A   1     -28.075   2.089  25.003  0.00  0.00    -0.208 NA
ATOM     13  C   UNL A   1     -27.543   0.849  25.079  0.00  0.00    +0.253 C 
ATOM     14  C   UNL A   1     -26.354   0.576  25.777  0.00  0.00    +0.189 C 
ATOM     15  F   UNL A   1     -25.860  -0.681  25.795  0.00  0.00    -0.200 F 
BRANCH  10  16
ATOM     16  C   UNL A   1     -25.642   4.093  27.123  0.00  0.00    +0.266 C 
ATOM     17  N   UNL A   1     -25.614   5.252  26.449  0.00  0.00    -0.200 NA
ATOM     18  C   UNL A   1     -25.026   6.479  26.963  0.00  0.00    +0.139 C 
ATOM     19  O   UNL A   1     -25.143   3.966  28.243  0.00  0.00    -0.268 OA
ENDBRANCH  10  16
BRANCH  13  20
ATOM     20  O   UNL A   1     -28.193  -0.208  24.477  0.00  0.00    -0.456 OA
BRANCH  20  21
ATOM     21  C   UNL A   1     -29.460   0.005  23.866  0.00  0.00    +0.243 C 
BRANCH  21  22
ATOM     22  C   UNL A   1     -30.065  -1.377  23.573  0.00  0.00    +0.229 C 
ATOM     23  O   UNL A   1     -30.729  -1.878  24.721  0.00  0.00    -0.216 OA
ENDBRANCH  21  22
ENDBRANCH  20  21
ENDBRANCH  13  20
ENDBRANCH   5   9
BRANCH   6  24
ATOM     24  C   UNL A   1     -24.715   3.157  30.914  0.00  0.00    -0.005 C 
ATOM     25  C   UNL A   1     -24.307   3.932  32.087  0.00  0.00    -0.025 C 
BRANCH  25  28
ATOM     26  C   UNL A   1     -24.106   6.580  32.342  0.00  0.00    +0.031 C 
ATOM     27  C   UNL A   1     -25.819   5.381  33.455  0.00  0.00    +0.093 C 
ATOM     28  C   UNL A   1     -24.967   5.343  32.412  0.00  0.00    +0.041 C 
ATOM     29  C   UNL A   1     -24.356   7.197  33.708  0.00  0.00    +0.130 C 
ATOM     30  N   UNL A   1     -25.314   6.384  34.340  0.00  0.00    -0.212 NA
BRANCH  29  33
ATOM     31  C   UNL A   1     -22.931   8.845  35.064  0.00  0.00    +0.074 C 
ATOM     32  O   UNL A   1     -22.152   6.696  34.410  0.00  0.00    -0.295 OA
ATOM     33  C   UNL A   1     -23.067   7.532  34.404  0.00  0.00    +0.167 C 
ENDBRANCH  29  33
ENDBRANCH  25  28
ENDBRANCH   6  24
BRANCH   2  34
ATOM     34  O   UNL A   1     -25.228  -0.202  29.051  0.00  0.00    -0.348 OA
BRANCH  34  35
ATOM     35  C   UNL A   1     -24.855  -1.012  30.143  0.00  0.00    +0.154 C 
BRANCH  35  36
ATOM     36  C   UNL A   1     -24.973  -2.505  29.788  0.00  0.00    +0.006 C 
ATOM     37  C   UNL A   1     -23.906  -3.173  29.146  0.00  0.00    -0.002 C 
ATOM     38  C   UNL A   1     -23.989  -4.549  28.853  0.00  0.00    -0.000 C 
ATOM     39  C   UNL A   1     -25.137  -5.280  29.205  0.00  0.00    -0.000 C 
ATOM     40  C   UNL A   1     -26.232  -4.611  29.784  0.00  0.00    -0.000 C 
ATOM     41  C   UNL A   1     -26.155  -3.232  30.065  0.00  0.00    -0.002 C 
ENDBRANCH  35  36
BRANCH  35  42
ATOM     42  C   UNL A   1     -25.387  -0.679  31.571  0.00  0.00    +0.104 C 
ATOM     43  C   UNL A   1     -25.189   0.773  32.028  0.00  0.00    +0.022 C 
ATOM     44  C   UNL A   1     -25.336   0.684  33.544  0.00  0.00    +0.020 C 
ATOM     45  C   UNL A   1     -24.829  -0.715  33.905  0.00  0.00    +0.089 C 
ATOM     46  N   UNL A   1     -24.758  -1.481  32.646  0.00  0.00    -0.217 NA
ENDBRANCH  35  42
ENDBRANCH  34  35
ENDBRANCH   2  34
TORSDOF 12
