REMARK  Name = outputs/IAG933/test6/raw/output_4276_IAG933_linker_design_.xyz
REMARK  12 active torsions:
REMARK  status: ('A' for Active; 'I' for Inactive)
REMARK    1  A    between atoms: C_1  and  C_2
REMARK    2  A    between atoms: C_1  and  C_8
REMARK    3  A    between atoms: C_1  and  C_35
REMARK    4  A    between atoms: C_13  and  C_28
REMARK    5  A    between atoms: C_14  and  C_15
REMARK    6  A    between atoms: C_21  and  O_22
REMARK    7  A    between atoms: O_22  and  C_23
REMARK    8  A    between atoms: C_23  and  C_24
REMARK    9  A    between atoms: C_28  and  C_39
REMARK   10  A    between atoms: C_33  and  C_39
REMARK   11  A    between atoms: C_35  and  C_40
REMARK   12  A    between atoms: C_36  and  C_40
REMARK                            x       y       z     vdW  Elec       q    Type
REMARK                         _______ _______ _______ _____ _____    ______ ____
ROOT
ATOM      1  C   UNL A   1     -24.720   1.271  27.171  0.00  0.00    +0.002 C 
ATOM      2  C   UNL A   1     -23.407   1.687  26.892  0.00  0.00    +0.055 C 
ATOM      3  O   UNL A   1     -22.457   2.936  25.375  0.00  0.00    -0.288 OA
ATOM      4  F   UNL A   1     -20.969   1.833  27.145  0.00  0.00    -0.224 F 
ATOM      5  C   UNL A   1     -22.315   1.546  27.265  0.00  0.00    +0.247 C 
ATOM      6  C   UNL A   1     -22.848   2.372  26.126  0.00  0.00    +0.209 C 
ENDROOT
BRANCH   1   7
ATOM      7  C   UNL A   1     -25.688   1.614  26.461  0.00  0.00    +0.038 C 
ATOM      8  C   UNL A   1     -26.250   2.920  26.395  0.00  0.00    +0.076 C 
ATOM      9  C   UNL A   1     -27.438   3.091  25.645  0.00  0.00    +0.107 C 
ATOM     10  N   UNL A   1     -28.075   2.089  25.003  0.00  0.00    -0.208 NA
ATOM     11  C   UNL A   1     -27.543   0.849  25.079  0.00  0.00    +0.253 C 
ATOM     12  C   UNL A   1     -26.354   0.576  25.777  0.00  0.00    +0.193 C 
ATOM     13  F   UNL A   1     -25.860  -0.681  25.795  0.00  0.00    -0.199 F 
BRANCH   8  14
ATOM     14  C   UNL A   1     -25.642   4.093  27.123  0.00  0.00    +0.266 C 
ATOM     15  N   UNL A   1     -25.614   5.252  26.449  0.00  0.00    -0.200 NA
ATOM     16  C   UNL A   1     -25.026   6.479  26.963  0.00  0.00    +0.139 C 
ATOM     17  O   UNL A   1     -25.143   3.966  28.243  0.00  0.00    -0.268 OA
ENDBRANCH   8  14
BRANCH  11  18
ATOM     18  O   UNL A   1     -28.193  -0.208  24.477  0.00  0.00    -0.456 OA
BRANCH  18  19
ATOM     19  C   UNL A   1     -29.460   0.005  23.866  0.00  0.00    +0.243 C 
BRANCH  19  20
ATOM     20  C   UNL A   1     -30.065  -1.377  23.573  0.00  0.00    +0.229 C 
ATOM     21  O   UNL A   1     -30.729  -1.878  24.721  0.00  0.00    -0.216 OA
ENDBRANCH  19  20
ENDBRANCH  18  19
ENDBRANCH  11  18
ENDBRANCH   1   7
BRANCH   1  23
ATOM     22  C   UNL A   1     -24.429  -0.123  29.045  0.00  0.00    -0.029 C 
ATOM     23  C   UNL A   1     -25.279   0.521  28.226  0.00  0.00    +0.004 C 
BRANCH  23  25
ATOM     24  O   UNL A   1     -27.367   1.147  29.330  0.00  0.00    -0.215 OA
ATOM     25  C   UNL A   1     -26.793   0.127  28.492  0.00  0.00    +0.208 C 
ENDBRANCH  23  25
BRANCH  22  26
ATOM     26  C   UNL A   1     -24.855  -1.012  30.143  0.00  0.00    +0.057 C 
BRANCH  26  27
ATOM     27  C   UNL A   1     -24.973  -2.505  29.788  0.00  0.00    -0.017 C 
ATOM     28  C   UNL A   1     -23.906  -3.173  29.146  0.00  0.00    -0.004 C 
ATOM     29  C   UNL A   1     -23.989  -4.549  28.853  0.00  0.00    -0.000 C 
ATOM     30  C   UNL A   1     -25.137  -5.280  29.205  0.00  0.00    -0.000 C 
ATOM     31  C   UNL A   1     -26.232  -4.611  29.784  0.00  0.00    -0.000 C 
ATOM     32  C   UNL A   1     -26.155  -3.232  30.065  0.00  0.00    -0.004 C 
ENDBRANCH  26  27
BRANCH  26  33
ATOM     33  C   UNL A   1     -25.387  -0.679  31.571  0.00  0.00    +0.081 C 
ATOM     34  C   UNL A   1     -25.189   0.773  32.028  0.00  0.00    +0.019 C 
ATOM     35  C   UNL A   1     -25.336   0.684  33.544  0.00  0.00    +0.020 C 
ATOM     36  C   UNL A   1     -24.829  -0.715  33.905  0.00  0.00    +0.089 C 
ATOM     37  N   UNL A   1     -24.758  -1.481  32.646  0.00  0.00    -0.219 NA
ENDBRANCH  26  33
ENDBRANCH  22  26
BRANCH  22  38
ATOM     38  C   UNL A   1     -23.184  -0.022  28.927  0.00  0.00    +0.136 C 
BRANCH  38  40
ATOM     39  O   UNL A   1     -20.740  -0.288  28.590  0.00  0.00    -0.245 OA
ATOM     40  C   UNL A   1     -21.878  -0.070  29.389  0.00  0.00    +0.369 C 
ATOM     41  O   UNL A   1     -21.745  -0.116  30.565  0.00  0.00    -0.245 OA
ENDBRANCH  38  40
ENDBRANCH  22  38
ENDBRANCH   1  23
TORSDOF 12
