MODEL 4276
MODEL 1
REMARK VINA RESULT:    -7.844      0.000      0.000
REMARK INTER + INTRA:         -13.998
REMARK INTER:                 -11.053
REMARK INTRA:                  -2.945
REMARK UNBOUND:                -2.945
REMARK  Name = No_4276-gen_results/8p0m/2024-11-27-11-27-31/
REMARK  7 active torsions:
REMARK  status: ('A' for Active; 'I' for Inactive)
REMARK    1  A    between atoms: C_1  and  C_2
REMARK    2  A    between atoms: C_1  and  O_8
REMARK    3  A    between atoms: C_5  and  C_9
REMARK    4  A    between atoms: C_7  and  C_24
REMARK    5  A    between atoms: O_8  and  C_12
REMARK    6  A    between atoms: C_16  and  C_18
REMARK    7  A    between atoms: C_23  and  C_30
REMARK                            x       y       z     vdW  Elec       q    Type
REMARK                         _______ _______ _______ _____ _____    ______ ____
ROOT
ATOM      1  C   UNL A   1     -25.991   1.020  29.678  0.00  0.00    +0.232 C 
ENDROOT
BRANCH   1   2
ATOM      2  C   UNL A   1     -25.681  -0.138  29.520  0.00  0.00    +0.021 A 
ATOM      3  C   UNL A   1     -26.377  -1.161  30.154  0.00  0.00    -0.000 A 
ATOM      4  C   UNL A   1     -26.088  -2.620  30.049  0.00  0.00    +0.008 A 
ATOM      5  C   UNL A   1     -25.103  -2.993  29.087  0.00  0.00    +0.098 A 
ATOM      6  C   UNL A   1     -24.451  -1.942  28.410  0.00  0.00    +0.008 A 
ATOM      7  C   UNL A   1     -24.721  -0.640  28.588  0.00  0.00    +0.001 A 
BRANCH   7   8
ATOM      8  C   UNL A   1     -23.909   0.318  27.804  0.00  0.00    +0.010 A 
ATOM      9  C   UNL A   1     -23.141   0.940  28.077  0.00  0.00    +0.001 A 
ATOM     10  C   UNL A   1     -22.367   1.934  27.408  0.00  0.00    +0.000 A 
ATOM     11  C   UNL A   1     -24.433   0.497  26.449  0.00  0.00    +0.058 A 
ATOM     12  C   UNL A   1     -23.852   1.385  25.598  0.00  0.00    +0.011 A 
ATOM     13  C   UNL A   1     -22.754   2.097  26.075  0.00  0.00    +0.001 A 
ATOM     14 CL   UNL A   1     -25.780  -0.427  25.830  0.00  0.00    -0.082 Cl
ENDBRANCH   7   8
BRANCH   5  15
ATOM     15  C   UNL A   1     -24.857  -4.397  28.946  0.00  0.00    +0.477 C 
ATOM     16  N   UNL A   1     -23.724  -4.853  28.384  0.00  0.00    +0.205 NA
ATOM     17  N   UNL A   1     -25.612  -5.245  29.678  0.00  0.00    +0.205 NA
ENDBRANCH   5  15
ENDBRANCH   1   2
BRANCH   1  18
ATOM     18  O   UNL A   1     -27.130   1.360  29.164  0.00  0.00    -0.471 OA
BRANCH  18  19
ATOM     19  C   UNL A   1     -27.302   1.863  28.199  0.00  0.00    +0.139 A 
ATOM     20  C   UNL A   1     -26.428   3.035  27.918  0.00  0.00    +0.037 A 
ATOM     21  C   UNL A   1     -26.552   3.757  26.685  0.00  0.00    +0.003 A 
ATOM     22  C   UNL A   1     -28.046   1.640  27.001  0.00  0.00    +0.037 A 
ATOM     23  C   UNL A   1     -28.197   2.390  25.884  0.00  0.00    +0.003 A 
ATOM     24  C   UNL A   1     -27.385   3.473  25.686  0.00  0.00    +0.000 A 
BRANCH  23  25
ATOM     25  C   UNL A   1     -29.117   1.962  24.768  0.00  0.00    +0.000 A 
ATOM     26  C   UNL A   1     -29.511   2.645  23.952  0.00  0.00    +0.000 A 
ATOM     27  C   UNL A   1     -30.477   2.169  22.918  0.00  0.00    +0.000 A 
ATOM     28  C   UNL A   1     -30.910   0.865  22.982  0.00  0.00    +0.007 A 
ATOM     29  C   UNL A   1     -29.546   0.548  24.844  0.00  0.00    +0.007 A 
ATOM     30  C   UNL A   1     -30.393   0.049  23.929  0.00  0.00    +0.080 A 
BRANCH  30  31
ATOM     31  C   UNL A   1     -30.778  -1.383  23.945  0.00  0.00    +0.388 C 
ATOM     32  O   UNL A   1     -30.204  -2.201  24.393  0.00  0.00    -0.241 OA
ATOM     33  O   UNL A   1     -31.990  -1.600  23.325  0.00  0.00    -0.241 OA
ENDBRANCH  30  31
ENDBRANCH  23  25
ENDBRANCH  18  19
ENDBRANCH   1  18
TORSDOF 7
ENDMDL
ENDMDL
