MODEL 4277
MODEL 1
REMARK VINA RESULT:    -5.473      0.000      0.000
REMARK INTER + INTRA:          -5.843
REMARK INTER:                  -5.793
REMARK INTRA:                  -0.050
REMARK UNBOUND:                -0.050
REMARK  Name = No_4277-gen_results/8p0m/2024-11-27-11-27-31/
REMARK  1 active torsions:
REMARK  status: ('A' for Active; 'I' for Inactive)
REMARK    1  A    between atoms: C_4  and  C_11
REMARK                            x       y       z     vdW  Elec       q    Type
REMARK                         _______ _______ _______ _____ _____    ______ ____
ROOT
ATOM      1  C   UNL A   1     -24.620  -0.151  30.028  0.00  0.00    -0.000 A 
ATOM      2  C   UNL A   1     -25.518  -0.942  30.200  0.00  0.00    -0.000 A 
ATOM      3  C   UNL A   1     -25.439  -2.287  29.843  0.00  0.00    -0.003 A 
ATOM      4  C   UNL A   1     -26.486  -3.316  30.004  0.00  0.00    -0.003 A 
ATOM      5  C   UNL A   1     -26.385  -4.690  29.586  0.00  0.00    -0.003 A 
ATOM      6  C   UNL A   1     -25.106  -5.087  29.182  0.00  0.00    -0.000 A 
ATOM      7  C   UNL A   1     -23.425  -0.621  29.246  0.00  0.00    -0.000 A 
ATOM      8  C   UNL A   1     -23.224  -1.946  28.935  0.00  0.00    -0.000 A 
ATOM      9  C   UNL A   1     -24.239  -2.855  29.175  0.00  0.00    -0.000 A 
ATOM     10  C   UNL A   1     -24.084  -4.210  28.886  0.00  0.00    -0.000 A 
ENDROOT
BRANCH   4  11
ATOM     11  C   UNL A   1     -27.808  -2.951  30.610  0.00  0.00    +0.136 C 
ATOM     12  N   UNL A   1     -28.797  -3.537  30.258  0.00  0.00    -0.126 NA
ENDBRANCH   4  11
TORSDOF 1
ENDMDL
ENDMDL
