REMARK  Name = outputs/IAG933/test6/raw/output_4277_IAG933_linker_design_.xyz
REMARK  11 active torsions:
REMARK  status: ('A' for Active; 'I' for Inactive)
REMARK    1  A    between atoms: C_1  and  C_2
REMARK    2  A    between atoms: C_1  and  C_8
REMARK    3  A    between atoms: C_1  and  C_45
REMARK    4  A    between atoms: C_13  and  C_37
REMARK    5  A    between atoms: C_14  and  C_15
REMARK    6  A    between atoms: C_21  and  O_22
REMARK    7  A    between atoms: O_22  and  C_23
REMARK    8  A    between atoms: C_23  and  C_24
REMARK    9  A    between atoms: O_29  and  C_44
REMARK   10  A    between atoms: C_30  and  C_42
REMARK   11  A    between atoms: N_36  and  C_39
REMARK                            x       y       z     vdW  Elec       q    Type
REMARK                         _______ _______ _______ _____ _____    ______ ____
ROOT
ATOM      1  C   UNL A   1     -22.985   0.358  29.102  0.00  0.00    +0.030 C 
ATOM      2  C   UNL A   1     -24.776   1.218  27.272  0.00  0.00    +0.054 C 
ATOM      3  F   UNL A   1     -21.183   1.531  27.855  0.00  0.00    -0.201 F 
ATOM      4  C   UNL A   1     -25.317   0.701  28.443  0.00  0.00    +0.073 C 
ATOM      5  C   UNL A   1     -22.520   1.084  28.004  0.00  0.00    +0.174 C 
ATOM      6  C   UNL A   1     -23.376   1.322  26.951  0.00  0.00    +0.167 C 
ATOM      7  C   UNL A   1     -24.360   0.028  29.225  0.00  0.00    +0.001 C 
ENDROOT
BRANCH   2   8
ATOM      8  C   UNL A   1     -25.688   1.614  26.461  0.00  0.00    +0.042 C 
ATOM      9  C   UNL A   1     -26.250   2.920  26.395  0.00  0.00    +0.077 C 
ATOM     10  C   UNL A   1     -27.438   3.091  25.645  0.00  0.00    +0.107 C 
ATOM     11  N   UNL A   1     -28.075   2.089  25.003  0.00  0.00    -0.208 NA
ATOM     12  C   UNL A   1     -27.543   0.849  25.079  0.00  0.00    +0.253 C 
ATOM     13  C   UNL A   1     -26.354   0.576  25.777  0.00  0.00    +0.193 C 
ATOM     14  F   UNL A   1     -25.860  -0.681  25.795  0.00  0.00    -0.199 F 
BRANCH   9  15
ATOM     15  C   UNL A   1     -25.642   4.093  27.123  0.00  0.00    +0.266 C 
ATOM     16  N   UNL A   1     -25.614   5.252  26.449  0.00  0.00    -0.200 NA
ATOM     17  C   UNL A   1     -25.026   6.479  26.963  0.00  0.00    +0.139 C 
ATOM     18  O   UNL A   1     -25.143   3.966  28.243  0.00  0.00    -0.268 OA
ENDBRANCH   9  15
BRANCH  12  19
ATOM     19  O   UNL A   1     -28.193  -0.208  24.477  0.00  0.00    -0.456 OA
BRANCH  19  20
ATOM     20  C   UNL A   1     -29.460   0.005  23.866  0.00  0.00    +0.243 C 
BRANCH  20  21
ATOM     21  C   UNL A   1     -30.065  -1.377  23.573  0.00  0.00    +0.229 C 
ATOM     22  O   UNL A   1     -30.729  -1.878  24.721  0.00  0.00    -0.216 OA
ENDBRANCH  20  21
ENDBRANCH  19  20
ENDBRANCH  12  19
ENDBRANCH   2   8
BRANCH   4  24
ATOM     23  C   UNL A   1     -27.835   0.225  29.107  0.00  0.00    +0.245 C 
ATOM     24  N   UNL A   1     -26.670   0.959  29.023  0.00  0.00    -0.179 NA
ATOM     25  O   UNL A   1     -27.964  -0.976  28.730  0.00  0.00    -0.273 OA
BRANCH  23  31
ATOM     26  C   UNL A   1     -30.055   0.199  30.495  0.00  0.00    +0.009 C 
ATOM     27  C   UNL A   1     -29.742   1.824  28.669  0.00  0.00    +0.009 C 
ATOM     28  C   UNL A   1     -30.912  -0.757  29.666  0.00  0.00    +0.001 C 
ATOM     29  C   UNL A   1     -30.741  -0.530  28.159  0.00  0.00    +0.000 C 
ATOM     30  C   UNL A   1     -30.610   0.945  27.804  0.00  0.00    +0.001 C 
ATOM     31  C   UNL A   1     -28.984   0.995  29.735  0.00  0.00    +0.079 C 
ENDBRANCH  23  31
ENDBRANCH   4  24
BRANCH   6  32
ATOM     32  O   UNL A   1     -22.700   1.440  25.706  0.00  0.00    -0.469 OA
ATOM     33  C   UNL A   1     -22.488   2.671  25.040  0.00  0.00    +0.253 C 
ENDBRANCH   6  32
BRANCH   7  34
ATOM     34  C   UNL A   1     -24.855  -1.012  30.143  0.00  0.00    +0.062 C 
BRANCH  34  35
ATOM     35  C   UNL A   1     -24.973  -2.505  29.788  0.00  0.00    -0.017 C 
ATOM     36  C   UNL A   1     -23.906  -3.173  29.146  0.00  0.00    -0.004 C 
ATOM     37  C   UNL A   1     -23.989  -4.549  28.853  0.00  0.00    -0.000 C 
ATOM     38  C   UNL A   1     -25.137  -5.280  29.205  0.00  0.00    -0.000 C 
ATOM     39  C   UNL A   1     -26.232  -4.611  29.784  0.00  0.00    -0.000 C 
ATOM     40  C   UNL A   1     -26.155  -3.232  30.065  0.00  0.00    -0.004 C 
ENDBRANCH  34  35
BRANCH  34  41
ATOM     41  C   UNL A   1     -25.387  -0.679  31.571  0.00  0.00    +0.081 C 
ATOM     42  C   UNL A   1     -25.189   0.773  32.028  0.00  0.00    +0.019 C 
ATOM     43  C   UNL A   1     -25.336   0.684  33.544  0.00  0.00    +0.020 C 
ATOM     44  C   UNL A   1     -24.829  -0.715  33.905  0.00  0.00    +0.089 C 
ATOM     45  N   UNL A   1     -24.758  -1.481  32.646  0.00  0.00    -0.219 NA
ENDBRANCH  34  41
ENDBRANCH   7  34
TORSDOF 11
