MODEL 4278
MODEL 1
REMARK VINA RESULT:    -4.246      0.000      0.000
REMARK INTER + INTRA:          -4.246
REMARK INTER:                  -4.246
REMARK INTRA:                   0.000
REMARK UNBOUND:                 0.000
REMARK  Name = No_4278-gen_results/8p0m/2024-11-27-11-27-31/
REMARK  0 active torsions:
REMARK  status: ('A' for Active; 'I' for Inactive)
REMARK                            x       y       z     vdW  Elec       q    Type
REMARK                         _______ _______ _______ _____ _____    ______ ____
ROOT
ATOM      1  C   UNL A   1     -24.965  -5.355  28.963  0.00  0.00    +0.000 A 
ATOM      2  C   UNL A   1     -24.180  -4.688  28.744  0.00  0.00    +0.000 A 
ATOM      3  C   UNL A   1     -26.144  -4.788  29.638  0.00  0.00    +0.000 A 
ATOM      4  C   UNL A   1     -26.254  -3.382  29.844  0.00  0.00    +0.000 A 
ATOM      5  C   UNL A   1     -24.068  -3.205  28.799  0.00  0.00    +0.000 A 
ATOM      6  C   UNL A   1     -25.138  -2.642  29.428  0.00  0.00    +0.000 A 
ENDROOT
TORSDOF 0
ENDMDL
ENDMDL
