MODEL 4279
MODEL 1
REMARK VINA RESULT:    -8.504      0.000      0.000
REMARK INTER + INTRA:         -11.736
REMARK INTER:                 -10.492
REMARK INTRA:                  -1.244
REMARK UNBOUND:                -1.244
REMARK  Name = No_4279-gen_results/8p0m/2024-11-27-11-27-31/
REMARK  4 active torsions:
REMARK  status: ('A' for Active; 'I' for Inactive)
REMARK    1  A    between atoms: C_2  and  O_14
REMARK    2  A    between atoms: C_3  and  C_7
REMARK    3  A    between atoms: O_14  and  C_15
REMARK    4  A    between atoms: C_20  and  C_30
REMARK                            x       y       z     vdW  Elec       q    Type
REMARK                         _______ _______ _______ _____ _____    ______ ____
ROOT
ATOM      1  C   UNL A   1     -11.264   2.540  38.202  0.00  0.00    +0.233 C 
ATOM      2  C   UNL A   1     -12.361   3.037  37.462  0.00  0.00    +0.237 C 
ATOM      3  N   UNL A   1     -12.396   2.782  36.254  0.00  0.00    -0.274 N 
ATOM      4  C   UNL A   1     -11.647   2.103  35.611  0.00  0.00    +0.105 C 
ATOM      5  C   UNL A   1     -13.836   2.769  35.756  0.00  0.00    +0.101 C 
ATOM      6  C   UNL A   1     -11.865   1.797  34.177  0.00  0.00    +0.123 C 
ATOM      7  C   UNL A   1     -14.831   3.322  36.490  0.00  0.00    +0.030 A 
ATOM      8  C   UNL A   1     -15.864   3.720  36.155  0.00  0.00    +0.000 A 
ATOM      9  C   UNL A   1     -16.977   4.218  37.053  0.00  0.00    -0.000 A 
ATOM     10  C   UNL A   1     -16.791   3.931  38.441  0.00  0.00    +0.003 A 
ATOM     11  C   UNL A   1     -15.653   3.269  38.891  0.00  0.00    +0.037 A 
ATOM     12  C   UNL A   1     -14.681   2.952  38.049  0.00  0.00    +0.144 A 
ATOM     13  C   UNL A   1     -13.937   2.366  34.464  0.00  0.00    +0.025 C 
ATOM     14  C   UNL A   1     -13.012   1.893  33.684  0.00  0.00    +0.015 C 
ATOM     15  O   UNL A   1     -13.540   3.098  38.210  0.00  0.00    -0.437 OA
ENDROOT
BRANCH   6  16
ATOM     16  C   UNL A   1     -10.688   1.158  33.374  0.00  0.00    +0.366 C 
ATOM     17  O   UNL A   1      -9.586   1.012  33.805  0.00  0.00    -0.246 OA
ATOM     18  O   UNL A   1     -10.958   0.829  32.183  0.00  0.00    -0.246 OA
ENDBRANCH   6  16
BRANCH   1  19
ATOM     19  O   UNL A   1     -11.055   1.163  38.025  0.00  0.00    -0.446 OA
BRANCH  19  21
ATOM     20  C   UNL A   1     -12.061   0.559  39.846  0.00  0.00    +0.037 A 
ATOM     21  C   UNL A   1     -11.606   0.183  38.973  0.00  0.00    +0.146 A 
ATOM     22  C   UNL A   1     -12.521  -0.484  40.763  0.00  0.00    +0.003 A 
ATOM     23  C   UNL A   1     -12.347  -1.820  40.496  0.00  0.00    +0.000 A 
ATOM     24  C   UNL A   1     -11.289  -1.142  38.439  0.00  0.00    +0.037 A 
ATOM     25  C   UNL A   1     -11.730  -2.158  39.319  0.00  0.00    +0.003 A 
BRANCH  22  26
ATOM     26  C   UNL A   1     -13.154  -0.149  42.071  0.00  0.00    -0.000 A 
ATOM     27  C   UNL A   1     -14.557  -0.077  42.069  0.00  0.00    -0.004 A 
ATOM     28  C   UNL A   1     -15.244  -0.023  43.250  0.00  0.00    -0.022 A 
ATOM     29  C   UNL A   1     -14.687  -0.123  44.450  0.00  0.00    -0.004 A 
ATOM     30  C   UNL A   1     -13.239   0.071  44.416  0.00  0.00    -0.000 A 
ATOM     31  C   UNL A   1     -12.538  -0.137  43.278  0.00  0.00    -0.000 A 
ATOM     32  C   UNL A   1     -16.781   0.055  43.299  0.00  0.00    +0.031 C 
ENDBRANCH  22  26
ENDBRANCH  19  21
ENDBRANCH   1  19
TORSDOF 4
ENDMDL
ENDMDL
