MODEL 427
MODEL 1
REMARK VINA RESULT:    -7.345      0.000      0.000
REMARK INTER + INTRA:         -10.267
REMARK INTER:                  -9.062
REMARK INTRA:                  -1.205
REMARK UNBOUND:                -1.205
REMARK  Name = No_427-gen_results/8p0m/2024-11-27-11-27-31/
REMARK  4 active torsions:
REMARK  status: ('A' for Active; 'I' for Inactive)
REMARK    1  A    between atoms: C_3  and  C_7
REMARK    2  A    between atoms: C_7  and  C_8
REMARK    3  A    between atoms: C_7  and  C_15
REMARK    4  A    between atoms: C_8  and  C_9
REMARK                            x       y       z     vdW  Elec       q    Type
REMARK                         _______ _______ _______ _____ _____    ______ ____
ROOT
ATOM      1  C   UNL A   1     -24.873  -1.368  29.777  0.00  0.00    +0.048 C 
ENDROOT
BRANCH   1   4
ATOM      2  C   UNL A   1     -23.910  -3.471  28.724  0.00  0.00    -0.004 A 
ATOM      3  C   UNL A   1     -24.001  -4.516  28.620  0.00  0.00    -0.000 A 
ATOM      4  C   UNL A   1     -25.000  -2.863  29.497  0.00  0.00    -0.018 A 
ATOM      5  C   UNL A   1     -26.084  -3.546  29.865  0.00  0.00    -0.004 A 
ATOM      6  C   UNL A   1     -25.064  -5.447  28.907  0.00  0.00    -0.000 A 
ATOM      7  C   UNL A   1     -26.078  -4.859  29.603  0.00  0.00    -0.000 A 
ENDBRANCH   1   4
BRANCH   1   8
ATOM      8  C   UNL A   1     -25.015  -0.863  31.038  0.00  0.00    -0.026 C 
ATOM      9  C   UNL A   1     -24.215  -1.132  32.062  0.00  0.00    -0.030 C 
ATOM     10  C   UNL A   1     -24.456  -0.628  33.356  0.00  0.00    +0.030 C 
ENDBRANCH   1   8
BRANCH   1  11
ATOM     11  C   UNL A   1     -24.491  -0.502  28.695  0.00  0.00    +0.035 C 
BRANCH  11  12
ATOM     12  C   UNL A   1     -23.281   0.193  28.721  0.00  0.00    -0.021 A 
ATOM     13  C   UNL A   1     -22.084  -0.489  29.020  0.00  0.00    -0.004 A 
ATOM     14  C   UNL A   1     -20.858  -0.005  28.515  0.00  0.00    -0.000 A 
ATOM     15  C   UNL A   1     -20.890   1.171  27.808  0.00  0.00    -0.000 A 
ATOM     16  C   UNL A   1     -23.024   1.317  27.818  0.00  0.00    -0.004 A 
ATOM     17  C   UNL A   1     -21.916   1.747  27.388  0.00  0.00    -0.000 A 
ENDBRANCH  11  12
ENDBRANCH   1  11
TORSDOF 4
ENDMDL
ENDMDL
