MODEL 4281
MODEL 1
REMARK VINA RESULT:    -5.355      0.000      0.000
REMARK INTER + INTRA:          -7.201
REMARK INTER:                  -6.294
REMARK INTRA:                  -0.907
REMARK UNBOUND:                -0.907
REMARK  Name = No_4281-gen_results/8p0m/2024-11-27-11-27-31/
REMARK  3 active torsions:
REMARK  status: ('A' for Active; 'I' for Inactive)
REMARK    1  A    between atoms: C_2  and  C_3
REMARK    2  A    between atoms: N_4  and  C_11
REMARK    3  A    between atoms: C_17  and  C_18
REMARK                            x       y       z     vdW  Elec       q    Type
REMARK                         _______ _______ _______ _____ _____    ______ ____
ROOT
ATOM      1  O   UNL A   1      -7.851   0.776   7.891  0.00  0.00    -0.270 OA
ATOM      2  C   UNL A   1      -7.790   1.111   8.992  0.00  0.00    +0.253 C 
ATOM      3  N   UNL A   1      -8.788   1.987   9.633  0.00  0.00    -0.257 N 
ATOM      4  C   UNL A   1      -9.870   2.476   8.802  0.00  0.00    +0.120 C 
ENDROOT
BRANCH   3   5
ATOM      5  C   UNL A   1      -8.742   2.329  10.971  0.00  0.00    +0.031 C 
ATOM      6  C   UNL A   1      -9.138   1.586  11.807  0.00  0.00    -0.011 C 
ATOM      7  C   UNL A   1      -9.834   1.601  12.606  0.00  0.00    +0.053 C 
ATOM      8  C   UNL A   1     -10.733   2.805  12.828  0.00  0.00    -0.026 C 
ATOM      9  C   UNL A   1     -10.028   4.012  12.662  0.00  0.00    -0.030 C 
ATOM     10  C   UNL A   1      -8.707   3.941  12.466  0.00  0.00    +0.035 C 
ATOM     11  C   UNL A   1      -8.821   3.639  11.449  0.00  0.00    +0.058 C 
BRANCH  11  12
ATOM     12  C   UNL A   1      -7.390   4.174  11.032  0.00  0.00    -0.039 C 
ATOM     13  C   UNL A   1      -6.289   4.084  11.843  0.00  0.00    -0.009 C 
ATOM     14  C   UNL A   1      -7.270   4.895   9.842  0.00  0.00    +0.027 C 
ENDBRANCH  11  12
ENDBRANCH   3   5
BRANCH   2  15
ATOM     15  C   UNL A   1      -6.838   0.599   9.851  0.00  0.00    +0.054 A 
ATOM     16  C   UNL A   1      -7.120  -0.538  10.490  0.00  0.00    +0.004 A 
ATOM     17  C   UNL A   1      -5.583   1.270  10.051  0.00  0.00    +0.004 A 
ATOM     18  C   UNL A   1      -6.163  -1.041  11.560  0.00  0.00    +0.000 A 
ATOM     19  C   UNL A   1      -4.643   0.758  10.986  0.00  0.00    +0.000 A 
ATOM     20  C   UNL A   1      -4.967  -0.371  11.748  0.00  0.00    +0.000 A 
ENDBRANCH   2  15
TORSDOF 3
ENDMDL
ENDMDL
