REMARK  Name = outputs/IAG933/test6/raw/output_4282_IAG933_linker_design_.xyz
REMARK  18 active torsions:
REMARK  status: ('A' for Active; 'I' for Inactive)
REMARK    1  A    between atoms: C_1  and  C_2
REMARK    2  A    between atoms: C_1  and  C_8
REMARK    3  A    between atoms: C_1  and  N_34
REMARK    4  A    between atoms: C_13  and  C_42
REMARK    5  A    between atoms: C_14  and  C_15
REMARK    6  A    between atoms: C_21  and  O_22
REMARK    7  A    between atoms: O_22  and  C_23
REMARK    8  A    between atoms: C_23  and  C_24
REMARK    9  A    between atoms: S_28  and  C_31
REMARK   10  A    between atoms: S_28  and  C_38
REMARK   11  A    between atoms: C_29  and  C_42
REMARK   12  A    between atoms: C_30  and  C_39
REMARK   13  A    between atoms: C_30  and  C_45
REMARK   14  A    between atoms: C_31  and  C_39
REMARK   15  A    between atoms: C_33  and  O_36
REMARK   16  A    between atoms: N_34  and  C_45
REMARK   17  A    between atoms: C_38  and  N_43
REMARK   18  A    between atoms: C_42  and  C_44
REMARK                            x       y       z     vdW  Elec       q    Type
REMARK                         _______ _______ _______ _____ _____    ______ ____
ROOT
ATOM      1  N   UNL A   1     -25.464  -0.216  29.100  0.00  0.00    -0.189 N 
ATOM      2  N   UNL A   1     -23.222   0.119  28.711  0.00  0.00    +0.188 NA
ATOM      3  C   UNL A   1     -24.486   0.287  28.331  0.00  0.00    +0.356 C 
ENDROOT
BRANCH   1   4
ATOM      4  C   UNL A   1     -24.855  -1.012  30.143  0.00  0.00    +0.198 C 
BRANCH   4   5
ATOM      5  C   UNL A   1     -24.973  -2.505  29.788  0.00  0.00    +0.021 C 
ATOM      6  C   UNL A   1     -23.906  -3.173  29.146  0.00  0.00    -0.000 C 
ATOM      7  C   UNL A   1     -23.989  -4.549  28.853  0.00  0.00    -0.000 C 
ATOM      8  C   UNL A   1     -25.137  -5.280  29.205  0.00  0.00    -0.000 C 
ATOM      9  C   UNL A   1     -26.232  -4.611  29.784  0.00  0.00    -0.000 C 
ATOM     10  C   UNL A   1     -26.155  -3.232  30.065  0.00  0.00    -0.000 C 
ENDBRANCH   4   5
BRANCH   4  11
ATOM     11  C   UNL A   1     -25.387  -0.679  31.571  0.00  0.00    +0.120 C 
ATOM     12  C   UNL A   1     -25.189   0.773  32.028  0.00  0.00    +0.023 C 
ATOM     13  C   UNL A   1     -25.336   0.684  33.544  0.00  0.00    +0.020 C 
ATOM     14  C   UNL A   1     -24.829  -0.715  33.905  0.00  0.00    +0.089 C 
ATOM     15  N   UNL A   1     -24.758  -1.481  32.646  0.00  0.00    -0.215 NA
ENDBRANCH   4  11
ENDBRANCH   1   4
BRANCH   3  16
ATOM     16  C   UNL A   1     -24.389   1.261  27.179  0.00  0.00    +0.135 C 
BRANCH  16  17
ATOM     17  C   UNL A   1     -25.688   1.614  26.461  0.00  0.00    +0.027 C 
ATOM     18  C   UNL A   1     -26.250   2.920  26.395  0.00  0.00    +0.073 C 
ATOM     19  C   UNL A   1     -27.438   3.091  25.645  0.00  0.00    +0.106 C 
ATOM     20  N   UNL A   1     -28.075   2.089  25.003  0.00  0.00    -0.208 NA
ATOM     21  C   UNL A   1     -27.543   0.849  25.079  0.00  0.00    +0.253 C 
ATOM     22  C   UNL A   1     -26.354   0.576  25.777  0.00  0.00    +0.190 C 
ATOM     23  F   UNL A   1     -25.860  -0.681  25.795  0.00  0.00    -0.200 F 
BRANCH  18  24
ATOM     24  C   UNL A   1     -25.642   4.093  27.123  0.00  0.00    +0.266 C 
ATOM     25  N   UNL A   1     -25.614   5.252  26.449  0.00  0.00    -0.200 NA
ATOM     26  C   UNL A   1     -25.026   6.479  26.963  0.00  0.00    +0.139 C 
ATOM     27  O   UNL A   1     -25.143   3.966  28.243  0.00  0.00    -0.268 OA
ENDBRANCH  18  24
BRANCH  21  28
ATOM     28  O   UNL A   1     -28.193  -0.208  24.477  0.00  0.00    -0.456 OA
BRANCH  28  29
ATOM     29  C   UNL A   1     -29.460   0.005  23.866  0.00  0.00    +0.243 C 
BRANCH  29  30
ATOM     30  C   UNL A   1     -30.065  -1.377  23.573  0.00  0.00    +0.229 C 
ATOM     31  O   UNL A   1     -30.729  -1.878  24.721  0.00  0.00    -0.216 OA
ENDBRANCH  29  30
ENDBRANCH  28  29
ENDBRANCH  21  28
ENDBRANCH  16  17
BRANCH  16  32
ATOM     32  C   UNL A   1     -23.007   1.525  26.658  0.00  0.00    +0.016 C 
ATOM     33  C   UNL A   1     -23.066   2.301  25.296  0.00  0.00    +0.001 C 
ATOM     34  C   UNL A   1     -21.635   1.844  27.334  0.00  0.00    +0.001 C 
ENDBRANCH  16  32
ENDBRANCH   3  16
BRANCH   1  35
ATOM     35  C   UNL A   1     -27.057  -0.134  28.946  0.00  0.00    +0.202 C 
BRANCH  35  36
ATOM     36  C   UNL A   1     -28.375   0.205  29.674  0.00  0.00    +0.052 C 
BRANCH  36  37
ATOM     37  C   UNL A   1     -28.879   1.679  29.616  0.00  0.00    +0.016 C 
BRANCH  37  38
ATOM     38  C   UNL A   1     -28.481   2.380  30.921  0.00  0.00    +0.059 C 
BRANCH  38  39
ATOM     39  S   UNL A   1     -27.483   3.830  30.520  0.00  0.00    -0.117 S 
BRANCH  39  40
ATOM     40  C   UNL A   1     -25.960   3.404  31.390  0.00  0.00    +0.176 C 
BRANCH  40  43
ATOM     41  C   UNL A   1     -25.435   5.152  33.044  0.00  0.00    +0.455 C 
ATOM     42  O   UNL A   1     -26.087   6.174  33.307  0.00  0.00    -0.222 OA
ATOM     43  N   UNL A   1     -26.082   3.916  32.757  0.00  0.00    -0.154 NA
BRANCH  41  45
ATOM     44  O   UNL A   1     -23.429   4.195  32.190  0.00  0.00    +0.033 OA
ATOM     45  O   UNL A   1     -24.126   5.044  33.026  0.00  0.00    -0.243 OA
ENDBRANCH  41  45
ENDBRANCH  40  43
ENDBRANCH  39  40
ENDBRANCH  38  39
ENDBRANCH  37  38
ENDBRANCH  36  37
ENDBRANCH  35  36
ENDBRANCH   1  35
TORSDOF 18
