MODEL 4282
MODEL 1
REMARK VINA RESULT:    -6.216      0.000      0.000
REMARK INTER + INTRA:         -10.999
REMARK INTER:                  -9.123
REMARK INTRA:                  -1.876
REMARK UNBOUND:                -1.876
REMARK  Name = No_4282-gen_results/8p0m/2024-11-27-11-27-31/
REMARK  8 active torsions:
REMARK  status: ('A' for Active; 'I' for Inactive)
REMARK    1  A    between atoms: C_4  and  O_13
REMARK    2  A    between atoms: C_6  and  C_8
REMARK    3  A    between atoms: O_13  and  C_14
REMARK    4  A    between atoms: C_14  and  C_16
REMARK    5  A    between atoms: C_16  and  C_17
REMARK    6  A    between atoms: C_18  and  C_19
REMARK    7  A    between atoms: C_23  and  N_24
REMARK    8  A    between atoms: C_26  and  N_29
REMARK                            x       y       z     vdW  Elec       q    Type
REMARK                         _______ _______ _______ _____ _____    ______ ____
ROOT
ATOM      1  C   UNL A   1     -26.516   1.384  31.891  0.00  0.00    +0.070 C 
ENDROOT
BRANCH   1   2
ATOM      2  C   UNL A   1     -26.135  -0.022  32.216  0.00  0.00    +0.170 C 
ATOM      3  C   UNL A   1     -25.476  -0.427  33.325  0.00  0.00    +0.048 C 
BRANCH   2   4
ATOM      4  O   UNL A   1     -26.483  -0.919  31.226  0.00  0.00    -0.476 OA
BRANCH   4   8
ATOM      5  C   UNL A   1     -23.612  -2.729  28.950  0.00  0.00    +0.018 A 
ATOM      6  C   UNL A   1     -24.575  -3.370  29.301  0.00  0.00    +0.088 A 
ATOM      7  C   UNL A   1     -25.627  -2.838  30.046  0.00  0.00    +0.184 A 
ATOM      8  C   UNL A   1     -25.555  -1.458  30.483  0.00  0.00    +0.166 A 
ATOM      9  C   UNL A   1     -24.399  -0.774  30.044  0.00  0.00    +0.043 A 
ATOM     10  C   UNL A   1     -23.457  -1.362  29.350  0.00  0.00    +0.075 A 
ATOM     11  F   UNL A   1     -26.691  -3.517  30.465  0.00  0.00    -0.200 F 
ATOM     12 CL   UNL A   1     -24.783  -5.041  28.814  0.00  0.00    -0.080 Cl
BRANCH  10  13
ATOM     13  C   UNL A   1     -22.253  -0.536  28.990  0.00  0.00    +0.419 C 
ATOM     14  F   UNL A   1     -22.390   0.002  27.858  0.00  0.00    -0.166 F 
ATOM     15  F   UNL A   1     -22.014   0.362  29.984  0.00  0.00    -0.166 F 
ATOM     16  F   UNL A   1     -21.149  -1.230  28.927  0.00  0.00    -0.166 F 
ENDBRANCH  10  13
ENDBRANCH   4   8
ENDBRANCH   2   4
ENDBRANCH   1   2
BRANCH   1  17
ATOM     17  C   UNL A   1     -25.668   2.402  31.889  0.00  0.00    -0.015 C 
ATOM     18  C   UNL A   1     -25.852   3.478  30.930  0.00  0.00    +0.091 C 
BRANCH  18  19
ATOM     19  C   UNL A   1     -25.750   3.182  29.570  0.00  0.00    +0.372 C 
ATOM     20  N   UNL A   1     -26.790   3.253  28.811  0.00  0.00    -0.037 NA
ATOM     21  N   UNL A   1     -24.647   2.759  28.944  0.00  0.00    -0.029 NA
ATOM     22  C   UNL A   1     -24.962   1.907  27.891  0.00  0.00    +0.280 C 
ATOM     23  C   UNL A   1     -26.398   2.240  27.689  0.00  0.00    +0.348 C 
BRANCH  23  24
ATOM     24  N   UNL A   1     -27.153   1.918  26.656  0.00  0.00    -0.206 NA
ATOM     25  C   UNL A   1     -27.290   2.665  25.534  0.00  0.00    +0.078 C 
ATOM     26  C   UNL A   1     -27.852   0.698  26.720  0.00  0.00    +0.190 C 
ATOM     27  C   UNL A   1     -28.022   2.167  24.416  0.00  0.00    +0.018 C 
ATOM     28  C   UNL A   1     -28.718   0.975  24.538  0.00  0.00    +0.005 C 
ATOM     29  C   UNL A   1     -28.609   0.255  25.632  0.00  0.00    +0.043 C 
BRANCH  26  30
ATOM     30  N   UNL A   1     -27.778   0.042  27.850  0.00  0.00    -0.139 NA
ATOM     31  N   UNL A   1     -28.985  -0.311  28.652  0.00  0.00    -0.026 NA
ENDBRANCH  26  30
ENDBRANCH  23  24
ENDBRANCH  18  19
ENDBRANCH   1  17
TORSDOF 8
ENDMDL
ENDMDL
