MODEL 4283
MODEL 1
REMARK VINA RESULT:    -8.188      0.000      0.000
REMARK INTER + INTRA:         -16.089
REMARK INTER:                 -13.932
REMARK INTRA:                  -2.157
REMARK UNBOUND:                -2.157
REMARK  Name = No_4283-gen_results/8p0m/2024-11-27-11-27-31/
REMARK  12 active torsions:
REMARK  status: ('A' for Active; 'I' for Inactive)
REMARK    1  A    between atoms: C_2  and  C_24
REMARK    2  A    between atoms: C_3  and  C_7
REMARK    3  A    between atoms: C_7  and  C_8
REMARK    4  A    between atoms: C_7  and  C_27
REMARK    5  A    between atoms: C_10  and  C_14
REMARK    6  A    between atoms: C_14  and  C_15
REMARK    7  A    between atoms: C_16  and  C_17
REMARK    8  A    between atoms: C_17  and  C_18
REMARK    9  A    between atoms: C_24  and  O_26
REMARK   10  A    between atoms: O_26  and  C_32
REMARK   11  A    between atoms: C_32  and  C_33
REMARK   12  A    between atoms: C_33  and  O_34
REMARK                            x       y       z     vdW  Elec       q    Type
REMARK                         _______ _______ _______ _____ _____    ______ ____
ROOT
ATOM      1  C   UNL A   1     -23.984  -0.230  28.639  0.00  0.00    -0.011 A 
ATOM      2  C   UNL A   1     -24.646  -0.517  27.479  0.00  0.00    -0.005 A 
ATOM      3  C   UNL A   1     -24.625   0.368  26.398  0.00  0.00    +0.009 A 
ATOM      4  C   UNL A   1     -23.638   1.353  26.363  0.00  0.00    +0.136 A 
ATOM      5  C   UNL A   1     -22.776   1.547  27.434  0.00  0.00    +0.029 A 
ATOM      6  C   UNL A   1     -22.898   0.730  28.557  0.00  0.00    -0.001 A 
ATOM      7  F   UNL A   1     -23.512   2.077  25.281  0.00  0.00    -0.204 F 
ENDROOT
BRANCH   1   8
ATOM      8  C   UNL A   1     -23.836  -1.205  29.704  0.00  0.00    +0.109 C 
BRANCH   8  11
ATOM      9  C   UNL A   1     -25.818  -2.749  30.062  0.00  0.00    +0.003 A 
ATOM     10  C   UNL A   1     -26.285  -3.672  29.862  0.00  0.00    +0.075 A 
ATOM     11  C   UNL A   1     -24.499  -2.577  29.522  0.00  0.00    -0.011 A 
ATOM     12  C   UNL A   1     -23.813  -3.566  28.943  0.00  0.00    -0.004 A 
ATOM     13  C   UNL A   1     -25.731  -4.884  29.275  0.00  0.00    +0.006 A 
ATOM     14  C   UNL A   1     -24.503  -4.748  28.792  0.00  0.00    -0.000 A 
BRANCH  10  15
ATOM     15  C   UNL A   1     -27.804  -3.943  30.354  0.00  0.00    +0.341 C 
ATOM     16  O   UNL A   1     -28.200  -4.943  30.706  0.00  0.00    -0.245 OA
BRANCH  15  17
ATOM     17  O   UNL A   1     -28.537  -2.840  30.301  0.00  0.00    -0.443 OA
BRANCH  17  18
ATOM     18  C   UNL A   1     -29.687  -2.726  31.141  0.00  0.00    +0.241 C 
BRANCH  18  19
ATOM     19  C   UNL A   1     -30.925  -2.694  30.283  0.00  0.00    +0.190 C 
BRANCH  19  20
ATOM     20  O   UNL A   1     -30.856  -2.133  29.322  0.00  0.00    -0.347 OA
ATOM     21  C   UNL A   1     -31.616  -1.053  29.148  0.00  0.00    +0.174 C 
ENDBRANCH  19  20
ENDBRANCH  18  19
ENDBRANCH  17  18
ENDBRANCH  15  17
ENDBRANCH  10  15
ENDBRANCH   8  11
BRANCH   8  22
ATOM     22  C   UNL A   1     -23.272  -0.872  30.909  0.00  0.00    +0.216 C 
ATOM     23  O   UNL A   1     -23.099  -1.209  31.883  0.00  0.00    -0.288 OA
ENDBRANCH   8  22
ENDBRANCH   1   8
BRANCH   3  24
ATOM     24  C   UNL A   1     -25.355   0.145  25.144  0.00  0.00    +0.054 C 
BRANCH  24  25
ATOM     25  C   UNL A   1     -26.343   0.781  24.752  0.00  0.00    -0.026 C 
ATOM     26  C   UNL A   1     -27.486   0.248  24.304  0.00  0.00    -0.026 C 
BRANCH  26  27
ATOM     27  C   UNL A   1     -28.591   0.938  23.724  0.00  0.00    +0.044 C 
ATOM     28  C   UNL A   1     -28.211   2.394  23.570  0.00  0.00    +0.009 C 
BRANCH  27  29
ATOM     29  C   UNL A   1     -29.853   0.570  23.699  0.00  0.00    -0.016 A 
ATOM     30  C   UNL A   1     -30.888   1.120  23.001  0.00  0.00    -0.004 A 
ATOM     31  C   UNL A   1     -32.039   0.380  22.724  0.00  0.00    +0.002 A 
ATOM     32  C   UNL A   1     -32.246  -0.836  23.383  0.00  0.00    +0.030 A 
ATOM     33  C   UNL A   1     -31.229  -1.430  24.024  0.00  0.00    +0.140 A 
ATOM     34  C   UNL A   1     -29.980  -0.821  24.145  0.00  0.00    +0.026 A 
ATOM     35  F   UNL A   1     -31.413  -2.654  24.488  0.00  0.00    -0.204 F 
ENDBRANCH  27  29
ENDBRANCH  26  27
ENDBRANCH  24  25
ENDBRANCH   3  24
TORSDOF 12
ENDMDL
ENDMDL
