MODEL 4284
MODEL 1
REMARK VINA RESULT:    -5.642      0.000      0.000
REMARK INTER + INTRA:          -5.642
REMARK INTER:                  -5.642
REMARK INTRA:                   0.000
REMARK UNBOUND:                 0.000
REMARK  Name = No_4284-gen_results/8p0m/2024-11-27-11-27-31/
REMARK  0 active torsions:
REMARK  status: ('A' for Active; 'I' for Inactive)
REMARK                            x       y       z     vdW  Elec       q    Type
REMARK                         _______ _______ _______ _____ _____    ______ ____
ROOT
ATOM      1  C   UNL A   1     -21.868   1.155  27.802  0.00  0.00    -0.000 A 
ATOM      2  C   UNL A   1     -22.174   1.908  27.131  0.00  0.00    -0.004 A 
ATOM      3  C   UNL A   1     -22.841   0.230  28.242  0.00  0.00    -0.000 A 
ATOM      4  C   UNL A   1     -22.555  -0.952  29.097  0.00  0.00    -0.000 A 
ATOM      5  C   UNL A   1     -23.491   2.210  26.543  0.00  0.00    -0.022 A 
ATOM      6  C   UNL A   1     -23.820   3.281  25.671  0.00  0.00    +0.031 C 
ATOM      7  C   UNL A   1     -23.473  -1.921  29.253  0.00  0.00    -0.000 A 
ATOM      8  C   UNL A   1     -24.732  -1.882  28.643  0.00  0.00    -0.000 A 
ATOM      9  C   UNL A   1     -24.998  -0.863  27.805  0.00  0.00    -0.000 A 
ATOM     10  C   UNL A   1     -24.102   0.095  27.532  0.00  0.00    -0.000 A 
ATOM     11  C   UNL A   1     -24.393   1.166  26.752  0.00  0.00    -0.004 A 
ENDROOT
TORSDOF 0
ENDMDL
ENDMDL
