REMARK  Name = No_4285-gen_results/8p0m/2024-11-27-11-27-31/
REMARK  2 active torsions:
REMARK  status: ('A' for Active; 'I' for Inactive)
REMARK    1  A    between atoms: C_3  and  C_9
REMARK    2  A    between atoms: C_6  and  C_7
REMARK                            x       y       z     vdW  Elec       q    Type
REMARK                         _______ _______ _______ _____ _____    ______ ____
ROOT
ATOM      1  C   UNL A   1     -28.016  -0.814  28.878  0.00  0.00    +0.007 A 
ATOM      2  C   UNL A   1     -27.064  -0.119  28.608  0.00  0.00    +0.000 A 
ATOM      3  C   UNL A   1     -25.765  -0.390  29.036  0.00  0.00    +0.000 A 
ATOM      4  C   UNL A   1     -25.530  -1.530  29.901  0.00  0.00    +0.000 A 
ATOM      5  C   UNL A   1     -26.689  -2.289  30.181  0.00  0.00    +0.007 A 
ATOM      6  C   UNL A   1     -27.873  -1.951  29.737  0.00  0.00    +0.080 A 
ENDROOT
BRANCH   3   7
ATOM      7  C   UNL A   1     -24.512   0.391  28.695  0.00  0.00    +0.000 A 
ATOM      8  C   UNL A   1     -24.508   1.254  27.662  0.00  0.00    +0.000 A 
ATOM      9  C   UNL A   1     -23.289   1.931  27.340  0.00  0.00    +0.000 A 
ATOM     10  C   UNL A   1     -22.183   1.572  28.011  0.00  0.00    +0.000 A 
ATOM     11  C   UNL A   1     -23.182   0.233  29.234  0.00  0.00    +0.000 A 
ATOM     12  C   UNL A   1     -22.058   0.768  28.957  0.00  0.00    +0.000 A 
ENDBRANCH   3   7
BRANCH   6  13
ATOM     13  C   UNL A   1     -29.090  -2.644  30.160  0.00  0.00    +0.388 C 
ATOM     14  O   UNL A   1     -29.289  -2.726  31.420  0.00  0.00    -0.241 OA
ATOM     15  O   UNL A   1     -30.007  -2.909  29.444  0.00  0.00    -0.241 OA
ENDBRANCH   6  13
TORSDOF 2
