MODEL 4286
MODEL 1
REMARK VINA RESULT:    -4.311      0.000      0.000
REMARK INTER + INTRA:          -4.311
REMARK INTER:                  -4.311
REMARK INTRA:                   0.000
REMARK UNBOUND:                 0.000
REMARK  Name = No_4286-gen_results/8p0m/2024-11-27-11-27-31/
REMARK  0 active torsions:
REMARK  status: ('A' for Active; 'I' for Inactive)
REMARK                            x       y       z     vdW  Elec       q    Type
REMARK                         _______ _______ _______ _____ _____    ______ ____
ROOT
ATOM      1  C   UNL A   1     -24.905  -5.457  28.951  0.00  0.00    +0.000 A 
ATOM      2  C   UNL A   1     -24.155  -4.767  28.685  0.00  0.00    +0.000 A 
ATOM      3  C   UNL A   1     -26.064  -4.842  29.598  0.00  0.00    +0.000 A 
ATOM      4  C   UNL A   1     -26.149  -3.488  29.809  0.00  0.00    +0.000 A 
ATOM      5  C   UNL A   1     -23.977  -3.318  28.777  0.00  0.00    +0.000 A 
ATOM      6  C   UNL A   1     -25.094  -2.713  29.402  0.00  0.00    +0.000 A 
ENDROOT
TORSDOF 0
ENDMDL
ENDMDL
