REMARK  Name = No_4288-gen_results/8p0m/2024-11-27-11-27-31/
REMARK  2 active torsions:
REMARK  status: ('A' for Active; 'I' for Inactive)
REMARK    1  A    between atoms: C_2  and  C_7
REMARK    2  A    between atoms: C_4  and  C_12
REMARK                            x       y       z     vdW  Elec       q    Type
REMARK                         _______ _______ _______ _____ _____    ______ ____
ROOT
ATOM      1  C   UNL A   1     -28.016  -0.814  28.878  0.00  0.00    +0.004 A 
ATOM      2  C   UNL A   1     -28.469  -0.785  29.829  0.00  0.00    +0.056 A 
ATOM      3  C   UNL A   1     -26.546  -0.876  28.850  0.00  0.00    +0.004 A 
ATOM      4  C   UNL A   1     -25.804  -1.032  30.057  0.00  0.00    +0.071 A 
ATOM      5  C   UNL A   1     -27.944  -0.987  31.207  0.00  0.00    +0.004 A 
ATOM      6  C   UNL A   1     -26.582  -1.039  31.223  0.00  0.00    +0.004 A 
ENDROOT
BRANCH   2   7
ATOM      7  C   UNL A   1     -30.061  -0.737  29.902  0.00  0.00    +0.272 C 
ATOM      8  N   UNL A   1     -30.606  -0.035  29.009  0.00  0.00    -0.127 NA
ATOM      9  C   UNL A   1     -31.503   0.445  28.779  0.00  0.00    +0.333 C 
ATOM     10 CL   UNL A   1     -32.723   0.440  29.901  0.00  0.00    -0.020 Cl
ATOM     11  O   UNL A   1     -31.917   1.124  27.677  0.00  0.00    -0.255 OA
ATOM     12  O   UNL A   1     -30.688  -1.376  30.726  0.00  0.00    -0.268 OA
ENDBRANCH   2   7
BRANCH   4  13
ATOM     13  C   UNL A   1     -24.357  -1.102  30.064  0.00  0.00    +0.419 C 
ATOM     14  F   UNL A   1     -23.933  -2.044  29.363  0.00  0.00    -0.166 F 
ATOM     15  F   UNL A   1     -23.915   0.145  29.743  0.00  0.00    -0.166 F 
ATOM     16  F   UNL A   1     -23.901  -1.290  31.368  0.00  0.00    -0.166 F 
ENDBRANCH   4  13
TORSDOF 2
