REMARK  Name = outputs/IAG933/test6/raw/output_429_IAG933_linker_design_.xyz
REMARK  11 active torsions:
REMARK  status: ('A' for Active; 'I' for Inactive)
REMARK    1  A    between atoms: C_1  and  C_2
REMARK    2  A    between atoms: C_1  and  C_8
REMARK    3  A    between atoms: C_1  and  N_37
REMARK    4  A    between atoms: C_13  and  C_40
REMARK    5  A    between atoms: C_14  and  C_15
REMARK    6  A    between atoms: C_21  and  O_22
REMARK    7  A    between atoms: O_22  and  C_23
REMARK    8  A    between atoms: C_23  and  C_24
REMARK    9  A    between atoms: C_34  and  C_39
REMARK   10  A    between atoms: C_35  and  C_36
REMARK   11  A    between atoms: C_35  and  C_39
REMARK                            x       y       z     vdW  Elec       q    Type
REMARK                         _______ _______ _______ _____ _____    ______ ____
ROOT
ATOM      1  C   UNL A   1     -23.208   1.832  26.620  0.00  0.00    -0.011 C 
ATOM      2  O   UNL A   1     -27.541  -0.489  28.254  0.00  0.00    -0.247 OA
ATOM      3  C   UNL A   1     -24.446   0.537  28.376  0.00  0.00    +0.330 C 
ATOM      4  C   UNL A   1     -23.124   2.554  25.301  0.00  0.00    +0.031 C 
ATOM      5  C   UNL A   1     -27.000   0.089  29.125  0.00  0.00    +0.314 C 
ATOM      6  N   UNL A   1     -25.471  -0.102  29.132  0.00  0.00    -0.139 N 
ATOM      7  N   UNL A   1     -23.205   0.297  28.942  0.00  0.00    -0.036 NA
ATOM      8  C   UNL A   1     -24.473   1.345  27.151  0.00  0.00    +0.081 C 
ATOM      9  C   UNL A   1     -21.999   1.639  27.313  0.00  0.00    +0.046 C 
ATOM     10  C   UNL A   1     -22.037   0.845  28.433  0.00  0.00    +0.235 C 
ENDROOT
BRANCH   8  11
ATOM     11  C   UNL A   1     -25.688   1.614  26.461  0.00  0.00    +0.045 C 
ATOM     12  C   UNL A   1     -26.250   2.920  26.395  0.00  0.00    +0.077 C 
ATOM     13  C   UNL A   1     -27.438   3.091  25.645  0.00  0.00    +0.107 C 
ATOM     14  N   UNL A   1     -28.075   2.089  25.003  0.00  0.00    -0.208 NA
ATOM     15  C   UNL A   1     -27.543   0.849  25.079  0.00  0.00    +0.253 C 
ATOM     16  C   UNL A   1     -26.354   0.576  25.777  0.00  0.00    +0.193 C 
ATOM     17  F   UNL A   1     -25.860  -0.681  25.795  0.00  0.00    -0.199 F 
BRANCH  12  18
ATOM     18  C   UNL A   1     -25.642   4.093  27.123  0.00  0.00    +0.266 C 
ATOM     19  N   UNL A   1     -25.614   5.252  26.449  0.00  0.00    -0.200 NA
ATOM     20  C   UNL A   1     -25.026   6.479  26.963  0.00  0.00    +0.139 C 
ATOM     21  O   UNL A   1     -25.143   3.966  28.243  0.00  0.00    -0.268 OA
ENDBRANCH  12  18
BRANCH  15  22
ATOM     22  O   UNL A   1     -28.193  -0.208  24.477  0.00  0.00    -0.456 OA
BRANCH  22  23
ATOM     23  C   UNL A   1     -29.460   0.005  23.866  0.00  0.00    +0.243 C 
BRANCH  23  24
ATOM     24  C   UNL A   1     -30.065  -1.377  23.573  0.00  0.00    +0.229 C 
ATOM     25  O   UNL A   1     -30.729  -1.878  24.721  0.00  0.00    -0.216 OA
ENDBRANCH  23  24
ENDBRANCH  22  23
ENDBRANCH  15  22
ENDBRANCH   8  11
BRANCH   6  26
ATOM     26  C   UNL A   1     -24.855  -1.012  30.143  0.00  0.00    +0.206 C 
BRANCH  26  27
ATOM     27  C   UNL A   1     -24.973  -2.505  29.788  0.00  0.00    +0.022 C 
ATOM     28  C   UNL A   1     -23.906  -3.173  29.146  0.00  0.00    -0.000 C 
ATOM     29  C   UNL A   1     -23.989  -4.549  28.853  0.00  0.00    -0.000 C 
ATOM     30  C   UNL A   1     -25.137  -5.280  29.205  0.00  0.00    -0.000 C 
ATOM     31  C   UNL A   1     -26.232  -4.611  29.784  0.00  0.00    -0.000 C 
ATOM     32  C   UNL A   1     -26.155  -3.232  30.065  0.00  0.00    -0.000 C 
ENDBRANCH  26  27
BRANCH  26  33
ATOM     33  C   UNL A   1     -25.387  -0.679  31.571  0.00  0.00    +0.120 C 
ATOM     34  C   UNL A   1     -25.189   0.773  32.028  0.00  0.00    +0.023 C 
ATOM     35  C   UNL A   1     -25.336   0.684  33.544  0.00  0.00    +0.020 C 
ATOM     36  C   UNL A   1     -24.829  -0.715  33.905  0.00  0.00    +0.089 C 
ATOM     37  N   UNL A   1     -24.758  -1.481  32.646  0.00  0.00    -0.215 NA
ENDBRANCH  26  33
ENDBRANCH   6  26
BRANCH   5  38
ATOM     38  C   UNL A   1     -28.158   0.666  30.033  0.00  0.00    +0.125 C 
BRANCH  38  39
ATOM     39  C   UNL A   1     -29.055   1.940  30.199  0.00  0.00    +0.126 C 
BRANCH  39  42
ATOM     40  O   UNL A   1     -28.160   2.333  32.378  0.00  0.00    -0.246 OA
ATOM     41  O   UNL A   1     -27.633   3.777  30.911  0.00  0.00    -0.246 OA
ATOM     42  C   UNL A   1     -28.234   2.760  31.265  0.00  0.00    +0.365 C 
ENDBRANCH  39  42
ENDBRANCH  38  39
ENDBRANCH   5  38
TORSDOF 11
