REMARK  Name = No_4290-gen_results/8p0m/2024-11-27-11-27-31/
REMARK  0 active torsions:
REMARK  status: ('A' for Active; 'I' for Inactive)
REMARK                            x       y       z     vdW  Elec       q    Type
REMARK                         _______ _______ _______ _____ _____    ______ ____
ROOT
ATOM      1  C   UNL A   1     -28.016  -0.814  28.878  0.00  0.00    +0.007 A 
ATOM      2  C   UNL A   1     -27.064  -0.119  28.608  0.00  0.00    +0.030 A 
ATOM      3  C   UNL A   1     -26.876   1.133  28.913  0.00  0.00    +0.141 A 
ATOM      4  C   UNL A   1     -27.901   1.807  29.644  0.00  0.00    +0.044 A 
ATOM      5  C   UNL A   1     -28.945   1.039  30.036  0.00  0.00    +0.054 A 
ATOM      6  C   UNL A   1     -29.027  -0.289  29.705  0.00  0.00    +0.057 A 
ATOM      7  F   UNL A   1     -25.823   1.848  28.539  0.00  0.00    -0.204 F 
ATOM      8  C   UNL A   1     -30.145  -1.195  30.107  0.00  0.00    +0.250 C 
ATOM      9  C   UNL A   1     -30.605  -1.109  31.362  0.00  0.00    +0.289 C 
ATOM     10  O   UNL A   1     -30.686  -2.020  29.331  0.00  0.00    -0.282 OA
ATOM     11  N   UNL A   1     -30.317  -0.482  32.288  0.00  0.00    -0.259 N 
ATOM     12  O   UNL A   1     -31.393  -2.095  31.690  0.00  0.00    -0.266 OA
ATOM     13  C   UNL A   1     -30.758  -0.461  33.697  0.00  0.00    +0.095 C 
ATOM     14  C   UNL A   1     -30.078   0.240  34.440  0.00  0.00    +0.022 C 
ATOM     15  C   UNL A   1     -29.003   1.131  34.091  0.00  0.00    +0.005 C 
ATOM     16  C   UNL A   1     -28.549   1.038  32.789  0.00  0.00    +0.041 C 
ATOM     17  C   UNL A   1     -29.098   0.275  31.991  0.00  0.00    +0.152 C 
ATOM     18  N   UNL A   1     -28.803   0.583  30.729  0.00  0.00    -0.291 N 
ATOM     19  C   UNL A   1     -27.547  -0.075  31.075  0.00  0.00    +0.114 C 
ENDROOT
TORSDOF 0
