MODEL 4290
MODEL 1
REMARK VINA RESULT:    -7.095      0.000      0.000
REMARK INTER + INTRA:          -7.095
REMARK INTER:                  -7.095
REMARK INTRA:                   0.000
REMARK UNBOUND:                 0.000
REMARK  Name = No_4290-gen_results/8p0m/2024-11-27-11-27-31/
REMARK  0 active torsions:
REMARK  status: ('A' for Active; 'I' for Inactive)
REMARK                            x       y       z     vdW  Elec       q    Type
REMARK                         _______ _______ _______ _____ _____    ______ ____
ROOT
ATOM      1  C   UNL A   1     -24.112   0.970  29.212  0.00  0.00    +0.007 A 
ATOM      2  C   UNL A   1     -23.100   1.173  28.583  0.00  0.00    +0.030 A 
ATOM      3  C   UNL A   1     -22.017   0.451  28.555  0.00  0.00    +0.141 A 
ATOM      4  C   UNL A   1     -21.975  -0.727  29.361  0.00  0.00    +0.044 A 
ATOM      5  C   UNL A   1     -23.121  -1.033  30.015  0.00  0.00    +0.054 A 
ATOM      6  C   UNL A   1     -24.229  -0.229  29.941  0.00  0.00    +0.057 A 
ATOM      7  F   UNL A   1     -20.922   0.764  27.875  0.00  0.00    -0.204 F 
ATOM      8  C   UNL A   1     -25.525  -0.507  30.631  0.00  0.00    +0.250 C 
ATOM      9  C   UNL A   1     -25.991  -1.762  30.615  0.00  0.00    +0.289 C 
ATOM     10  O   UNL A   1     -26.192   0.367  31.236  0.00  0.00    -0.282 OA
ATOM     11  N   UNL A   1     -25.629  -2.753  30.145  0.00  0.00    -0.259 N 
ATOM     12  O   UNL A   1     -27.228  -1.857  31.015  0.00  0.00    -0.266 OA
ATOM     13  C   UNL A   1     -26.195  -4.113  30.043  0.00  0.00    +0.095 C 
ATOM     14  C   UNL A   1     -25.583  -4.872  29.298  0.00  0.00    +0.022 C 
ATOM     15  C   UNL A   1     -24.331  -4.646  28.625  0.00  0.00    +0.005 C 
ATOM     16  C   UNL A   1     -23.859  -3.348  28.662  0.00  0.00    +0.041 C 
ATOM     17  C   UNL A   1     -24.466  -2.482  29.295  0.00  0.00    +0.152 C 
ATOM     18  N   UNL A   1     -23.700  -1.421  29.544  0.00  0.00    -0.291 N 
ATOM     19  C   UNL A   1     -23.991  -1.136  28.142  0.00  0.00    +0.114 C 
ENDROOT
TORSDOF 0
ENDMDL
ENDMDL
