MODEL 4291
MODEL 1
REMARK VINA RESULT:    -4.272      0.000      0.000
REMARK INTER + INTRA:          -4.272
REMARK INTER:                  -4.272
REMARK INTRA:                   0.000
REMARK UNBOUND:                 0.000
REMARK  Name = No_4291-gen_results/8p0m/2024-11-27-11-27-31/
REMARK  0 active torsions:
REMARK  status: ('A' for Active; 'I' for Inactive)
REMARK                            x       y       z     vdW  Elec       q    Type
REMARK                         _______ _______ _______ _____ _____    ______ ____
ROOT
ATOM      1  C   UNL A   1     -26.055  -4.888  29.666  0.00  0.00    +0.000 A 
ATOM      2  C   UNL A   1     -26.214  -3.691  29.725  0.00  0.00    +0.000 A 
ATOM      3  C   UNL A   1     -25.266  -2.772  29.319  0.00  0.00    +0.000 A 
ATOM      4  C   UNL A   1     -24.052  -3.267  28.766  0.00  0.00    +0.000 A 
ATOM      5  C   UNL A   1     -23.991  -4.604  28.564  0.00  0.00    +0.000 A 
ATOM      6  C   UNL A   1     -24.966  -5.405  28.947  0.00  0.00    +0.000 A 
ENDROOT
TORSDOF 0
ENDMDL
ENDMDL
