REMARK  Name = outputs/IAG933/test6/raw/output_4292_IAG933_linker_design_.xyz
REMARK  10 active torsions:
REMARK  status: ('A' for Active; 'I' for Inactive)
REMARK    1  A    between atoms: C_1  and  C_2
REMARK    2  A    between atoms: C_1  and  C_8
REMARK    3  A    between atoms: C_1  and  N_30
REMARK    4  A    between atoms: C_13  and  C_38
REMARK    5  A    between atoms: C_14  and  C_15
REMARK    6  A    between atoms: C_21  and  O_22
REMARK    7  A    between atoms: O_22  and  C_23
REMARK    8  A    between atoms: C_23  and  C_24
REMARK    9  A    between atoms: C_35  and  C_45
REMARK   10  A    between atoms: C_43  and  C_44
REMARK                            x       y       z     vdW  Elec       q    Type
REMARK                         _______ _______ _______ _____ _____    ______ ____
ROOT
ATOM      1  C   UNL A   1     -20.897   1.577  27.114  0.00  0.00    +0.144 A 
ATOM      2  C   UNL A   1     -22.993  -0.212  29.099  0.00  0.00    +0.060 A 
ATOM      3  N   UNL A   1     -24.192  -0.162  29.265  0.00  0.00    -0.325 N 
ATOM      4  C   UNL A   1     -20.595  -0.194  28.681  0.00  0.00    +0.004 C 
ATOM      5  C   UNL A   1     -22.566   0.482  28.165  0.00  0.00    +0.018 A 
ATOM      6  C   UNL A   1     -21.971  -0.830  29.774  0.00  0.00    +0.017 C 
ATOM      7  F   UNL A   1     -19.750   1.817  27.729  0.00  0.00    -0.204 F 
ATOM      8  C   UNL A   1     -24.548   1.317  27.270  0.00  0.00    +0.017 A 
ATOM      9  C   UNL A   1     -21.252   0.539  28.057  0.00  0.00    +0.029 A 
ATOM     10  C   UNL A   1     -23.177   1.294  27.197  0.00  0.00    +0.009 A 
ATOM     11  C   UNL A   1     -22.248   1.948  26.441  0.00  0.00    +0.099 A 
ATOM     12  C   UNL A   1     -24.929   0.667  28.495  0.00  0.00    +0.071 A 
ENDROOT
BRANCH   8  13
ATOM     13  C   UNL A   1     -25.688   1.614  26.461  0.00  0.00    +0.039 C 
ATOM     14  C   UNL A   1     -26.250   2.920  26.395  0.00  0.00    +0.077 C 
ATOM     15  C   UNL A   1     -27.438   3.091  25.645  0.00  0.00    +0.107 C 
ATOM     16  N   UNL A   1     -28.075   2.089  25.003  0.00  0.00    -0.208 NA
ATOM     17  C   UNL A   1     -27.543   0.849  25.079  0.00  0.00    +0.253 C 
ATOM     18  C   UNL A   1     -26.354   0.576  25.777  0.00  0.00    +0.193 C 
ATOM     19  F   UNL A   1     -25.860  -0.681  25.795  0.00  0.00    -0.199 F 
BRANCH  14  20
ATOM     20  C   UNL A   1     -25.642   4.093  27.123  0.00  0.00    +0.266 C 
ATOM     21  N   UNL A   1     -25.614   5.252  26.449  0.00  0.00    -0.200 NA
ATOM     22  C   UNL A   1     -25.026   6.479  26.963  0.00  0.00    +0.139 C 
ATOM     23  O   UNL A   1     -25.143   3.966  28.243  0.00  0.00    -0.268 OA
ENDBRANCH  14  20
BRANCH  17  24
ATOM     24  O   UNL A   1     -28.193  -0.208  24.477  0.00  0.00    -0.456 OA
BRANCH  24  25
ATOM     25  C   UNL A   1     -29.460   0.005  23.866  0.00  0.00    +0.243 C 
BRANCH  25  26
ATOM     26  C   UNL A   1     -30.065  -1.377  23.573  0.00  0.00    +0.229 C 
ATOM     27  O   UNL A   1     -30.729  -1.878  24.721  0.00  0.00    -0.216 OA
ENDBRANCH  25  26
ENDBRANCH  24  25
ENDBRANCH  17  24
ENDBRANCH   8  13
BRANCH  11  31
ATOM     28  F   UNL A   1     -23.679   1.782  24.454  0.00  0.00    -0.166 F 
ATOM     29  F   UNL A   1     -23.436   3.742  25.117  0.00  0.00    -0.166 F 
ATOM     30  F   UNL A   1     -21.910   2.721  24.413  0.00  0.00    -0.166 F 
ATOM     31  C   UNL A   1     -22.898   2.518  25.225  0.00  0.00    +0.421 C 
ENDBRANCH  11  31
BRANCH  12  33
ATOM     32  O   UNL A   1     -24.760   2.274  30.167  0.00  0.00    -0.213 OA
ATOM     33  C   UNL A   1     -25.684   1.574  29.347  0.00  0.00    +0.226 C 
ENDBRANCH  12  33
BRANCH   3  34
ATOM     34  C   UNL A   1     -24.855  -1.012  30.143  0.00  0.00    +0.124 C 
BRANCH  34  35
ATOM     35  C   UNL A   1     -24.973  -2.505  29.788  0.00  0.00    -0.000 C 
ATOM     36  C   UNL A   1     -23.906  -3.173  29.146  0.00  0.00    -0.002 C 
ATOM     37  C   UNL A   1     -23.989  -4.549  28.853  0.00  0.00    -0.000 C 
ATOM     38  C   UNL A   1     -25.137  -5.280  29.205  0.00  0.00    -0.000 C 
ATOM     39  C   UNL A   1     -26.232  -4.611  29.784  0.00  0.00    -0.000 C 
ATOM     40  C   UNL A   1     -26.155  -3.232  30.065  0.00  0.00    -0.002 C 
ENDBRANCH  34  35
BRANCH  34  41
ATOM     41  C   UNL A   1     -25.387  -0.679  31.571  0.00  0.00    +0.098 C 
ATOM     42  C   UNL A   1     -25.189   0.773  32.028  0.00  0.00    +0.021 C 
ATOM     43  C   UNL A   1     -25.336   0.684  33.544  0.00  0.00    +0.020 C 
ATOM     44  C   UNL A   1     -24.829  -0.715  33.905  0.00  0.00    +0.089 C 
ATOM     45  N   UNL A   1     -24.758  -1.481  32.646  0.00  0.00    -0.217 NA
ENDBRANCH  34  41
ENDBRANCH   3  34
TORSDOF 10
