MODEL 4293
MODEL 1
REMARK VINA RESULT:    -5.459      0.000      0.000
REMARK INTER + INTRA:          -6.780
REMARK INTER:                  -6.416
REMARK INTRA:                  -0.364
REMARK UNBOUND:                -0.364
REMARK  Name = No_4293-gen_results/8p0m/2024-11-27-11-27-31/
REMARK  3 active torsions:
REMARK  status: ('A' for Active; 'I' for Inactive)
REMARK    1  A    between atoms: C_2  and  N_4
REMARK    2  A    between atoms: C_3  and  C_11
REMARK    3  A    between atoms: N_4  and  C_5
REMARK                            x       y       z     vdW  Elec       q    Type
REMARK                         _______ _______ _______ _____ _____    ______ ____
ROOT
ATOM      1  N   UNL A   1     -23.545  -1.480  29.898  0.00  0.00    -0.176 NA
ENDROOT
BRANCH   1   2
ATOM      2  C   UNL A   1     -24.317  -2.557  29.654  0.00  0.00    +0.074 A 
ATOM      3  C   UNL A   1     -24.061  -3.604  29.242  0.00  0.00    +0.017 A 
ATOM      4  C   UNL A   1     -24.950  -4.815  29.049  0.00  0.00    +0.001 A 
ATOM      5  C   UNL A   1     -26.283  -4.636  29.493  0.00  0.00    +0.000 A 
ATOM      6  C   UNL A   1     -26.607  -3.388  30.115  0.00  0.00    +0.001 A 
ATOM      7  C   UNL A   1     -25.691  -2.372  30.237  0.00  0.00    +0.017 A 
ENDBRANCH   1   2
BRANCH   1   9
ATOM      8  O   UNL A   1     -21.541  -0.933  29.137  0.00  0.00    -0.268 OA
ATOM      9  C   UNL A   1     -22.660  -0.794  28.930  0.00  0.00    +0.270 C 
ATOM     10  C   UNL A   1     -23.107  -0.122  27.987  0.00  0.00    +0.102 C 
BRANCH  10  11
ATOM     11  C   UNL A   1     -22.615   1.030  27.760  0.00  0.00    +0.337 C 
ATOM     12  F   UNL A   1     -22.759   1.405  26.623  0.00  0.00    -0.196 F 
ATOM     13  O   UNL A   1     -23.028   2.157  28.604  0.00  0.00    -0.179 OA
ENDBRANCH  10  11
ENDBRANCH   1   9
TORSDOF 3
ENDMDL
ENDMDL
