MODEL 4294
MODEL 1
REMARK VINA RESULT:    -6.143      0.000      0.000
REMARK INTER + INTRA:          -6.613
REMARK INTER:                  -6.502
REMARK INTRA:                  -0.111
REMARK UNBOUND:                -0.111
REMARK  Name = No_4294-gen_results/8p0m/2024-11-27-11-27-31/
REMARK  1 active torsions:
REMARK  status: ('A' for Active; 'I' for Inactive)
REMARK    1  A    between atoms: C_5  and  C_7
REMARK                            x       y       z     vdW  Elec       q    Type
REMARK                         _______ _______ _______ _____ _____    ______ ____
ROOT
ATOM      1  C   UNL A   1     -22.268  -0.022  28.894  0.00  0.00    -0.000 A 
ATOM      2  C   UNL A   1     -22.967   0.572  28.106  0.00  0.00    -0.000 A 
ATOM      3  C   UNL A   1     -24.130   0.077  27.541  0.00  0.00    -0.000 A 
ATOM      4  C   UNL A   1     -24.546  -1.225  27.948  0.00  0.00    -0.001 A 
ATOM      5  C   UNL A   1     -23.827  -1.796  28.937  0.00  0.00    +0.023 A 
ATOM      6  C   UNL A   1     -22.767  -1.189  29.476  0.00  0.00    -0.001 A 
ATOM      7  C   UNL A   1     -24.842   0.798  26.406  0.00  0.00    -0.000 A 
ATOM      8  C   UNL A   1     -24.234   1.842  25.815  0.00  0.00    -0.000 A 
ATOM      9  C   UNL A   1     -23.013   2.342  25.923  0.00  0.00    -0.000 A 
ATOM     10  C   UNL A   1     -22.307   1.766  27.115  0.00  0.00    -0.000 A 
ENDROOT
BRANCH   5  11
ATOM     11  C   UNL A   1     -24.307  -3.121  29.374  0.00  0.00    +0.253 C 
ATOM     12 CL   UNL A   1     -24.147  -4.271  28.798  0.00  0.00    -0.074 Cl
ATOM     13  O   UNL A   1     -25.486  -2.977  30.066  0.00  0.00    -0.200 OA
ENDBRANCH   5  11
TORSDOF 1
ENDMDL
ENDMDL
