MODEL 4295
MODEL 1
REMARK VINA RESULT:    -5.203      0.000      0.000
REMARK INTER + INTRA:          -5.203
REMARK INTER:                  -5.203
REMARK INTRA:                   0.000
REMARK UNBOUND:                 0.000
REMARK  Name = No_4295-gen_results/8p0m/2024-11-27-11-27-31/
REMARK  0 active torsions:
REMARK  status: ('A' for Active; 'I' for Inactive)
REMARK                            x       y       z     vdW  Elec       q    Type
REMARK                         _______ _______ _______ _____ _____    ______ ____
ROOT
ATOM      1  C   UNL A   1     -25.812  -1.338  30.152  0.00  0.00    +0.099 A 
ATOM      2  C   UNL A   1     -25.606  -2.472  29.786  0.00  0.00    +0.019 A 
ATOM      3  C   UNL A   1     -24.366  -2.851  29.285  0.00  0.00    +0.003 A 
ATOM      4  C   UNL A   1     -23.992  -4.208  28.794  0.00  0.00    +0.000 A 
ATOM      5  C   UNL A   1     -24.956  -5.237  29.009  0.00  0.00    +0.000 A 
ATOM      6  C   UNL A   1     -26.185  -4.842  29.574  0.00  0.00    +0.000 A 
ATOM      7  C   UNL A   1     -26.483  -3.589  29.948  0.00  0.00    +0.002 A 
ATOM      8  N   UNL A   1     -24.942  -0.285  29.775  0.00  0.00    -0.242 NA
ATOM      9  C   UNL A   1     -23.649  -0.584  29.382  0.00  0.00    +0.099 A 
ATOM     10  C   UNL A   1     -23.317  -1.878  29.021  0.00  0.00    +0.021 A 
ENDROOT
TORSDOF 0
ENDMDL
ENDMDL
