REMARK  Name = outputs/IAG933/test6/raw/output_4296_IAG933_linker_design_.xyz
REMARK  11 active torsions:
REMARK  status: ('A' for Active; 'I' for Inactive)
REMARK    1  A    between atoms: C_1  and  C_2
REMARK    2  A    between atoms: C_1  and  C_8
REMARK    3  A    between atoms: C_1  and  C_29
REMARK    4  A    between atoms: C_13  and  C_37
REMARK    5  A    between atoms: C_14  and  C_15
REMARK    6  A    between atoms: C_21  and  O_22
REMARK    7  A    between atoms: O_22  and  C_23
REMARK    8  A    between atoms: C_23  and  C_24
REMARK    9  A    between atoms: C_29  and  C_33
REMARK   10  A    between atoms: C_29  and  C_41
REMARK   11  A    between atoms: C_30  and  C_41
REMARK                            x       y       z     vdW  Elec       q    Type
REMARK                         _______ _______ _______ _____ _____    ______ ____
ROOT
ATOM      1  C   UNL A   1     -22.407   0.717  28.685  0.00  0.00    +0.272 C 
ATOM      2  F   UNL A   1     -20.207   1.265  27.891  0.00  0.00    -0.199 F 
ATOM      3  C   UNL A   1     -21.896   1.676  26.283  0.00  0.00    +0.071 C 
ATOM      4  C   UNL A   1     -24.543   0.626  28.200  0.00  0.00    +0.174 C 
ATOM      5  C   UNL A   1     -21.566   1.263  27.571  0.00  0.00    +0.195 C 
ATOM      6  O   UNL A   1     -23.427   0.825  24.737  0.00  0.00    -0.185 OA
ATOM      7  C   UNL A   1     -24.433   1.436  26.869  0.00  0.00    +0.111 C 
ATOM      8  N   UNL A   1     -22.032  -0.372  29.337  0.00  0.00    -0.105 NA
ATOM      9  C   UNL A   1     -23.307   1.744  25.794  0.00  0.00    +0.281 C 
ATOM     10  O   UNL A   1     -23.649   1.196  29.131  0.00  0.00    -0.461 OA
ATOM     11  F   UNL A   1     -23.451   3.031  25.239  0.00  0.00    -0.202 F 
ENDROOT
BRANCH   7  12
ATOM     12  C   UNL A   1     -25.688   1.614  26.461  0.00  0.00    +0.079 C 
ATOM     13  C   UNL A   1     -26.250   2.920  26.395  0.00  0.00    +0.055 C 
ATOM     14  C   UNL A   1     -27.438   3.091  25.645  0.00  0.00    +0.102 C 
ATOM     15  N   UNL A   1     -28.075   2.089  25.003  0.00  0.00    -0.212 NA
ATOM     16  C   UNL A   1     -27.543   0.849  25.079  0.00  0.00    +0.234 C 
ATOM     17  C   UNL A   1     -26.354   0.576  25.777  0.00  0.00    +0.240 C 
ATOM     18  F   UNL A   1     -25.860  -0.681  25.795  0.00  0.00    -0.227 F 
BRANCH  13  19
ATOM     19  C   UNL A   1     -25.642   4.093  27.123  0.00  0.00    +0.262 C 
ATOM     20  N   UNL A   1     -25.614   5.252  26.449  0.00  0.00    -0.200 NA
ATOM     21  C   UNL A   1     -25.026   6.479  26.963  0.00  0.00    +0.139 C 
ATOM     22  O   UNL A   1     -25.143   3.966  28.243  0.00  0.00    -0.269 OA
ENDBRANCH  13  19
BRANCH  16  23
ATOM     23  O   UNL A   1     -28.193  -0.208  24.477  0.00  0.00    -0.459 OA
BRANCH  23  24
ATOM     24  C   UNL A   1     -29.460   0.005  23.866  0.00  0.00    +0.242 C 
BRANCH  24  25
ATOM     25  C   UNL A   1     -30.065  -1.377  23.573  0.00  0.00    +0.229 C 
ATOM     26  O   UNL A   1     -30.729  -1.878  24.721  0.00  0.00    -0.216 OA
ENDBRANCH  24  25
ENDBRANCH  23  24
ENDBRANCH  16  23
ENDBRANCH   7  12
BRANCH   4  27
ATOM     27  C   UNL A   1     -25.566  -0.147  29.078  0.00  0.00    +0.048 C 
BRANCH  27  28
ATOM     28  C   UNL A   1     -24.855  -1.012  30.143  0.00  0.00    +0.042 C 
BRANCH  28  29
ATOM     29  C   UNL A   1     -24.973  -2.505  29.788  0.00  0.00    -0.021 C 
ATOM     30  C   UNL A   1     -23.906  -3.173  29.146  0.00  0.00    -0.004 C 
ATOM     31  C   UNL A   1     -23.989  -4.549  28.853  0.00  0.00    -0.000 C 
ATOM     32  C   UNL A   1     -25.137  -5.280  29.205  0.00  0.00    -0.000 C 
ATOM     33  C   UNL A   1     -26.232  -4.611  29.784  0.00  0.00    -0.000 C 
ATOM     34  C   UNL A   1     -26.155  -3.232  30.065  0.00  0.00    -0.004 C 
ENDBRANCH  28  29
BRANCH  28  35
ATOM     35  C   UNL A   1     -25.387  -0.679  31.571  0.00  0.00    +0.077 C 
ATOM     36  C   UNL A   1     -25.189   0.773  32.028  0.00  0.00    +0.019 C 
ATOM     37  C   UNL A   1     -25.336   0.684  33.544  0.00  0.00    +0.020 C 
ATOM     38  C   UNL A   1     -24.829  -0.715  33.905  0.00  0.00    +0.089 C 
ATOM     39  N   UNL A   1     -24.758  -1.481  32.646  0.00  0.00    -0.219 NA
ENDBRANCH  28  35
ENDBRANCH  27  28
BRANCH  27  40
ATOM     40  C   UNL A   1     -26.646   0.861  29.205  0.00  0.00    +0.040 C 
BRANCH  40  41
ATOM     41  C   UNL A   1     -28.087   0.615  28.979  0.00  0.00    +0.182 C 
ATOM     42  O   UNL A   1     -28.420  -0.675  29.431  0.00  0.00    -0.220 OA
ENDBRANCH  40  41
ENDBRANCH  27  40
ENDBRANCH   4  27
TORSDOF 11
