MODEL 4296
MODEL 1
REMARK VINA RESULT:    -6.748      0.000      0.000
REMARK INTER + INTRA:          -8.116
REMARK INTER:                  -7.537
REMARK INTRA:                  -0.580
REMARK UNBOUND:                -0.580
REMARK  Name = No_4296-gen_results/8p0m/2024-11-27-11-27-31/
REMARK  2 active torsions:
REMARK  status: ('A' for Active; 'I' for Inactive)
REMARK    1  A    between atoms: C_5  and  C_8
REMARK    2  A    between atoms: C_7  and  C_11
REMARK                            x       y       z     vdW  Elec       q    Type
REMARK                         _______ _______ _______ _____ _____    ______ ____
ROOT
ATOM      1  F   UNL A   1     -22.749  -1.475  30.832  0.00  0.00    -0.204 F 
ATOM      2  C   UNL A   1     -23.050  -0.802  29.838  0.00  0.00    +0.140 A 
ATOM      3  C   UNL A   1     -22.484   0.221  29.567  0.00  0.00    +0.030 A 
ATOM      4  C   UNL A   1     -22.675   1.088  28.410  0.00  0.00    +0.009 A 
ATOM      5  C   UNL A   1     -23.698   0.589  27.491  0.00  0.00    +0.080 A 
ATOM      6  C   UNL A   1     -24.298  -0.624  27.805  0.00  0.00    +0.009 A 
ATOM      7  C   UNL A   1     -24.013  -1.328  28.916  0.00  0.00    +0.028 A 
ENDROOT
BRANCH   7   8
ATOM      8  C   UNL A   1     -24.658  -2.597  29.149  0.00  0.00    +0.002 A 
ATOM      9  C   UNL A   1     -23.990  -3.656  28.772  0.00  0.00    +0.000 A 
ATOM     10  C   UNL A   1     -24.568  -4.968  28.938  0.00  0.00    +0.000 A 
ATOM     11  C   UNL A   1     -25.877  -5.027  29.491  0.00  0.00    +0.000 A 
ATOM     12  C   UNL A   1     -26.572  -3.896  29.859  0.00  0.00    +0.000 A 
ATOM     13  C   UNL A   1     -25.940  -2.642  29.693  0.00  0.00    +0.000 A 
ENDBRANCH   7   8
BRANCH   5  14
ATOM     14  C   UNL A   1     -24.005   1.361  26.317  0.00  0.00    +0.388 C 
ATOM     15  O   UNL A   1     -23.191   2.175  25.911  0.00  0.00    -0.241 OA
ATOM     16  O   UNL A   1     -25.182   1.149  25.706  0.00  0.00    -0.241 OA
ENDBRANCH   5  14
TORSDOF 2
ENDMDL
ENDMDL
