REMARK  Name = No_4297-gen_results/8p0m/2024-11-27-11-27-31/
REMARK  3 active torsions:
REMARK  status: ('A' for Active; 'I' for Inactive)
REMARK    1  A    between atoms: C_1  and  C_6
REMARK    2  A    between atoms: C_2  and  C_3
REMARK    3  A    between atoms: C_3  and  C_4
REMARK                            x       y       z     vdW  Elec       q    Type
REMARK                         _______ _______ _______ _____ _____    ______ ____
ROOT
ATOM      1  C   UNL A   1     -28.016  -0.814  28.878  0.00  0.00    -0.031 C 
ATOM      2  C   UNL A   1     -27.064  -0.119  28.608  0.00  0.00    -0.031 C 
ENDROOT
BRANCH   1   3
ATOM      3  C   UNL A   1     -29.097  -0.235  29.699  0.00  0.00    +0.026 C 
ATOM      4  C   UNL A   1     -30.194  -1.048  30.038  0.00  0.00    +0.005 C 
ENDBRANCH   1   3
BRANCH   2   5
ATOM      5  C   UNL A   1     -26.876   1.133  28.913  0.00  0.00    +0.026 C 
BRANCH   5   6
ATOM      6  C   UNL A   1     -25.688   1.952  28.567  0.00  0.00    +0.005 C 
ATOM      7  C   UNL A   1     -25.509   3.304  28.886  0.00  0.00    +0.000 C 
ENDBRANCH   5   6
ENDBRANCH   2   5
TORSDOF 3
