MODEL 4297
MODEL 1
REMARK VINA RESULT:    -3.796      0.000      0.000
REMARK INTER + INTRA:          -4.614
REMARK INTER:                  -4.462
REMARK INTRA:                  -0.152
REMARK UNBOUND:                -0.152
REMARK  Name = No_4297-gen_results/8p0m/2024-11-27-11-27-31/
REMARK  3 active torsions:
REMARK  status: ('A' for Active; 'I' for Inactive)
REMARK    1  A    between atoms: C_1  and  C_6
REMARK    2  A    between atoms: C_2  and  C_3
REMARK    3  A    between atoms: C_3  and  C_4
REMARK                            x       y       z     vdW  Elec       q    Type
REMARK                         _______ _______ _______ _____ _____    ______ ____
ROOT
ATOM      1  C   UNL A   1     -24.963  -2.792  28.866  0.00  0.00    -0.031 C 
ATOM      2  C   UNL A   1     -24.332  -1.761  28.852  0.00  0.00    -0.031 C 
ENDROOT
BRANCH   1   3
ATOM      3  C   UNL A   1     -24.225  -4.065  28.981  0.00  0.00    +0.026 C 
ATOM      4  C   UNL A   1     -24.957  -5.264  29.058  0.00  0.00    +0.005 C 
ENDBRANCH   1   3
BRANCH   2   5
ATOM      5  C   UNL A   1     -23.044  -1.609  28.978  0.00  0.00    +0.026 C 
BRANCH   5   6
ATOM      6  C   UNL A   1     -22.311  -0.320  29.007  0.00  0.00    +0.005 C 
ATOM      7  C   UNL A   1     -20.975  -0.134  28.630  0.00  0.00    +0.000 C 
ENDBRANCH   5   6
ENDBRANCH   2   5
TORSDOF 3
ENDMDL
ENDMDL
