MODEL 429
MODEL 1
REMARK VINA RESULT:    -8.223      0.000      0.000
REMARK INTER + INTRA:         -12.894
REMARK INTER:                 -11.107
REMARK INTRA:                  -1.787
REMARK UNBOUND:                -1.787
REMARK  Name = No_429-gen_results/8p0m/2024-11-27-11-27-31/
REMARK  6 active torsions:
REMARK  status: ('A' for Active; 'I' for Inactive)
REMARK    1  A    between atoms: C_3  and  O_19
REMARK    2  A    between atoms: C_4  and  C_6
REMARK    3  A    between atoms: C_5  and  C_7
REMARK    4  A    between atoms: O_19  and  C_20
REMARK    5  A    between atoms: C_23  and  C_26
REMARK    6  A    between atoms: C_26  and  C_28
REMARK                            x       y       z     vdW  Elec       q    Type
REMARK                         _______ _______ _______ _____ _____    ______ ____
ROOT
ATOM      1  C   UNL A   1     -23.657   0.766  30.765  0.00  0.00    +0.037 A 
ATOM      2  C   UNL A   1     -23.600   1.305  29.861  0.00  0.00    +0.003 A 
ATOM      3  C   UNL A   1     -24.020  -0.619  30.655  0.00  0.00    +0.145 A 
ATOM      4  C   UNL A   1     -24.429  -1.176  29.511  0.00  0.00    +0.035 A 
ATOM      5  C   UNL A   1     -24.013   0.914  28.521  0.00  0.00    +0.000 A 
ATOM      6  C   UNL A   1     -24.357  -0.363  28.427  0.00  0.00    +0.003 A 
ENDROOT
BRANCH   4   7
ATOM      7  C   UNL A   1     -24.822  -2.547  29.408  0.00  0.00    +0.003 A 
ATOM      8  C   UNL A   1     -25.963  -2.918  29.752  0.00  0.00    +0.000 A 
ATOM      9  C   UNL A   1     -23.866  -3.467  28.890  0.00  0.00    +0.000 A 
ATOM     10  C   UNL A   1     -26.435  -4.240  29.814  0.00  0.00    +0.000 A 
ATOM     11  C   UNL A   1     -24.236  -4.823  28.800  0.00  0.00    +0.000 A 
ATOM     12  C   UNL A   1     -25.558  -5.230  29.236  0.00  0.00    +0.000 A 
ENDBRANCH   4   7
BRANCH   5  13
ATOM     13  C   UNL A   1     -23.983   1.767  27.390  0.00  0.00    +0.000 A 
ATOM     14  C   UNL A   1     -23.146   1.875  26.563  0.00  0.00    +0.000 A 
ATOM     15  C   UNL A   1     -23.135   2.774  25.376  0.00  0.00    +0.000 A 
ATOM     16  C   UNL A   1     -24.574   3.096  27.474  0.00  0.00    +0.000 A 
ATOM     17  C   UNL A   1     -24.702   4.010  26.502  0.00  0.00    +0.000 A 
ATOM     18  C   UNL A   1     -23.879   3.858  25.432  0.00  0.00    +0.000 A 
ENDBRANCH   5  13
BRANCH   3  19
ATOM     19  O   UNL A   1     -24.060  -1.374  31.838  0.00  0.00    -0.454 OA
BRANCH  19  20
ATOM     20  C   UNL A   1     -24.614  -0.815  32.859  0.00  0.00    +0.145 A 
ATOM     21  C   UNL A   1     -26.017  -0.543  32.881  0.00  0.00    +0.037 A 
ATOM     22  C   UNL A   1     -26.594  -0.354  34.080  0.00  0.00    +0.003 A 
ATOM     23  C   UNL A   1     -25.944  -0.557  35.330  0.00  0.00    +0.005 A 
ATOM     24  C   UNL A   1     -24.613  -1.003  35.271  0.00  0.00    +0.003 A 
ATOM     25  C   UNL A   1     -24.042  -1.084  34.112  0.00  0.00    +0.037 A 
BRANCH  23  26
ATOM     26  C   UNL A   1     -26.704  -0.413  36.579  0.00  0.00    +0.057 C 
ATOM     27  C   UNL A   1     -26.677   0.811  37.250  0.00  0.00    +0.005 C 
BRANCH  26  28
ATOM     28  C   UNL A   1     -27.320  -1.513  37.215  0.00  0.00    +0.284 C 
ATOM     29  N   UNL A   1     -28.614  -1.787  36.804  0.00  0.00    -0.084 NA
ATOM     30  O   UNL A   1     -26.825  -2.107  38.135  0.00  0.00    -0.267 OA
ENDBRANCH  26  28
ENDBRANCH  23  26
ENDBRANCH  19  20
ENDBRANCH   3  19
TORSDOF 6
ENDMDL
ENDMDL
