MODEL 42
MODEL 1
REMARK VINA RESULT:    -6.998      0.000      0.000
REMARK INTER + INTRA:          -8.720
REMARK INTER:                  -8.225
REMARK INTRA:                  -0.495
REMARK UNBOUND:                -0.495
REMARK  Name = No_42-gen_results/8p0m/2024-11-27-11-27-31/
REMARK  3 active torsions:
REMARK  status: ('A' for Active; 'I' for Inactive)
REMARK    1  A    between atoms: C_2  and  C_16
REMARK    2  A    between atoms: C_3  and  C_7
REMARK    3  A    between atoms: C_9  and  C_13
REMARK                            x       y       z     vdW  Elec       q    Type
REMARK                         _______ _______ _______ _____ _____    ______ ____
ROOT
ATOM      1  C   UNL A   1     -24.406  -2.502  28.411  0.00  0.00    +0.008 A 
ATOM      2  C   UNL A   1     -24.958  -3.223  28.947  0.00  0.00    +0.080 A 
ATOM      3  C   UNL A   1     -24.775  -1.147  28.557  0.00  0.00    +0.018 A 
ATOM      4  C   UNL A   1     -25.829  -0.759  29.360  0.00  0.00    +0.002 A 
ATOM      5  C   UNL A   1     -26.108  -3.079  29.861  0.00  0.00    +0.007 A 
ATOM      6  C   UNL A   1     -26.494  -1.795  30.028  0.00  0.00    +0.000 A 
ENDROOT
BRANCH   3   7
ATOM      7  C   UNL A   1     -24.049  -0.021  27.878  0.00  0.00    +0.088 A 
ATOM      8  N   UNL A   1     -24.777   0.564  27.016  0.00  0.00    -0.244 NA
ATOM      9  C   UNL A   1     -22.760   0.342  28.166  0.00  0.00    +0.097 A 
ATOM     10  C   UNL A   1     -22.316   1.520  27.567  0.00  0.00    +0.010 A 
ATOM     11  C   UNL A   1     -24.322   1.641  26.297  0.00  0.00    +0.099 A 
ATOM     12  C   UNL A   1     -23.010   2.095  26.586  0.00  0.00    +0.021 A 
BRANCH   9  13
ATOM     13  C   UNL A   1     -21.996  -0.248  29.244  0.00  0.00    +0.389 C 
ATOM     14  O   UNL A   1     -22.164  -0.080  30.382  0.00  0.00    -0.240 OA
ATOM     15  O   UNL A   1     -21.039  -0.997  28.906  0.00  0.00    -0.240 OA
ENDBRANCH   9  13
ENDBRANCH   3   7
BRANCH   2  16
ATOM     16  C   UNL A   1     -24.568  -4.788  28.889  0.00  0.00    +0.388 C 
ATOM     17  O   UNL A   1     -23.810  -5.167  28.231  0.00  0.00    -0.241 OA
ATOM     18  O   UNL A   1     -25.270  -5.652  29.628  0.00  0.00    -0.241 OA
ENDBRANCH   2  16
TORSDOF 3
ENDMDL
ENDMDL
