MODEL 4300
MODEL 1
REMARK VINA RESULT:    -6.446      0.000      0.000
REMARK INTER + INTRA:          -8.453
REMARK INTER:                  -7.953
REMARK INTRA:                  -0.500
REMARK UNBOUND:                -0.500
REMARK  Name = No_4300-gen_results/8p0m/2024-11-27-11-27-31/
REMARK  4 active torsions:
REMARK  status: ('A' for Active; 'I' for Inactive)
REMARK    1  A    between atoms: C_4  and  C_7
REMARK    2  A    between atoms: C_8  and  C_14
REMARK    3  A    between atoms: C_14  and  N_15
REMARK    4  A    between atoms: N_15  and  C_16
REMARK                            x       y       z     vdW  Elec       q    Type
REMARK                         _______ _______ _______ _____ _____    ______ ____
ROOT
ATOM      1  C   UNL A   1     -23.955  -1.225  29.176  0.00  0.00    +0.037 C 
ATOM      2  C   UNL A   1     -24.292  -0.433  28.059  0.00  0.00    +0.028 C 
ATOM      3  C   UNL A   1     -23.428   0.602  27.614  0.00  0.00    +0.021 C 
ATOM      4  C   UNL A   1     -22.319   0.895  28.476  0.00  0.00    +0.089 C 
ATOM      5  C   UNL A   1     -22.426  -1.180  29.299  0.00  0.00    +0.093 C 
ATOM      6  N   UNL A   1     -21.863   0.043  29.219  0.00  0.00    -0.218 NA
ATOM      7  C   UNL A   1     -24.508  -0.390  30.486  0.00  0.00    +0.006 C 
ENDROOT
BRANCH   1  11
ATOM      8  C   UNL A   1     -26.361  -4.161  29.785  0.00  0.00    -0.000 A 
ATOM      9  C   UNL A   1     -25.750  -4.929  29.403  0.00  0.00    -0.000 A 
ATOM     10  C   UNL A   1     -25.787  -2.806  29.798  0.00  0.00    -0.004 A 
ATOM     11  C   UNL A   1     -24.525  -2.548  29.190  0.00  0.00    -0.021 A 
ATOM     12  C   UNL A   1     -23.869  -3.639  28.678  0.00  0.00    -0.004 A 
ATOM     13  C   UNL A   1     -24.432  -4.866  28.716  0.00  0.00    -0.000 A 
ENDBRANCH   1  11
BRANCH   2  14
ATOM     14  C   UNL A   1     -25.628  -0.555  27.383  0.00  0.00    +0.113 C 
BRANCH  14  15
ATOM     15  N   UNL A   1     -26.130   0.456  26.696  0.00  0.00    -0.236 NA
BRANCH  15  16
ATOM     16  C   UNL A   1     -26.447   0.350  25.431  0.00  0.00    +0.080 C 
ATOM     17  C   UNL A   1     -25.417  -0.119  24.545  0.00  0.00    +0.019 C 
ENDBRANCH  15  16
ENDBRANCH  14  15
ENDBRANCH   2  14
TORSDOF 4
ENDMDL
ENDMDL
