MODEL 4301
MODEL 1
REMARK VINA RESULT:    -5.765      0.000      0.000
REMARK INTER + INTRA:          -6.655
REMARK INTER:                  -6.439
REMARK INTRA:                  -0.215
REMARK UNBOUND:                -0.215
REMARK  Name = No_4301-gen_results/8p0m/2024-11-27-11-27-31/
REMARK  2 active torsions:
REMARK  status: ('A' for Active; 'I' for Inactive)
REMARK    1  A    between atoms: C_2  and  C_7
REMARK    2  A    between atoms: N_9  and  C_10
REMARK                            x       y       z     vdW  Elec       q    Type
REMARK                         _______ _______ _______ _____ _____    ______ ____
ROOT
ATOM      1  C   UNL A   1     -23.893  -3.190  28.960  0.00  0.00    +0.005 A 
ATOM      2  C   UNL A   1     -24.066  -2.181  29.209  0.00  0.00    +0.055 A 
ATOM      3  C   UNL A   1     -24.977  -4.138  29.261  0.00  0.00    +0.011 A 
ATOM      4  C   UNL A   1     -26.239  -3.671  29.731  0.00  0.00    +0.058 A 
ATOM      5  C   UNL A   1     -25.281  -1.440  29.645  0.00  0.00    +0.005 A 
ATOM      6  C   UNL A   1     -26.306  -2.287  29.943  0.00  0.00    +0.011 A 
ATOM      7 CL   UNL A   1     -27.506  -4.701  30.103  0.00  0.00    -0.082 Cl
ENDROOT
BRANCH   2   8
ATOM      8  C   UNL A   1     -22.922  -1.119  28.882  0.00  0.00    +0.269 C 
ATOM      9  O   UNL A   1     -21.885  -1.474  29.094  0.00  0.00    -0.268 OA
ATOM     10  N   UNL A   1     -23.241   0.126  28.324  0.00  0.00    -0.174 NA
BRANCH  10  11
ATOM     11  C   UNL A   1     -22.167   1.012  28.006  0.00  0.00    +0.084 C 
ATOM     12  C   UNL A   1     -22.042   1.808  27.297  0.00  0.00    -0.008 C 
ATOM     13  C   UNL A   1     -23.087   2.001  26.267  0.00  0.00    +0.032 C 
ENDBRANCH  10  11
ENDBRANCH   2   8
TORSDOF 2
ENDMDL
ENDMDL
