REMARK  Name = No_4301-gen_results/8p0m/2024-11-27-11-27-31/
REMARK  2 active torsions:
REMARK  status: ('A' for Active; 'I' for Inactive)
REMARK    1  A    between atoms: C_2  and  C_7
REMARK    2  A    between atoms: N_9  and  C_10
REMARK                            x       y       z     vdW  Elec       q    Type
REMARK                         _______ _______ _______ _____ _____    ______ ____
ROOT
ATOM      1  C   UNL A   1     -28.016  -0.814  28.878  0.00  0.00    +0.005 A 
ATOM      2  C   UNL A   1     -28.469  -0.785  29.829  0.00  0.00    +0.055 A 
ATOM      3  C   UNL A   1     -26.546  -0.876  28.850  0.00  0.00    +0.011 A 
ATOM      4  C   UNL A   1     -25.804  -1.032  30.057  0.00  0.00    +0.058 A 
ATOM      5  C   UNL A   1     -27.944  -0.987  31.207  0.00  0.00    +0.005 A 
ATOM      6  C   UNL A   1     -26.582  -1.039  31.223  0.00  0.00    +0.011 A 
ATOM      7 CL   UNL A   1     -24.131  -1.095  30.091  0.00  0.00    -0.082 Cl
ENDROOT
BRANCH   2   8
ATOM      8  C   UNL A   1     -30.061  -0.737  29.902  0.00  0.00    +0.269 C 
ATOM      9  O   UNL A   1     -30.552  -0.277  29.011  0.00  0.00    -0.268 OA
ATOM     10  N   UNL A   1     -30.743  -1.289  30.994  0.00  0.00    -0.174 NA
BRANCH  10  11
ATOM     11  C   UNL A   1     -32.171  -1.260  30.975  0.00  0.00    +0.084 C 
ATOM     12  C   UNL A   1     -32.898  -0.547  30.635  0.00  0.00    -0.008 C 
ATOM     13  C   UNL A   1     -32.428   0.799  30.238  0.00  0.00    +0.032 C 
ENDBRANCH  10  11
ENDBRANCH   2   8
TORSDOF 2
