MODEL 4303
MODEL 1
REMARK VINA RESULT:    -5.364      0.000      0.000
REMARK INTER + INTRA:          -6.579
REMARK INTER:                  -6.305
REMARK INTRA:                  -0.274
REMARK UNBOUND:                -0.274
REMARK  Name = No_4303-gen_results/8p0m/2024-11-27-11-27-31/
REMARK  3 active torsions:
REMARK  status: ('A' for Active; 'I' for Inactive)
REMARK    1  A    between atoms: C_1  and  C_2
REMARK    2  A    between atoms: C_1  and  C_8
REMARK    3  A    between atoms: C_8  and  C_10
REMARK                            x       y       z     vdW  Elec       q    Type
REMARK                         _______ _______ _______ _____ _____    ______ ____
ROOT
ATOM      1  C   UNL A   1     -24.706  -2.408  29.073  0.00  0.00    -0.021 A 
ATOM      2  C   UNL A   1     -23.857  -3.421  28.641  0.00  0.00    -0.004 A 
ATOM      3  C   UNL A   1     -24.167  -4.879  28.617  0.00  0.00    -0.000 A 
ATOM      4  C   UNL A   1     -25.390  -5.267  29.239  0.00  0.00    -0.000 A 
ATOM      5  C   UNL A   1     -26.209  -4.228  29.725  0.00  0.00    -0.000 A 
ATOM      6  C   UNL A   1     -25.898  -2.925  29.670  0.00  0.00    -0.004 A 
ENDROOT
BRANCH   1   7
ATOM      7  C   UNL A   1     -24.361  -1.249  29.045  0.00  0.00    +0.051 C 
BRANCH   7   8
ATOM      8  C   UNL A   1     -23.183  -0.951  29.969  0.00  0.00    +0.149 C 
ATOM      9 CL   UNL A   1     -23.243  -1.048  31.376  0.00  0.00    -0.106 Cl
BRANCH   8  10
ATOM     10  C   UNL A   1     -21.900  -0.500  29.228  0.00  0.00    +0.224 C 
ATOM     11  O   UNL A   1     -21.035  -0.946  28.881  0.00  0.00    -0.287 OA
ENDBRANCH   8  10
ENDBRANCH   7   8
ENDBRANCH   1   7
TORSDOF 3
ENDMDL
ENDMDL
