MODEL 4304
MODEL 1
REMARK VINA RESULT:    -7.787      0.000      0.000
REMARK INTER + INTRA:         -12.100
REMARK INTER:                 -11.430
REMARK INTRA:                  -0.670
REMARK UNBOUND:                -0.670
REMARK  Name = No_4304-gen_results/8p0m/2024-11-27-11-27-31/
REMARK  8 active torsions:
REMARK  status: ('A' for Active; 'I' for Inactive)
REMARK    1  A    between atoms: C_2  and  C_3
REMARK    2  A    between atoms: C_5  and  C_14
REMARK    3  A    between atoms: C_13  and  C_18
REMARK    4  A    between atoms: N_20  and  C_22
REMARK    5  A    between atoms: C_22  and  C_23
REMARK    6  A    between atoms: C_23  and  C_24
REMARK    7  A    between atoms: C_26  and  C_34
REMARK    8  A    between atoms: C_28  and  C_30
REMARK                            x       y       z     vdW  Elec       q    Type
REMARK                         _______ _______ _______ _____ _____    ______ ____
ROOT
ATOM      1  O   UNL A   1     -32.010 -15.499  21.898  0.00  0.00    -0.267 OA
ATOM      2  C   UNL A   1     -31.510 -14.544  22.307  0.00  0.00    +0.265 C 
ATOM      3  N   UNL A   1     -31.949 -13.859  23.537  0.00  0.00    -0.272 N 
ATOM      4  C   UNL A   1     -32.851 -14.100  24.208  0.00  0.00    +0.083 A 
ATOM      5  C   UNL A   1     -33.039 -13.541  25.266  0.00  0.00    +0.025 A 
ATOM      6  C   UNL A   1     -31.070 -12.880  24.169  0.00  0.00    +0.087 A 
ATOM      7  C   UNL A   1     -31.661 -12.525  25.332  0.00  0.00    +0.073 A 
ENDROOT
BRANCH   2   8
ATOM      8  C   UNL A   1     -30.354 -14.039  21.747  0.00  0.00    +0.061 A 
ATOM      9  C   UNL A   1     -29.076 -14.632  21.915  0.00  0.00    +0.058 A 
ATOM     10  C   UNL A   1     -30.363 -12.848  20.915  0.00  0.00    +0.005 A 
ATOM     11  C   UNL A   1     -27.912 -14.002  21.422  0.00  0.00    +0.005 A 
ATOM     12  C   UNL A   1     -29.223 -12.346  20.229  0.00  0.00    +0.000 A 
ATOM     13  C   UNL A   1     -27.978 -12.968  20.536  0.00  0.00    +0.000 A 
BRANCH   9  14
ATOM     14  C   UNL A   1     -28.921 -15.726  22.842  0.00  0.00    +0.249 C 
ATOM     15  N   UNL A   1     -29.039 -16.950  22.624  0.00  0.00    -0.273 N 
ATOM     16  C   UNL A   1     -28.624 -17.932  23.235  0.00  0.00    +0.115 C 
ATOM     17  O   UNL A   1     -28.817 -15.348  24.109  0.00  0.00    -0.270 OA
ATOM     18  C   UNL A   1     -29.121 -17.339  21.133  0.00  0.00    +0.115 C 
ENDBRANCH   9  14
ENDBRANCH   2   8
BRANCH   7  19
ATOM     19  C   UNL A   1     -31.395 -11.581  26.396  0.00  0.00    +0.251 C 
ATOM     20  O   UNL A   1     -32.150 -10.831  26.688  0.00  0.00    -0.270 OA
ATOM     21  N   UNL A   1     -30.403 -12.036  27.299  0.00  0.00    -0.274 N 
ATOM     22  C   UNL A   1     -29.517 -13.086  27.195  0.00  0.00    +0.115 C 
BRANCH  21  23
ATOM     23  C   UNL A   1     -29.993 -11.066  28.357  0.00  0.00    +0.098 C 
BRANCH  23  24
ATOM     24  C   UNL A   1     -29.044 -11.620  29.322  0.00  0.00    +0.048 C 
BRANCH  24  25
ATOM     25  C   UNL A   1     -29.112 -11.164  30.538  0.00  0.00    -0.020 A 
ATOM     26  C   UNL A   1     -29.740 -10.345  30.884  0.00  0.00    -0.001 A 
ATOM     27  C   UNL A   1     -29.819  -9.730  32.273  0.00  0.00    +0.042 A 
ATOM     28  C   UNL A   1     -28.926 -10.269  33.211  0.00  0.00    +0.010 A 
ATOM     29  C   UNL A   1     -28.078 -11.286  32.825  0.00  0.00    +0.080 A 
ATOM     30  C   UNL A   1     -28.097 -11.785  31.530  0.00  0.00    +0.002 A 
BRANCH  29  31
ATOM     31  C   UNL A   1     -27.115 -11.883  33.816  0.00  0.00    +0.388 C 
ATOM     32  O   UNL A   1     -26.874 -12.846  33.950  0.00  0.00    -0.241 OA
ATOM     33  O   UNL A   1     -26.747 -10.923  34.807  0.00  0.00    -0.241 OA
ENDBRANCH  29  31
BRANCH  27  34
ATOM     34  C   UNL A   1     -30.724  -8.668  32.591  0.00  0.00    +0.234 C 
ATOM     35  O   UNL A   1     -31.132  -7.817  31.936  0.00  0.00    -0.283 OA
ENDBRANCH  27  34
ENDBRANCH  24  25
ENDBRANCH  23  24
ENDBRANCH  21  23
ENDBRANCH   7  19
TORSDOF 8
ENDMDL
ENDMDL
