REMARK  Name = outputs/IAG933/test6/raw/output_4305_IAG933_linker_design_.xyz
REMARK  15 active torsions:
REMARK  status: ('A' for Active; 'I' for Inactive)
REMARK    1  A    between atoms: C_1  and  C_2
REMARK    2  A    between atoms: C_1  and  C_8
REMARK    3  A    between atoms: C_1  and  N_40
REMARK    4  A    between atoms: C_13  and  C_34
REMARK    5  A    between atoms: C_14  and  C_15
REMARK    6  A    between atoms: C_21  and  O_22
REMARK    7  A    between atoms: O_22  and  C_23
REMARK    8  A    between atoms: C_23  and  C_24
REMARK    9  A    between atoms: C_28  and  C_30
REMARK   10  A    between atoms: C_28  and  N_44
REMARK   11  A    between atoms: C_30  and  N_40
REMARK   12  A    between atoms: C_35  and  N_44
REMARK   13  A    between atoms: C_38  and  N_40
REMARK   14  A    between atoms: C_41  and  C_43
REMARK   15  A    between atoms: C_43  and  N_44
REMARK                            x       y       z     vdW  Elec       q    Type
REMARK                         _______ _______ _______ _____ _____    ______ ____
ROOT
ATOM      1  C   UNL A   1     -21.706   1.065  27.823  0.00  0.00    +0.043 C 
ATOM      2  C   UNL A   1     -22.013   1.821  26.629  0.00  0.00    +0.003 C 
ATOM      3  C   UNL A   1     -24.328   1.326  26.978  0.00  0.00    +0.019 C 
ATOM      4  C   UNL A   1     -23.313   1.889  26.167  0.00  0.00    +0.002 C 
ATOM      5  O   UNL A   1     -22.355  -0.260  29.547  0.00  0.00    -0.285 OA
ATOM      6  C   UNL A   1     -24.090   0.622  28.209  0.00  0.00    +0.088 C 
ATOM      7  C   UNL A   1     -22.771   0.466  28.542  0.00  0.00    +0.209 C 
ENDROOT
BRANCH   3   8
ATOM      8  C   UNL A   1     -25.688   1.614  26.461  0.00  0.00    +0.039 C 
ATOM      9  C   UNL A   1     -26.250   2.920  26.395  0.00  0.00    +0.077 C 
ATOM     10  C   UNL A   1     -27.438   3.091  25.645  0.00  0.00    +0.107 C 
ATOM     11  N   UNL A   1     -28.075   2.089  25.003  0.00  0.00    -0.208 NA
ATOM     12  C   UNL A   1     -27.543   0.849  25.079  0.00  0.00    +0.253 C 
ATOM     13  C   UNL A   1     -26.354   0.576  25.777  0.00  0.00    +0.193 C 
ATOM     14  F   UNL A   1     -25.860  -0.681  25.795  0.00  0.00    -0.199 F 
BRANCH   9  15
ATOM     15  C   UNL A   1     -25.642   4.093  27.123  0.00  0.00    +0.266 C 
ATOM     16  N   UNL A   1     -25.614   5.252  26.449  0.00  0.00    -0.200 NA
ATOM     17  C   UNL A   1     -25.026   6.479  26.963  0.00  0.00    +0.139 C 
ATOM     18  O   UNL A   1     -25.143   3.966  28.243  0.00  0.00    -0.268 OA
ENDBRANCH   9  15
BRANCH  12  19
ATOM     19  O   UNL A   1     -28.193  -0.208  24.477  0.00  0.00    -0.456 OA
BRANCH  19  20
ATOM     20  C   UNL A   1     -29.460   0.005  23.866  0.00  0.00    +0.243 C 
BRANCH  20  21
ATOM     21  C   UNL A   1     -30.065  -1.377  23.573  0.00  0.00    +0.229 C 
ATOM     22  O   UNL A   1     -30.729  -1.878  24.721  0.00  0.00    -0.216 OA
ENDBRANCH  20  21
ENDBRANCH  19  20
ENDBRANCH  12  19
ENDBRANCH   3   8
BRANCH   6  23
ATOM     23  N   UNL A   1     -25.143   0.008  29.057  0.00  0.00    -0.300 N 
BRANCH  23  24
ATOM     24  C   UNL A   1     -24.855  -1.012  30.143  0.00  0.00    +0.111 C 
BRANCH  24  25
ATOM     25  C   UNL A   1     -24.973  -2.505  29.788  0.00  0.00    -0.003 C 
ATOM     26  C   UNL A   1     -23.906  -3.173  29.146  0.00  0.00    -0.003 C 
ATOM     27  C   UNL A   1     -23.989  -4.549  28.853  0.00  0.00    -0.000 C 
ATOM     28  C   UNL A   1     -25.137  -5.280  29.205  0.00  0.00    -0.000 C 
ATOM     29  C   UNL A   1     -26.232  -4.611  29.784  0.00  0.00    -0.000 C 
ATOM     30  C   UNL A   1     -26.155  -3.232  30.065  0.00  0.00    -0.003 C 
ENDBRANCH  24  25
BRANCH  24  31
ATOM     31  C   UNL A   1     -25.387  -0.679  31.571  0.00  0.00    +0.095 C 
ATOM     32  C   UNL A   1     -25.189   0.773  32.028  0.00  0.00    +0.021 C 
ATOM     33  C   UNL A   1     -25.336   0.684  33.544  0.00  0.00    +0.020 C 
ATOM     34  C   UNL A   1     -24.829  -0.715  33.905  0.00  0.00    +0.089 C 
ATOM     35  N   UNL A   1     -24.758  -1.481  32.646  0.00  0.00    -0.217 NA
ENDBRANCH  24  31
ENDBRANCH  23  24
BRANCH  23  36
ATOM     36  C   UNL A   1     -26.925  -0.417  28.650  0.00  0.00    +0.108 C 
BRANCH  36  37
ATOM     37  C   UNL A   1     -27.890   0.175  28.934  0.00  0.00    +0.094 C 
BRANCH  37  38
ATOM     38  N   UNL A   1     -28.858   0.982  29.504  0.00  0.00    -0.264 NA
BRANCH  38  40
ATOM     39  C   UNL A   1     -30.172  -0.394  28.165  0.00  0.00    +0.019 C 
ATOM     40  C   UNL A   1     -29.966   0.011  29.631  0.00  0.00    +0.073 C 
ENDBRANCH  38  40
BRANCH  38  41
ATOM     41  C   UNL A   1     -29.130   2.321  29.927  0.00  0.00    +0.162 C 
BRANCH  41  43
ATOM     42  N   UNL A   1     -29.127   3.639  31.984  0.00  0.00    -0.087 NA
ATOM     43  C   UNL A   1     -28.893   2.469  31.436  0.00  0.00    +0.277 C 
ATOM     44  O   UNL A   1     -28.543   1.504  32.106  0.00  0.00    -0.270 OA
ENDBRANCH  41  43
ENDBRANCH  38  41
ENDBRANCH  37  38
ENDBRANCH  36  37
ENDBRANCH  23  36
ENDBRANCH   6  23
TORSDOF 15
