MODEL 4306
MODEL 1
REMARK VINA RESULT:    -6.195      0.000      0.000
REMARK INTER + INTRA:          -7.352
REMARK INTER:                  -6.919
REMARK INTRA:                  -0.433
REMARK UNBOUND:                -0.433
REMARK  Name = No_4306-gen_results/8p0m/2024-11-27-11-27-31/
REMARK  2 active torsions:
REMARK  status: ('A' for Active; 'I' for Inactive)
REMARK    1  A    between atoms: C_2  and  C_3
REMARK    2  A    between atoms: N_4  and  C_11
REMARK                            x       y       z     vdW  Elec       q    Type
REMARK                         _______ _______ _______ _____ _____    ______ ____
ROOT
ATOM      1  O   UNL A   1     -25.082  -0.472  27.726  0.00  0.00    -0.270 OA
ATOM      2  C   UNL A   1     -24.801  -0.900  28.759  0.00  0.00    +0.253 C 
ATOM      3  N   UNL A   1     -24.411  -0.062  29.908  0.00  0.00    -0.253 N 
ATOM      4  C   UNL A   1     -24.314   1.353  29.672  0.00  0.00    +0.120 C 
ENDROOT
BRANCH   2   5
ATOM      5  C   UNL A   1     -24.944  -2.243  29.046  0.00  0.00    +0.054 A 
ATOM      6  C   UNL A   1     -26.173  -2.834  29.438  0.00  0.00    +0.004 A 
ATOM      7  C   UNL A   1     -26.248  -4.217  29.744  0.00  0.00    +0.000 A 
ATOM      8  C   UNL A   1     -25.238  -5.073  29.320  0.00  0.00    +0.000 A 
ATOM      9  C   UNL A   1     -24.130  -4.523  28.691  0.00  0.00    +0.000 A 
ATOM     10  C   UNL A   1     -23.939  -3.183  28.533  0.00  0.00    +0.004 A 
ENDBRANCH   2   5
BRANCH   3  11
ATOM     11  C   UNL A   1     -24.146  -0.563  31.170  0.00  0.00    +0.054 A 
ATOM     12  C   UNL A   1     -23.187  -1.002  31.458  0.00  0.00    +0.015 A 
ATOM     13  C   UNL A   1     -22.933  -1.469  32.870  0.00  0.00    +0.001 A 
ATOM     14  C   UNL A   1     -23.924  -1.189  33.820  0.00  0.00    +0.000 A 
ATOM     15  C   UNL A   1     -25.089  -0.542  33.403  0.00  0.00    +0.001 A 
ATOM     16  C   UNL A   1     -25.233  -0.230  32.087  0.00  0.00    +0.015 A 
ENDBRANCH   3  11
TORSDOF 2
ENDMDL
ENDMDL
