MODEL 4308
MODEL 1
REMARK VINA RESULT:    -5.872      0.000      0.000
REMARK INTER + INTRA:          -7.387
REMARK INTER:                  -6.902
REMARK INTRA:                  -0.484
REMARK UNBOUND:                -0.484
REMARK  Name = No_4308-gen_results/8p0m/2024-11-27-11-27-31/
REMARK  3 active torsions:
REMARK  status: ('A' for Active; 'I' for Inactive)
REMARK    1  A    between atoms: C_1  and  C_8
REMARK    2  A    between atoms: C_5  and  C_10
REMARK    3  A    between atoms: C_9  and  C_13
REMARK                            x       y       z     vdW  Elec       q    Type
REMARK                         _______ _______ _______ _____ _____    ______ ____
ROOT
ATOM      1  C   UNL A   1     -22.558   0.419  29.497  0.00  0.00    -0.009 C 
ATOM      2  C   UNL A   1     -23.252  -0.570  29.454  0.00  0.00    -0.044 C 
ATOM      3  C   UNL A   1     -22.952  -1.737  28.960  0.00  0.00    +0.022 C 
ATOM      4  C   UNL A   1     -23.833  -2.931  28.931  0.00  0.00    +0.010 C 
ATOM      5  C   UNL A   1     -25.110  -2.789  29.544  0.00  0.00    +0.039 C 
ATOM      6  C   UNL A   1     -25.408  -1.580  30.118  0.00  0.00    +0.010 C 
ATOM      7  C   UNL A   1     -24.568  -0.518  30.137  0.00  0.00    +0.022 C 
ENDROOT
BRANCH   5   8
ATOM      8  C   UNL A   1     -26.047  -3.895  29.597  0.00  0.00    +0.058 C 
ATOM      9  N   UNL A   1     -27.135  -4.084  29.840  0.00  0.00    -0.157 NA
ATOM     10  C   UNL A   1     -25.344  -5.287  29.348  0.00  0.00    +0.049 C 
ENDBRANCH   5   8
BRANCH   1  11
ATOM     11  C   UNL A   1     -21.486   0.456  28.566  0.00  0.00    -0.001 C 
ATOM     12  C   UNL A   1     -21.572   1.303  27.486  0.00  0.00    -0.000 C 
BRANCH  12  13
ATOM     13  C   UNL A   1     -22.679   2.155  27.333  0.00  0.00    -0.000 C 
ATOM     14  C   UNL A   1     -23.350   2.281  26.134  0.00  0.00    -0.000 C 
ENDBRANCH  12  13
ENDBRANCH   1  11
TORSDOF 3
ENDMDL
ENDMDL
