MODEL 4309
MODEL 1
REMARK VINA RESULT:    -6.832      0.000      0.000
REMARK INTER + INTRA:          -6.832
REMARK INTER:                  -6.832
REMARK INTRA:                   0.000
REMARK UNBOUND:                 0.000
REMARK  Name = No_4309-gen_results/8p0m/2024-11-27-11-27-31/
REMARK  0 active torsions:
REMARK  status: ('A' for Active; 'I' for Inactive)
REMARK                            x       y       z     vdW  Elec       q    Type
REMARK                         _______ _______ _______ _____ _____    ______ ____
ROOT
ATOM      1  C   UNL A   1     -23.470  -2.260  28.932  0.00  0.00    +0.052 C 
ATOM      2  C   UNL A   1     -24.284  -2.894  28.720  0.00  0.00    -0.021 A 
ATOM      3  C   UNL A   1     -23.770  -0.779  28.888  0.00  0.00    -0.021 A 
ATOM      4  C   UNL A   1     -22.902   0.156  28.300  0.00  0.00    -0.004 A 
ATOM      5  C   UNL A   1     -24.031  -4.404  28.692  0.00  0.00    -0.004 A 
ATOM      6  C   UNL A   1     -23.246   1.557  28.310  0.00  0.00    -0.000 A 
ATOM      7  C   UNL A   1     -24.454   1.958  28.938  0.00  0.00    -0.000 A 
ATOM      8  C   UNL A   1     -25.253   1.059  29.555  0.00  0.00    -0.004 A 
ATOM      9  C   UNL A   1     -24.928  -0.283  29.543  0.00  0.00    -0.021 A 
ATOM     10  C   UNL A   1     -24.942  -5.340  29.050  0.00  0.00    -0.000 A 
ATOM     11  C   UNL A   1     -25.824  -5.055  29.523  0.00  0.00    -0.000 A 
ATOM     12  C   UNL A   1     -26.458  -3.766  29.746  0.00  0.00    -0.004 A 
ATOM     13  C   UNL A   1     -25.536  -2.738  29.515  0.00  0.00    -0.021 A 
ATOM     14  C   UNL A   1     -25.918  -1.357  29.747  0.00  0.00    +0.052 C 
ENDROOT
TORSDOF 0
ENDMDL
ENDMDL
