REMARK  Name = outputs/IAG933/test6/raw/output_4309_IAG933_linker_design_.xyz
REMARK  21 active torsions:
REMARK  status: ('A' for Active; 'I' for Inactive)
REMARK    1  A    between atoms: C_1  and  C_2
REMARK    2  A    between atoms: C_1  and  C_8
REMARK    3  A    between atoms: C_9  and  O_39
REMARK    4  A    between atoms: C_13  and  O_32
REMARK    5  A    between atoms: C_14  and  C_15
REMARK    6  A    between atoms: C_21  and  O_22
REMARK    7  A    between atoms: O_22  and  C_23
REMARK    8  A    between atoms: C_23  and  C_24
REMARK    9  A    between atoms: C_28  and  C_31
REMARK   10  A    between atoms: C_30  and  O_33
REMARK   11  A    between atoms: C_30  and  C_35
REMARK   12  A    between atoms: C_31  and  C_38
REMARK   13  A    between atoms: O_32  and  C_38
REMARK   14  A    between atoms: O_33  and  C_36
REMARK   15  A    between atoms: C_36  and  C_44
REMARK   16  A    between atoms: N_37  and  C_43
REMARK   17  A    between atoms: C_38  and  N_46
REMARK   18  A    between atoms: O_39  and  C_43
REMARK   19  A    between atoms: C_41  and  C_43
REMARK   20  A    between atoms: C_41  and  C_44
REMARK   21  A    between atoms: C_41  and  N_46
REMARK                            x       y       z     vdW  Elec       q    Type
REMARK                         _______ _______ _______ _____ _____    ______ ____
ROOT
ATOM      1  C   UNL A   1     -26.777   1.864  30.045  0.00  0.00    +0.127 C 
ENDROOT
BRANCH   1   2
ATOM      2  N   UNL A   1     -25.748   1.368  28.965  0.00  0.00    -0.177 NA
BRANCH   2   3
ATOM      3  C   UNL A   1     -24.478   1.052  28.535  0.00  0.00    +0.246 C 
BRANCH   3   4
ATOM      4  O   UNL A   1     -24.416   1.312  27.075  0.00  0.00    -0.459 OA
BRANCH   4   5
ATOM      5  C   UNL A   1     -25.688   1.614  26.461  0.00  0.00    +0.178 C 
ATOM      6  C   UNL A   1     -26.250   2.920  26.395  0.00  0.00    +0.111 C 
ATOM      7  C   UNL A   1     -27.438   3.091  25.645  0.00  0.00    +0.110 C 
ATOM      8  N   UNL A   1     -28.075   2.089  25.003  0.00  0.00    -0.208 NA
ATOM      9  C   UNL A   1     -27.543   0.849  25.079  0.00  0.00    +0.256 C 
ATOM     10  C   UNL A   1     -26.354   0.576  25.777  0.00  0.00    +0.227 C 
ATOM     11  F   UNL A   1     -25.860  -0.681  25.795  0.00  0.00    -0.196 F 
BRANCH   6  12
ATOM     12  C   UNL A   1     -25.642   4.093  27.123  0.00  0.00    +0.269 C 
ATOM     13  N   UNL A   1     -25.614   5.252  26.449  0.00  0.00    -0.200 NA
ATOM     14  C   UNL A   1     -25.026   6.479  26.963  0.00  0.00    +0.139 C 
ATOM     15  O   UNL A   1     -25.143   3.966  28.243  0.00  0.00    -0.268 OA
ENDBRANCH   6  12
BRANCH   9  16
ATOM     16  O   UNL A   1     -28.193  -0.208  24.477  0.00  0.00    -0.456 OA
BRANCH  16  17
ATOM     17  C   UNL A   1     -29.460   0.005  23.866  0.00  0.00    +0.243 C 
BRANCH  17  18
ATOM     18  C   UNL A   1     -30.065  -1.377  23.573  0.00  0.00    +0.229 C 
ATOM     19  O   UNL A   1     -30.729  -1.878  24.721  0.00  0.00    -0.216 OA
ENDBRANCH  17  18
ENDBRANCH  16  17
ENDBRANCH   9  16
ENDBRANCH   4   5
ENDBRANCH   3   4
BRANCH   3  20
ATOM     20  C   UNL A   1     -23.112   1.027  27.797  0.00  0.00    +0.089 C 
BRANCH  20  21
ATOM     21  C   UNL A   1     -22.174   1.947  27.352  0.00  0.00    -0.021 C 
ATOM     22  C   UNL A   1     -20.866   1.678  27.320  0.00  0.00    -0.005 C 
ENDBRANCH  20  21
ENDBRANCH   3  20
ENDBRANCH   2   3
ENDBRANCH   1   2
BRANCH   1  23
ATOM     23  C   UNL A   1     -28.062   0.972  29.764  0.00  0.00    +0.054 C 
BRANCH  23  24
ATOM     24  C   UNL A   1     -27.770  -0.169  28.789  0.00  0.00    +0.144 C 
BRANCH  24  25
ATOM     25  O   UNL A   1     -28.994  -0.629  28.461  0.00  0.00    -0.344 OA
BRANCH  25  26
ATOM     26  C   UNL A   1     -30.383  -0.245  28.566  0.00  0.00    +0.230 C 
BRANCH  26  28
ATOM     27  N   UNL A   1     -32.060  -0.590  30.317  0.00  0.00    -0.086 NA
ATOM     28  C   UNL A   1     -30.946  -0.978  29.776  0.00  0.00    +0.291 C 
ATOM     29  O   UNL A   1     -30.213  -1.919  30.238  0.00  0.00    -0.269 OA
ENDBRANCH  26  28
ENDBRANCH  25  26
ENDBRANCH  24  25
ENDBRANCH  23  24
ENDBRANCH   1  23
BRANCH   1  30
ATOM     30  C   UNL A   1     -26.079   2.764  31.171  0.00  0.00    +0.231 C 
BRANCH  30  32
ATOM     31  O   UNL A   1     -24.546   5.893  32.419  0.00  0.00    -0.221 OA
ATOM     32  N   UNL A   1     -25.442   4.113  31.478  0.00  0.00    -0.137 NA
ATOM     33  O   UNL A   1     -26.633   6.105  31.536  0.00  0.00    -0.221 OA
ATOM     34  C   UNL A   1     -25.523   5.415  31.823  0.00  0.00    +0.465 C 
ENDBRANCH  30  32
BRANCH  30  35
ATOM     35  O   UNL A   1     -24.984   1.923  31.506  0.00  0.00    -0.336 OA
BRANCH  35  37
ATOM     36  C   UNL A   1     -25.387  -0.679  31.571  0.00  0.00    +0.104 C 
ATOM     37  C   UNL A   1     -25.189   0.773  32.028  0.00  0.00    +0.135 C 
ATOM     38  C   UNL A   1     -25.336   0.684  33.544  0.00  0.00    +0.050 C 
ATOM     39  C   UNL A   1     -24.829  -0.715  33.905  0.00  0.00    +0.091 C 
ATOM     40  N   UNL A   1     -24.758  -1.481  32.646  0.00  0.00    -0.217 NA
BRANCH  36  41
ATOM     41  C   UNL A   1     -24.855  -1.012  30.143  0.00  0.00    +0.046 C 
BRANCH  41  42
ATOM     42  C   UNL A   1     -24.973  -2.505  29.788  0.00  0.00    -0.021 C 
ATOM     43  C   UNL A   1     -23.906  -3.173  29.146  0.00  0.00    -0.004 C 
ATOM     44  C   UNL A   1     -23.989  -4.549  28.853  0.00  0.00    -0.000 C 
ATOM     45  C   UNL A   1     -25.137  -5.280  29.205  0.00  0.00    -0.000 C 
ATOM     46  C   UNL A   1     -26.232  -4.611  29.784  0.00  0.00    -0.000 C 
ATOM     47  C   UNL A   1     -26.155  -3.232  30.065  0.00  0.00    -0.004 C 
ENDBRANCH  41  42
ENDBRANCH  36  41
ENDBRANCH  35  37
ENDBRANCH  30  35
ENDBRANCH   1  30
TORSDOF 21
