MODEL 4310
MODEL 1
REMARK VINA RESULT:    -6.802      0.000      0.000
REMARK INTER + INTRA:          -6.564
REMARK INTER:                  -7.199
REMARK INTRA:                   0.635
REMARK UNBOUND:                 0.635
REMARK  Name = No_4310-gen_results/8p0m/2024-11-27-11-27-31/
REMARK  1 active torsions:
REMARK  status: ('A' for Active; 'I' for Inactive)
REMARK    1  A    between atoms: C_2  and  C_15
REMARK                            x       y       z     vdW  Elec       q    Type
REMARK                         _______ _______ _______ _____ _____    ______ ____
ROOT
ATOM      1  C   UNL A   1     -25.469   0.528  25.432  0.00  0.00    +0.008 A 
ATOM      2  C   UNL A   1     -25.163   1.372  25.984  0.00  0.00    +0.081 A 
ATOM      3  C   UNL A   1     -26.811   0.652  24.746  0.00  0.00    +0.020 A 
ATOM      4  C   UNL A   1     -27.518  -0.399  24.058  0.00  0.00    +0.100 A 
ATOM      5  C   UNL A   1     -25.683   2.744  26.046  0.00  0.00    +0.144 A 
ATOM      6  C   UNL A   1     -26.894   2.944  25.419  0.00  0.00    +0.030 A 
ATOM      7  C   UNL A   1     -27.489   1.924  24.722  0.00  0.00    +0.007 A 
ATOM      8  N   UNL A   1     -28.736  -0.192  23.625  0.00  0.00    -0.227 NA
ATOM      9  C   UNL A   1     -29.344   1.017  23.543  0.00  0.00    +0.154 A 
ATOM     10  C   UNL A   1     -28.776   2.109  24.194  0.00  0.00    +0.036 A 
ATOM     11  N   UNL A   1     -30.598   1.089  23.007  0.00  0.00    -0.160 NA
ATOM     12  C   UNL A   1     -31.634   0.286  23.417  0.00  0.00    +0.247 C 
ATOM     13  C   UNL A   1     -31.546  -0.532  24.641  0.00  0.00    +0.097 C 
ATOM     14  O   UNL A   1     -32.856   0.645  23.058  0.00  0.00    -0.273 OA
ATOM     15  F   UNL A   1     -24.464   3.691  25.560  0.00  0.00    -0.204 F 
ENDROOT
BRANCH   2  16
ATOM     16  C   UNL A   1     -23.741   1.274  26.705  0.00  0.00    +0.251 C 
ATOM     17  O   UNL A   1     -22.995   1.980  26.243  0.00  0.00    -0.270 OA
ATOM     18  N   UNL A   1     -23.495   0.416  27.742  0.00  0.00    -0.278 N 
ATOM     19  C   UNL A   1     -22.197   0.395  28.348  0.00  0.00    +0.094 C 
ATOM     20  C   UNL A   1     -22.158  -0.055  29.457  0.00  0.00    +0.022 C 
ATOM     21  C   UNL A   1     -23.261  -0.789  30.104  0.00  0.00    +0.004 C 
ATOM     22  C   UNL A   1     -24.533  -0.734  29.484  0.00  0.00    +0.020 C 
ATOM     23  C   UNL A   1     -24.672  -0.067  28.413  0.00  0.00    +0.076 C 
ATOM     24  C   UNL A   1     -25.286   1.340  28.973  0.00  0.00    +0.021 C 
ENDBRANCH   2  16
TORSDOF 1
ENDMDL
ENDMDL
