REMARK  Name = outputs/IAG933/test6/raw/output_4312_IAG933_linker_design_.xyz
REMARK  16 active torsions:
REMARK  status: ('A' for Active; 'I' for Inactive)
REMARK    1  A    between atoms: C_1  and  C_2
REMARK    2  A    between atoms: C_1  and  C_8
REMARK    3  A    between atoms: C_1  and  C_28
REMARK    4  A    between atoms: C_13  and  C_39
REMARK    5  A    between atoms: C_14  and  C_15
REMARK    6  A    between atoms: C_21  and  O_22
REMARK    7  A    between atoms: O_22  and  C_23
REMARK    8  A    between atoms: C_23  and  C_24
REMARK    9  A    between atoms: C_28  and  N_30
REMARK   10  A    between atoms: C_28  and  O_37
REMARK   11  A    between atoms: C_29  and  C_36
REMARK   12  A    between atoms: N_30  and  O_31
REMARK   13  A    between atoms: C_32  and  O_33
REMARK   14  A    between atoms: C_32  and  C_36
REMARK   15  A    between atoms: C_32  and  C_39
REMARK   16  A    between atoms: O_37  and  C_39
REMARK                            x       y       z     vdW  Elec       q    Type
REMARK                         _______ _______ _______ _____ _____    ______ ____
ROOT
ATOM      1  C   UNL A   1     -24.610   1.026  27.166  0.00  0.00    +0.172 C 
ENDROOT
BRANCH   1   2
ATOM      2  C   UNL A   1     -25.688   1.614  26.461  0.00  0.00    +0.045 C 
ATOM      3  C   UNL A   1     -26.250   2.920  26.395  0.00  0.00    +0.075 C 
ATOM      4  C   UNL A   1     -27.438   3.091  25.645  0.00  0.00    +0.106 C 
ATOM      5  N   UNL A   1     -28.075   2.089  25.003  0.00  0.00    -0.208 NA
ATOM      6  C   UNL A   1     -27.543   0.849  25.079  0.00  0.00    +0.253 C 
ATOM      7  C   UNL A   1     -26.354   0.576  25.777  0.00  0.00    +0.191 C 
ATOM      8  F   UNL A   1     -25.860  -0.681  25.795  0.00  0.00    -0.200 F 
BRANCH   3   9
ATOM      9  C   UNL A   1     -25.642   4.093  27.123  0.00  0.00    +0.266 C 
ATOM     10  N   UNL A   1     -25.614   5.252  26.449  0.00  0.00    -0.200 NA
ATOM     11  C   UNL A   1     -25.026   6.479  26.963  0.00  0.00    +0.139 C 
ATOM     12  O   UNL A   1     -25.143   3.966  28.243  0.00  0.00    -0.268 OA
ENDBRANCH   3   9
BRANCH   6  13
ATOM     13  O   UNL A   1     -28.193  -0.208  24.477  0.00  0.00    -0.456 OA
BRANCH  13  14
ATOM     14  C   UNL A   1     -29.460   0.005  23.866  0.00  0.00    +0.243 C 
BRANCH  14  15
ATOM     15  C   UNL A   1     -30.065  -1.377  23.573  0.00  0.00    +0.229 C 
ATOM     16  O   UNL A   1     -30.729  -1.878  24.721  0.00  0.00    -0.216 OA
ENDBRANCH  14  15
ENDBRANCH  13  14
ENDBRANCH   6  13
ENDBRANCH   1   2
BRANCH   1  17
ATOM     17  O   UNL A   1     -24.727  -0.009  27.924  0.00  0.00    -0.333 OA
BRANCH  17  18
ATOM     18  C   UNL A   1     -24.393   0.063  29.293  0.00  0.00    +0.223 C 
BRANCH  18  19
ATOM     19  C   UNL A   1     -24.855  -1.012  30.143  0.00  0.00    +0.085 C 
BRANCH  19  20
ATOM     20  C   UNL A   1     -24.973  -2.505  29.788  0.00  0.00    -0.017 C 
ATOM     21  C   UNL A   1     -23.906  -3.173  29.146  0.00  0.00    -0.004 C 
ATOM     22  C   UNL A   1     -23.989  -4.549  28.853  0.00  0.00    -0.000 C 
ATOM     23  C   UNL A   1     -25.137  -5.280  29.205  0.00  0.00    -0.000 C 
ATOM     24  C   UNL A   1     -26.232  -4.611  29.784  0.00  0.00    -0.000 C 
ATOM     25  C   UNL A   1     -26.155  -3.232  30.065  0.00  0.00    -0.004 C 
ENDBRANCH  19  20
BRANCH  19  26
ATOM     26  C   UNL A   1     -25.387  -0.679  31.571  0.00  0.00    +0.081 C 
ATOM     27  C   UNL A   1     -25.189   0.773  32.028  0.00  0.00    +0.019 C 
ATOM     28  C   UNL A   1     -25.336   0.684  33.544  0.00  0.00    +0.020 C 
ATOM     29  C   UNL A   1     -24.829  -0.715  33.905  0.00  0.00    +0.089 C 
ATOM     30  N   UNL A   1     -24.758  -1.481  32.646  0.00  0.00    -0.219 NA
ENDBRANCH  19  26
ENDBRANCH  18  19
BRANCH  18  31
ATOM     31  N   UNL A   1     -24.673   1.599  29.722  0.00  0.00    -0.054 NA
BRANCH  31  32
ATOM     32  O   UNL A   1     -24.294   2.607  30.683  0.00  0.00    -0.261 OA
ATOM     33  C   UNL A   1     -25.402   3.311  31.311  0.00  0.00    +0.203 C 
ENDBRANCH  31  32
ENDBRANCH  18  31
ENDBRANCH  17  18
ENDBRANCH   1  17
BRANCH   1  34
ATOM     34  C   UNL A   1     -23.490   1.371  26.631  0.00  0.00    +0.184 C 
BRANCH  34  36
ATOM     35  O   UNL A   1     -21.219   1.973  26.905  0.00  0.00    -0.212 OA
ATOM     36  C   UNL A   1     -22.187   0.913  27.371  0.00  0.00    +0.238 C 
BRANCH  36  37
ATOM     37  C   UNL A   1     -21.625   0.110  28.426  0.00  0.00    +0.184 C 
ATOM     38  O   UNL A   1     -22.086  -0.247  29.459  0.00  0.00    -0.293 OA
ATOM     39  C   UNL A   1     -20.192  -0.021  28.357  0.00  0.00    +0.075 C 
ENDBRANCH  36  37
ENDBRANCH  34  36
BRANCH  34  40
ATOM     40  O   UNL A   1     -23.112   1.159  25.279  0.00  0.00    -0.348 OA
ATOM     41  C   UNL A   1     -23.220   2.396  24.534  0.00  0.00    +0.174 C 
ENDBRANCH  34  40
ENDBRANCH   1  34
TORSDOF 16
