MODEL 4313
MODEL 1
REMARK VINA RESULT:    -5.317      0.000      0.000
REMARK INTER + INTRA:          -5.776
REMARK INTER:                  -5.627
REMARK INTRA:                  -0.149
REMARK UNBOUND:                -0.149
REMARK  Name = No_4313-gen_results/8p0m/2024-11-27-11-27-31/
REMARK  1 active torsions:
REMARK  status: ('A' for Active; 'I' for Inactive)
REMARK    1  A    between atoms: C_4  and  C_6
REMARK                            x       y       z     vdW  Elec       q    Type
REMARK                         _______ _______ _______ _____ _____    ______ ____
ROOT
ATOM      1  C   UNL A   1     -24.633  -5.254  28.922  0.00  0.00    -0.000 A 
ATOM      2  C   UNL A   1     -25.618  -5.170  29.287  0.00  0.00    -0.000 A 
ATOM      3  C   UNL A   1     -23.926  -3.944  28.654  0.00  0.00    -0.000 A 
ATOM      4  C   UNL A   1     -24.546  -2.734  29.032  0.00  0.00    -0.000 A 
ATOM      5  C   UNL A   1     -26.465  -4.063  29.785  0.00  0.00    -0.000 A 
ATOM      6  C   UNL A   1     -25.824  -2.817  29.578  0.00  0.00    -0.000 A 
ENDROOT
BRANCH   4   7
ATOM      7  C   UNL A   1     -23.939  -1.474  28.822  0.00  0.00    -0.005 C 
ATOM      8  C   UNL A   1     -22.735  -1.207  29.149  0.00  0.00    -0.026 C 
ATOM      9  C   UNL A   1     -22.056   0.049  28.780  0.00  0.00    +0.031 C 
ENDBRANCH   4   7
TORSDOF 1
ENDMDL
ENDMDL
