REMARK  Name = outputs/IAG933/test6/raw/output_4314_IAG933_linker_design_.xyz
REMARK  15 active torsions:
REMARK  status: ('A' for Active; 'I' for Inactive)
REMARK    1  A    between atoms: C_1  and  C_2
REMARK    2  A    between atoms: C_1  and  C_8
REMARK    3  A    between atoms: C_1  and  C_30
REMARK    4  A    between atoms: C_13  and  C_28
REMARK    5  A    between atoms: C_14  and  C_15
REMARK    6  A    between atoms: C_21  and  O_22
REMARK    7  A    between atoms: O_22  and  C_23
REMARK    8  A    between atoms: C_23  and  C_24
REMARK    9  A    between atoms: C_28  and  N_29
REMARK   10  A    between atoms: C_28  and  C_41
REMARK   11  A    between atoms: N_29  and  C_30
REMARK   12  A    between atoms: C_30  and  N_39
REMARK   13  A    between atoms: C_31  and  C_40
REMARK   14  A    between atoms: C_32  and  C_42
REMARK   15  A    between atoms: N_39  and  C_42
REMARK                            x       y       z     vdW  Elec       q    Type
REMARK                         _______ _______ _______ _____ _____    ______ ____
ROOT
ATOM      1  C   UNL A   1     -24.846   1.309  27.421  0.00  0.00    +0.107 C 
ENDROOT
BRANCH   1   2
ATOM      2  C   UNL A   1     -25.688   1.614  26.461  0.00  0.00    +0.090 C 
ATOM      3  C   UNL A   1     -26.250   2.920  26.395  0.00  0.00    +0.057 C 
ATOM      4  C   UNL A   1     -27.438   3.091  25.645  0.00  0.00    +0.102 C 
ATOM      5  N   UNL A   1     -28.075   2.089  25.003  0.00  0.00    -0.212 NA
ATOM      6  C   UNL A   1     -27.543   0.849  25.079  0.00  0.00    +0.234 C 
ATOM      7  C   UNL A   1     -26.354   0.576  25.777  0.00  0.00    +0.242 C 
ATOM      8  F   UNL A   1     -25.860  -0.681  25.795  0.00  0.00    -0.227 F 
BRANCH   3   9
ATOM      9  C   UNL A   1     -25.642   4.093  27.123  0.00  0.00    +0.263 C 
ATOM     10  N   UNL A   1     -25.614   5.252  26.449  0.00  0.00    -0.200 NA
ATOM     11  C   UNL A   1     -25.026   6.479  26.963  0.00  0.00    +0.139 C 
ATOM     12  O   UNL A   1     -25.143   3.966  28.243  0.00  0.00    -0.269 OA
ENDBRANCH   3   9
BRANCH   6  13
ATOM     13  O   UNL A   1     -28.193  -0.208  24.477  0.00  0.00    -0.459 OA
BRANCH  13  14
ATOM     14  C   UNL A   1     -29.460   0.005  23.866  0.00  0.00    +0.242 C 
BRANCH  14  15
ATOM     15  C   UNL A   1     -30.065  -1.377  23.573  0.00  0.00    +0.229 C 
ATOM     16  O   UNL A   1     -30.729  -1.878  24.721  0.00  0.00    -0.216 OA
ENDBRANCH  14  15
ENDBRANCH  13  14
ENDBRANCH   6  13
ENDBRANCH   1   2
BRANCH   1  21
ATOM     17  O   UNL A   1     -21.644   2.043  25.799  0.00  0.00    -0.448 OA
ATOM     18  C   UNL A   1     -21.295   1.701  27.040  0.00  0.00    +0.183 C 
ATOM     19  C   UNL A   1     -23.027   1.887  25.693  0.00  0.00    +0.177 C 
ATOM     20  C   UNL A   1     -22.479   1.342  27.750  0.00  0.00    +0.080 C 
ATOM     21  C   UNL A   1     -23.540   1.460  26.939  0.00  0.00    +0.038 C 
BRANCH  20  22
ATOM     22  C   UNL A   1     -22.838   0.884  29.071  0.00  0.00    +0.237 C 
ATOM     23  O   UNL A   1     -22.797  -0.027  29.346  0.00  0.00    -0.283 OA
ENDBRANCH  20  22
ENDBRANCH   1  21
BRANCH   1  24
ATOM     24  N   UNL A   1     -25.264   0.980  28.662  0.00  0.00    -0.198 NA
BRANCH  24  25
ATOM     25  C   UNL A   1     -25.741  -0.203  29.237  0.00  0.00    +0.151 C 
BRANCH  25  26
ATOM     26  C   UNL A   1     -24.855  -1.012  30.143  0.00  0.00    +0.071 C 
BRANCH  26  27
ATOM     27  C   UNL A   1     -24.973  -2.505  29.788  0.00  0.00    -0.018 C 
ATOM     28  C   UNL A   1     -23.906  -3.173  29.146  0.00  0.00    -0.004 C 
ATOM     29  C   UNL A   1     -23.989  -4.549  28.853  0.00  0.00    -0.000 C 
ATOM     30  C   UNL A   1     -25.137  -5.280  29.205  0.00  0.00    -0.000 C 
ATOM     31  C   UNL A   1     -26.232  -4.611  29.784  0.00  0.00    -0.000 C 
ATOM     32  C   UNL A   1     -26.155  -3.232  30.065  0.00  0.00    -0.004 C 
ENDBRANCH  26  27
BRANCH  26  33
ATOM     33  C   UNL A   1     -25.387  -0.679  31.571  0.00  0.00    +0.080 C 
ATOM     34  C   UNL A   1     -25.189   0.773  32.028  0.00  0.00    +0.019 C 
ATOM     35  C   UNL A   1     -25.336   0.684  33.544  0.00  0.00    +0.020 C 
ATOM     36  C   UNL A   1     -24.829  -0.715  33.905  0.00  0.00    +0.089 C 
ATOM     37  N   UNL A   1     -24.758  -1.481  32.646  0.00  0.00    -0.219 NA
ENDBRANCH  26  33
ENDBRANCH  25  26
BRANCH  25  38
ATOM     38  N   UNL A   1     -27.023  -0.483  29.184  0.00  0.00    -0.199 NA
BRANCH  38  39
ATOM     39  C   UNL A   1     -27.804   0.725  29.636  0.00  0.00    +0.123 C 
BRANCH  39  40
ATOM     40  C   UNL A   1     -29.100   0.727  28.855  0.00  0.00    +0.169 C 
ATOM     41  O   UNL A   1     -29.575  -0.569  28.749  0.00  0.00    -0.222 OA
ATOM     42  C   UNL A   1     -30.119   1.546  29.675  0.00  0.00    +0.037 C 
ENDBRANCH  39  40
ENDBRANCH  38  39
ENDBRANCH  25  38
ENDBRANCH  24  25
ENDBRANCH   1  24
TORSDOF 15
