MODEL 4315
MODEL 1
REMARK VINA RESULT:    -8.397      0.000      0.000
REMARK INTER + INTRA:         -13.660
REMARK INTER:                 -11.834
REMARK INTRA:                  -1.827
REMARK UNBOUND:                -1.827
REMARK  Name = No_4315-gen_results/8p0m/2024-11-27-11-27-31/
REMARK  7 active torsions:
REMARK  status: ('A' for Active; 'I' for Inactive)
REMARK    1  A    between atoms: C_11  and  C_12
REMARK    2  A    between atoms: C_12  and  C_13
REMARK    3  A    between atoms: C_12  and  C_14
REMARK    4  A    between atoms: C_16  and  C_19
REMARK    5  A    between atoms: C_19  and  C_31
REMARK    6  A    between atoms: C_22  and  C_27
REMARK    7  A    between atoms: C_32  and  C_33
REMARK                            x       y       z     vdW  Elec       q    Type
REMARK                         _______ _______ _______ _____ _____    ______ ____
ROOT
ATOM      1  C   UNL A   1     -24.864  -0.955  29.337  0.00  0.00    +0.087 C 
ENDROOT
BRANCH   1  12
ATOM      2  C   UNL A   1     -23.815   2.527  25.873  0.00  0.00    +0.030 A 
ATOM      3  C   UNL A   1     -24.789   1.928  26.265  0.00  0.00    +0.140 A 
ATOM      4  C   UNL A   1     -24.830   0.919  27.087  0.00  0.00    +0.029 A 
ATOM      5  C   UNL A   1     -23.594   0.422  27.602  0.00  0.00    -0.001 A 
ATOM      6  C   UNL A   1     -22.533   2.154  26.441  0.00  0.00    +0.002 A 
ATOM      7  C   UNL A   1     -22.484   1.118  27.278  0.00  0.00    -0.000 A 
ATOM      8  F   UNL A   1     -26.041   2.321  25.803  0.00  0.00    -0.204 F 
ATOM      9  C   UNL A   1     -21.165   0.681  27.825  0.00  0.00    -0.000 A 
ATOM     10  C   UNL A   1     -21.193   0.160  29.003  0.00  0.00    -0.000 A 
ATOM     11  C   UNL A   1     -22.431  -0.611  29.388  0.00  0.00    -0.004 A 
ATOM     12  C   UNL A   1     -23.656  -0.321  28.863  0.00  0.00    -0.013 A 
ENDBRANCH   1  12
BRANCH   1  13
ATOM     13  C   UNL A   1     -25.330  -0.462  30.714  0.00  0.00    +0.102 A 
ATOM     14  N   UNL A   1     -25.040  -0.719  31.773  0.00  0.00    -0.240 NA
ATOM     15  C   UNL A   1     -25.475  -0.234  32.890  0.00  0.00    +0.155 A 
ATOM     16  C   UNL A   1     -26.506   0.525  30.541  0.00  0.00    +0.184 A 
ATOM     17  N   UNL A   1     -26.973   1.122  31.687  0.00  0.00    -0.223 NA
ATOM     18  C   UNL A   1     -26.530   0.664  32.880  0.00  0.00    +0.124 A 
ATOM     19  N   UNL A   1     -26.955   0.940  29.373  0.00  0.00    -0.106 NA
BRANCH  15  20
ATOM     20  C   UNL A   1     -24.952  -0.742  34.229  0.00  0.00    +0.284 C 
ATOM     21  N   UNL A   1     -25.501  -0.622  35.157  0.00  0.00    -0.198 NA
ATOM     22  C   UNL A   1     -25.097  -0.913  36.376  0.00  0.00    +0.139 C 
ATOM     23  O   UNL A   1     -23.792  -1.360  34.145  0.00  0.00    -0.267 OA
ENDBRANCH  15  20
ENDBRANCH   1  13
BRANCH   1  24
ATOM     24  C   UNL A   1     -25.069  -2.319  29.292  0.00  0.00    -0.013 A 
ATOM     25  C   UNL A   1     -26.287  -2.870  29.703  0.00  0.00    -0.007 A 
ATOM     26  C   UNL A   1     -26.503  -4.288  29.710  0.00  0.00    -0.018 A 
ATOM     27  C   UNL A   1     -24.106  -3.170  28.769  0.00  0.00    -0.004 A 
ATOM     28  C   UNL A   1     -24.269  -4.580  28.788  0.00  0.00    -0.001 A 
ATOM     29  C   UNL A   1     -25.386  -5.106  29.270  0.00  0.00    -0.004 A 
BRANCH  26  30
ATOM     30  C   UNL A   1     -27.706  -4.829  30.202  0.00  0.00    +0.052 C 
BRANCH  30  31
ATOM     31  C   UNL A   1     -28.760  -4.093  30.697  0.00  0.00    -0.021 C 
ATOM     32  C   UNL A   1     -29.509  -4.240  31.706  0.00  0.00    -0.005 C 
BRANCH  32  33
ATOM     33  C   UNL A   1     -29.513  -3.446  32.987  0.00  0.00    -0.005 C 
ATOM     34  C   UNL A   1     -29.043  -2.123  33.037  0.00  0.00    -0.026 C 
ATOM     35  C   UNL A   1     -29.192  -1.431  34.245  0.00  0.00    +0.031 C 
ENDBRANCH  32  33
ENDBRANCH  30  31
ENDBRANCH  26  30
ENDBRANCH   1  24
TORSDOF 7
ENDMDL
ENDMDL
