REMARK  Name = No_4316-gen_results/8p0m/2024-11-27-11-27-31/
REMARK  5 active torsions:
REMARK  status: ('A' for Active; 'I' for Inactive)
REMARK    1  A    between atoms: C_3  and  C_4
REMARK    2  A    between atoms: C_10  and  C_13
REMARK    3  A    between atoms: C_13  and  N_14
REMARK    4  A    between atoms: N_14  and  C_15
REMARK    5  A    between atoms: C_16  and  C_17
REMARK                            x       y       z     vdW  Elec       q    Type
REMARK                         _______ _______ _______ _____ _____    ______ ____
ROOT
ATOM      1  C   UNL A   1     -28.016  -0.814  28.878  0.00  0.00    -0.003 A 
ATOM      2  C   UNL A   1     -27.064  -0.119  28.608  0.00  0.00    -0.000 A 
ATOM      3  C   UNL A   1     -25.792  -0.430  29.076  0.00  0.00    -0.000 A 
ATOM      4  C   UNL A   1     -27.955  -1.877  29.873  0.00  0.00    -0.001 A 
ATOM      5  C   UNL A   1     -26.726  -2.330  30.311  0.00  0.00    -0.003 A 
ATOM      6  C   UNL A   1     -25.602  -1.564  29.967  0.00  0.00    -0.000 A 
ENDROOT
BRANCH   3   7
ATOM      7  C   UNL A   1     -24.546   0.349  28.823  0.00  0.00    -0.000 A 
ATOM      8  C   UNL A   1     -24.659   1.420  27.888  0.00  0.00    -0.000 A 
ATOM      9  C   UNL A   1     -23.540   2.179  27.550  0.00  0.00    +0.000 A 
ATOM     10  C   UNL A   1     -22.293   1.743  28.047  0.00  0.00    +0.000 A 
ATOM     11  C   UNL A   1     -22.171   0.708  28.928  0.00  0.00    +0.000 A 
ATOM     12  C   UNL A   1     -23.334  -0.062  29.308  0.00  0.00    -0.000 A 
ENDBRANCH   3   7
BRANCH   4  13
ATOM     13  C   UNL A   1     -29.138  -2.674  30.249  0.00  0.00    +0.139 C 
BRANCH  13  14
ATOM     14  N   UNL A   1     -29.401  -2.625  31.510  0.00  0.00    -0.232 NA
BRANCH  14  15
ATOM     15  C   UNL A   1     -29.523  -1.577  32.142  0.00  0.00    +0.081 C 
ATOM     16  C   UNL A   1     -29.723  -0.439  31.708  0.00  0.00    +0.017 C 
BRANCH  16  17
ATOM     17  C   UNL A   1     -29.840   0.504  32.114  0.00  0.00    +0.001 C 
ATOM     18  C   UNL A   1     -29.787   0.598  33.615  0.00  0.00    +0.000 C 
ENDBRANCH  16  17
ENDBRANCH  14  15
ENDBRANCH  13  14
ENDBRANCH   4  13
TORSDOF 5
