REMARK  Name = outputs/IAG933/test6/raw/output_4317_IAG933_linker_design_.xyz
REMARK  12 active torsions:
REMARK  status: ('A' for Active; 'I' for Inactive)
REMARK    1  A    between atoms: C_1  and  C_2
REMARK    2  A    between atoms: C_1  and  C_8
REMARK    3  A    between atoms: C_1  and  C_32
REMARK    4  A    between atoms: C_13  and  C_28
REMARK    5  A    between atoms: C_14  and  C_15
REMARK    6  A    between atoms: C_21  and  O_22
REMARK    7  A    between atoms: O_22  and  C_23
REMARK    8  A    between atoms: C_23  and  C_24
REMARK    9  A    between atoms: C_28  and  C_32
REMARK   10  A    between atoms: C_28  and  C_35
REMARK   11  A    between atoms: C_32  and  N_39
REMARK   12  A    between atoms: N_39  and  C_40
REMARK                            x       y       z     vdW  Elec       q    Type
REMARK                         _______ _______ _______ _____ _____    ______ ____
ROOT
ATOM      1  C   UNL A   1     -25.175   0.043  28.887  0.00  0.00    +0.104 C 
ENDROOT
BRANCH   1   2
ATOM      2  C   UNL A   1     -24.855  -1.012  30.143  0.00  0.00    +0.059 C 
BRANCH   2   3
ATOM      3  C   UNL A   1     -24.973  -2.505  29.788  0.00  0.00    -0.019 C 
ATOM      4  C   UNL A   1     -23.906  -3.173  29.146  0.00  0.00    -0.004 C 
ATOM      5  C   UNL A   1     -23.989  -4.549  28.853  0.00  0.00    -0.000 C 
ATOM      6  C   UNL A   1     -25.137  -5.280  29.205  0.00  0.00    -0.000 C 
ATOM      7  C   UNL A   1     -26.232  -4.611  29.784  0.00  0.00    -0.000 C 
ATOM      8  C   UNL A   1     -26.155  -3.232  30.065  0.00  0.00    -0.004 C 
ENDBRANCH   2   3
BRANCH   2   9
ATOM      9  C   UNL A   1     -25.387  -0.679  31.571  0.00  0.00    +0.079 C 
ATOM     10  C   UNL A   1     -25.189   0.773  32.028  0.00  0.00    +0.019 C 
ATOM     11  C   UNL A   1     -25.336   0.684  33.544  0.00  0.00    +0.020 C 
ATOM     12  C   UNL A   1     -24.829  -0.715  33.905  0.00  0.00    +0.089 C 
ATOM     13  N   UNL A   1     -24.758  -1.481  32.646  0.00  0.00    -0.219 NA
ENDBRANCH   2   9
ENDBRANCH   1   2
BRANCH   1  14
ATOM     14  C   UNL A   1     -24.882   1.021  27.582  0.00  0.00    +0.066 C 
BRANCH  14  15
ATOM     15  C   UNL A   1     -25.688   1.614  26.461  0.00  0.00    +0.077 C 
ATOM     16  C   UNL A   1     -26.250   2.920  26.395  0.00  0.00    +0.055 C 
ATOM     17  C   UNL A   1     -27.438   3.091  25.645  0.00  0.00    +0.102 C 
ATOM     18  N   UNL A   1     -28.075   2.089  25.003  0.00  0.00    -0.212 NA
ATOM     19  C   UNL A   1     -27.543   0.849  25.079  0.00  0.00    +0.234 C 
ATOM     20  C   UNL A   1     -26.354   0.576  25.777  0.00  0.00    +0.240 C 
ATOM     21  F   UNL A   1     -25.860  -0.681  25.795  0.00  0.00    -0.227 F 
BRANCH  16  22
ATOM     22  C   UNL A   1     -25.642   4.093  27.123  0.00  0.00    +0.263 C 
ATOM     23  N   UNL A   1     -25.614   5.252  26.449  0.00  0.00    -0.200 NA
ATOM     24  C   UNL A   1     -25.026   6.479  26.963  0.00  0.00    +0.139 C 
ATOM     25  O   UNL A   1     -25.143   3.966  28.243  0.00  0.00    -0.269 OA
ENDBRANCH  16  22
BRANCH  19  26
ATOM     26  O   UNL A   1     -28.193  -0.208  24.477  0.00  0.00    -0.459 OA
BRANCH  26  27
ATOM     27  C   UNL A   1     -29.460   0.005  23.866  0.00  0.00    +0.242 C 
BRANCH  27  28
ATOM     28  C   UNL A   1     -30.065  -1.377  23.573  0.00  0.00    +0.229 C 
ATOM     29  O   UNL A   1     -30.729  -1.878  24.721  0.00  0.00    -0.216 OA
ENDBRANCH  27  28
ENDBRANCH  26  27
ENDBRANCH  19  26
ENDBRANCH  14  15
BRANCH  14  33
ATOM     30  N   UNL A   1     -21.341   1.039  28.098  0.00  0.00    -0.244 NA
ATOM     31  C   UNL A   1     -21.610   2.039  27.258  0.00  0.00    +0.194 C 
ATOM     32  C   UNL A   1     -22.543   0.636  28.466  0.00  0.00    +0.168 C 
ATOM     33  C   UNL A   1     -23.432   1.373  27.602  0.00  0.00    +0.065 C 
ATOM     34  N   UNL A   1     -22.859   2.215  26.879  0.00  0.00    -0.231 NA
ENDBRANCH  14  33
ENDBRANCH   1  14
BRANCH   1  35
ATOM     35  N   UNL A   1     -26.593  -0.343  28.515  0.00  0.00    -0.229 NA
BRANCH  35  41
ATOM     36  C   UNL A   1     -28.542   5.374  31.560  0.00  0.00    +0.089 C 
ATOM     37  C   UNL A   1     -28.022   4.215  29.456  0.00  0.00    +0.033 C 
ATOM     38  N   UNL A   1     -27.169   5.180  31.930  0.00  0.00    -0.213 NA
ATOM     39  C   UNL A   1     -29.206   4.843  30.275  0.00  0.00    +0.024 C 
ATOM     40  C   UNL A   1     -26.522   4.141  31.387  0.00  0.00    +0.118 C 
ATOM     41  C   UNL A   1     -27.643   0.565  29.208  0.00  0.00    +0.121 C 
ATOM     42  C   UNL A   1     -27.376   3.317  30.374  0.00  0.00    +0.009 C 
ATOM     43  C   UNL A   1     -27.592   1.810  29.835  0.00  0.00    -0.091 C 
ENDBRANCH  35  41
ENDBRANCH   1  35
TORSDOF 12
