MODEL 4317
MODEL 1
REMARK VINA RESULT:    -5.971      0.000      0.000
REMARK INTER + INTRA:          -6.507
REMARK INTER:                  -6.320
REMARK INTRA:                  -0.186
REMARK UNBOUND:                -0.186
REMARK  Name = No_4317-gen_results/8p0m/2024-11-27-11-27-31/
REMARK  1 active torsions:
REMARK  status: ('A' for Active; 'I' for Inactive)
REMARK    1  A    between atoms: C_5  and  C_11
REMARK                            x       y       z     vdW  Elec       q    Type
REMARK                         _______ _______ _______ _____ _____    ______ ____
ROOT
ATOM      1  C   UNL A   1     -28.574 -10.599  33.721  0.00  0.00    +0.021 A 
ATOM      2  C   UNL A   1     -28.789 -10.720  32.537  0.00  0.00    +0.003 A 
ATOM      3  C   UNL A   1     -28.257 -11.747  31.757  0.00  0.00    +0.019 A 
ATOM      4  C   UNL A   1     -28.456 -11.963  30.311  0.00  0.00    +0.005 A 
ATOM      5  C   UNL A   1     -29.457 -11.152  29.694  0.00  0.00    +0.071 A 
ATOM      6  C   UNL A   1     -30.050 -10.138  30.453  0.00  0.00    +0.004 A 
ATOM      7  C   UNL A   1     -29.770  -9.930  31.759  0.00  0.00    +0.000 A 
ATOM      8  C   UNL A   1     -27.295 -11.153  34.265  0.00  0.00    +0.099 A 
ATOM      9  N   UNL A   1     -26.836 -12.302  33.641  0.00  0.00    -0.242 NA
ATOM     10  C   UNL A   1     -27.138 -12.544  32.313  0.00  0.00    +0.099 A 
ENDROOT
BRANCH   5  11
ATOM     11  C   UNL A   1     -29.737 -11.398  28.255  0.00  0.00    +0.419 C 
ATOM     12  F   UNL A   1     -30.147 -10.431  27.608  0.00  0.00    -0.166 F 
ATOM     13  F   UNL A   1     -30.669 -12.305  28.158  0.00  0.00    -0.166 F 
ATOM     14  F   UNL A   1     -28.637 -11.925  27.654  0.00  0.00    -0.166 F 
ENDBRANCH   5  11
TORSDOF 1
ENDMDL
ENDMDL
