REMARK  Name = No_4318-gen_results/8p0m/2024-11-27-11-27-31/
REMARK  2 active torsions:
REMARK  status: ('A' for Active; 'I' for Inactive)
REMARK    1  A    between atoms: C_2  and  N_7
REMARK    2  A    between atoms: C_8  and  C_9
REMARK                            x       y       z     vdW  Elec       q    Type
REMARK                         _______ _______ _______ _____ _____    ______ ____
ROOT
ATOM      1  N   UNL A   1     -29.977  -0.829  29.850  0.00  0.00    -0.172 NA
ATOM      2  C   UNL A   1     -30.579  -0.123  28.982  0.00  0.00    +0.323 C 
ATOM      3  O   UNL A   1     -29.994   0.684  28.212  0.00  0.00    -0.263 OA
ENDROOT
BRANCH   2   4
ATOM      4  C   UNL A   1     -31.866  -0.675  28.485  0.00  0.00    +0.305 C 
ATOM      5  N   UNL A   1     -32.106  -0.882  27.347  0.00  0.00    -0.274 N 
ATOM      6  C   UNL A   1     -31.510  -0.415  26.300  0.00  0.00    +0.094 C 
ATOM      7  C   UNL A   1     -31.342  -1.253  25.125  0.00  0.00    +0.022 C 
ATOM      8  C   UNL A   1     -33.056  -1.912  26.913  0.00  0.00    +0.076 C 
ATOM      9  C   UNL A   1     -33.843  -2.556  28.011  0.00  0.00    +0.021 C 
ATOM     10  C   UNL A   1     -33.083  -2.438  25.667  0.00  0.00    +0.020 C 
ATOM     11  C   UNL A   1     -32.362  -2.003  24.663  0.00  0.00    +0.004 C 
ATOM     12  O   UNL A   1     -32.619  -0.815  29.549  0.00  0.00    -0.265 OA
ENDBRANCH   2   4
BRANCH   1  14
ATOM     13  C   UNL A   1     -28.016  -0.814  28.878  0.00  0.00    +0.017 A 
ATOM     14  C   UNL A   1     -28.469  -0.785  29.829  0.00  0.00    +0.074 A 
ATOM     15  C   UNL A   1     -26.504  -0.778  28.877  0.00  0.00    +0.001 A 
ATOM     16  C   UNL A   1     -25.810  -0.853  30.103  0.00  0.00    +0.000 A 
ATOM     17  C   UNL A   1     -27.991  -0.892  31.226  0.00  0.00    +0.017 A 
ATOM     18  C   UNL A   1     -26.604  -0.868  31.265  0.00  0.00    +0.001 A 
ENDBRANCH   1  14
TORSDOF 2
