MODEL 4318
MODEL 1
REMARK VINA RESULT:    -6.300      0.000      0.000
REMARK INTER + INTRA:          -7.022
REMARK INTER:                  -7.037
REMARK INTRA:                   0.015
REMARK UNBOUND:                 0.015
REMARK  Name = No_4318-gen_results/8p0m/2024-11-27-11-27-31/
REMARK  2 active torsions:
REMARK  status: ('A' for Active; 'I' for Inactive)
REMARK    1  A    between atoms: C_2  and  N_7
REMARK    2  A    between atoms: C_8  and  C_9
REMARK                            x       y       z     vdW  Elec       q    Type
REMARK                         _______ _______ _______ _____ _____    ______ ____
ROOT
ATOM      1  N   UNL A   1     -25.869  -1.262  29.365  0.00  0.00    -0.172 NA
ATOM      2  C   UNL A   1     -25.312  -0.548  30.256  0.00  0.00    +0.323 C 
ATOM      3  O   UNL A   1     -24.488  -0.998  31.095  0.00  0.00    -0.263 OA
ENDROOT
BRANCH   2   4
ATOM      4  C   UNL A   1     -25.187   0.897  29.936  0.00  0.00    +0.305 C 
ATOM      5  N   UNL A   1     -24.492   1.333  29.086  0.00  0.00    -0.274 N 
ATOM      6  C   UNL A   1     -23.494   0.766  28.492  0.00  0.00    +0.094 C 
ATOM      7  C   UNL A   1     -23.257   1.007  27.079  0.00  0.00    +0.022 C 
ATOM      8  C   UNL A   1     -24.783   2.593  28.394  0.00  0.00    +0.076 C 
ATOM      9  C   UNL A   1     -25.917   3.386  28.963  0.00  0.00    +0.021 C 
ATOM     10  C   UNL A   1     -24.256   2.935  27.196  0.00  0.00    +0.020 C 
ATOM     11  C   UNL A   1     -23.326   2.254  26.573  0.00  0.00    +0.004 C 
ATOM     12  O   UNL A   1     -25.953   1.514  30.804  0.00  0.00    -0.265 OA
ENDBRANCH   2   4
BRANCH   1  14
ATOM     13  C   UNL A   1     -24.491  -2.824  28.692  0.00  0.00    +0.017 A 
ATOM     14  C   UNL A   1     -25.382  -2.685  29.237  0.00  0.00    +0.074 A 
ATOM     15  C   UNL A   1     -24.023  -4.257  28.567  0.00  0.00    +0.001 A 
ATOM     16  C   UNL A   1     -24.849  -5.298  29.042  0.00  0.00    +0.000 A 
ATOM     17  C   UNL A   1     -26.427  -3.575  29.791  0.00  0.00    +0.017 A 
ATOM     18  C   UNL A   1     -26.035  -4.902  29.689  0.00  0.00    +0.001 A 
ENDBRANCH   1  14
TORSDOF 2
ENDMDL
ENDMDL
