REMARK  Name = outputs/IAG933/test6/raw/output_4319_IAG933_linker_design_.xyz
REMARK  14 active torsions:
REMARK  status: ('A' for Active; 'I' for Inactive)
REMARK    1  A    between atoms: C_1  and  C_2
REMARK    2  A    between atoms: C_1  and  C_8
REMARK    3  A    between atoms: C_9  and  C_37
REMARK    4  A    between atoms: C_13  and  C_30
REMARK    5  A    between atoms: C_14  and  C_15
REMARK    6  A    between atoms: C_21  and  O_22
REMARK    7  A    between atoms: O_22  and  C_23
REMARK    8  A    between atoms: C_23  and  C_24
REMARK    9  A    between atoms: C_29  and  C_34
REMARK   10  A    between atoms: C_29  and  C_37
REMARK   11  A    between atoms: C_30  and  N_31
REMARK   12  A    between atoms: C_30  and  C_43
REMARK   13  A    between atoms: C_37  and  C_39
REMARK   14  A    between atoms: C_38  and  C_43
REMARK                            x       y       z     vdW  Elec       q    Type
REMARK                         _______ _______ _______ _____ _____    ______ ____
ROOT
ATOM      1  N   UNL A   1     -25.025   1.498  28.809  0.00  0.00    -0.206 NA
ATOM      2  C   UNL A   1     -24.754   2.068  30.075  0.00  0.00    +0.241 C 
ATOM      3  O   UNL A   1     -23.769   2.579  30.490  0.00  0.00    -0.273 OA
ENDROOT
BRANCH   1   4
ATOM      4  C   UNL A   1     -24.662   1.336  27.481  0.00  0.00    +0.118 C 
BRANCH   4   5
ATOM      5  C   UNL A   1     -25.688   1.614  26.461  0.00  0.00    +0.091 C 
ATOM      6  C   UNL A   1     -26.250   2.920  26.395  0.00  0.00    +0.057 C 
ATOM      7  C   UNL A   1     -27.438   3.091  25.645  0.00  0.00    +0.102 C 
ATOM      8  N   UNL A   1     -28.075   2.089  25.003  0.00  0.00    -0.212 NA
ATOM      9  C   UNL A   1     -27.543   0.849  25.079  0.00  0.00    +0.234 C 
ATOM     10  C   UNL A   1     -26.354   0.576  25.777  0.00  0.00    +0.242 C 
ATOM     11  F   UNL A   1     -25.860  -0.681  25.795  0.00  0.00    -0.227 F 
BRANCH   6  12
ATOM     12  C   UNL A   1     -25.642   4.093  27.123  0.00  0.00    +0.263 C 
ATOM     13  N   UNL A   1     -25.614   5.252  26.449  0.00  0.00    -0.200 NA
ATOM     14  C   UNL A   1     -25.026   6.479  26.963  0.00  0.00    +0.139 C 
ATOM     15  O   UNL A   1     -25.143   3.966  28.243  0.00  0.00    -0.269 OA
ENDBRANCH   6  12
BRANCH   9  16
ATOM     16  O   UNL A   1     -28.193  -0.208  24.477  0.00  0.00    -0.459 OA
BRANCH  16  17
ATOM     17  C   UNL A   1     -29.460   0.005  23.866  0.00  0.00    +0.242 C 
BRANCH  17  18
ATOM     18  C   UNL A   1     -30.065  -1.377  23.573  0.00  0.00    +0.229 C 
ATOM     19  O   UNL A   1     -30.729  -1.878  24.721  0.00  0.00    -0.216 OA
ENDBRANCH  17  18
ENDBRANCH  16  17
ENDBRANCH   9  16
ENDBRANCH   4   5
BRANCH   4  20
ATOM     20  C   UNL A   1     -23.493   0.722  27.144  0.00  0.00    +0.127 C 
BRANCH  20  22
ATOM     21  N   UNL A   1     -21.363   1.815  27.726  0.00  0.00    -0.196 NA
ATOM     22  C   UNL A   1     -22.347   1.323  27.453  0.00  0.00    +0.075 C 
ENDBRANCH  20  22
ENDBRANCH   4  20
ENDBRANCH   1   4
BRANCH   2  23
ATOM     23  C   UNL A   1     -25.886   1.760  31.093  0.00  0.00    +0.084 C 
BRANCH  23  25
ATOM     24  C   UNL A   1     -25.387  -0.679  31.571  0.00  0.00    +0.078 C 
ATOM     25  C   UNL A   1     -25.189   0.773  32.028  0.00  0.00    +0.027 C 
ATOM     26  C   UNL A   1     -25.336   0.684  33.544  0.00  0.00    +0.021 C 
ATOM     27  C   UNL A   1     -24.829  -0.715  33.905  0.00  0.00    +0.089 C 
ATOM     28  N   UNL A   1     -24.758  -1.481  32.646  0.00  0.00    -0.219 NA
BRANCH  24  29
ATOM     29  C   UNL A   1     -24.855  -1.012  30.143  0.00  0.00    +0.044 C 
BRANCH  29  30
ATOM     30  C   UNL A   1     -24.973  -2.505  29.788  0.00  0.00    -0.021 C 
ATOM     31  C   UNL A   1     -23.906  -3.173  29.146  0.00  0.00    -0.004 C 
ATOM     32  C   UNL A   1     -23.989  -4.549  28.853  0.00  0.00    -0.000 C 
ATOM     33  C   UNL A   1     -25.137  -5.280  29.205  0.00  0.00    -0.000 C 
ATOM     34  C   UNL A   1     -26.232  -4.611  29.784  0.00  0.00    -0.000 C 
ATOM     35  C   UNL A   1     -26.155  -3.232  30.065  0.00  0.00    -0.004 C 
ENDBRANCH  29  30
ENDBRANCH  24  29
ENDBRANCH  23  25
BRANCH  23  36
ATOM     36  C   UNL A   1     -26.581   3.042  31.735  0.00  0.00    +0.035 C 
BRANCH  36  39
ATOM     37  C   UNL A   1     -25.098   6.578  31.981  0.00  0.00    +0.042 C 
ATOM     38  C   UNL A   1     -25.457   6.954  33.294  0.00  0.00    +0.196 C 
ATOM     39  C   UNL A   1     -25.952   4.330  32.364  0.00  0.00    -0.021 C 
ATOM     40  C   UNL A   1     -25.953   6.022  34.208  0.00  0.00    +0.042 C 
ATOM     41  C   UNL A   1     -25.345   5.280  31.510  0.00  0.00    -0.001 C 
ATOM     42  C   UNL A   1     -26.189   4.692  33.721  0.00  0.00    -0.001 C 
ATOM     43  O   UNL A   1     -25.375   8.230  33.656  0.00  0.00    -0.287 OA
ENDBRANCH  36  39
ENDBRANCH  23  36
ENDBRANCH   2  23
TORSDOF 14
