MODEL 4319
MODEL 1
REMARK VINA RESULT:    -6.460      0.000      0.000
REMARK INTER + INTRA:          -6.460
REMARK INTER:                  -6.460
REMARK INTRA:                   0.000
REMARK UNBOUND:                 0.000
REMARK  Name = No_4319-gen_results/8p0m/2024-11-27-11-27-31/
REMARK  0 active torsions:
REMARK  status: ('A' for Active; 'I' for Inactive)
REMARK                            x       y       z     vdW  Elec       q    Type
REMARK                         _______ _______ _______ _____ _____    ______ ____
ROOT
ATOM      1  C   UNL A   1     -27.306  -4.778  30.006  0.00  0.00    +0.014 A 
ATOM      2  C   UNL A   1     -26.368  -4.082  29.692  0.00  0.00    +0.028 A 
ATOM      3  C   UNL A   1     -26.302  -2.748  30.081  0.00  0.00    +0.002 A 
ATOM      4  C   UNL A   1     -25.210  -1.788  29.751  0.00  0.00    +0.000 A 
ATOM      5  C   UNL A   1     -25.169  -0.406  30.146  0.00  0.00    +0.000 A 
ATOM      6  C   UNL A   1     -28.488  -4.180  30.646  0.00  0.00    +0.058 A 
ATOM      7  C   UNL A   1     -28.492  -2.905  31.130  0.00  0.00    +0.011 A 
ATOM      8  C   UNL A   1     -27.363  -2.115  30.858  0.00  0.00    +0.001 A 
ATOM      9  C   UNL A   1     -24.090   0.345  29.775  0.00  0.00    +0.000 A 
ATOM     10  C   UNL A   1     -22.899  -0.093  29.293  0.00  0.00    +0.000 A 
ATOM     11  C   UNL A   1     -23.960  -2.270  29.184  0.00  0.00    +0.002 A 
ATOM     12  C   UNL A   1     -23.853  -3.644  28.895  0.00  0.00    +0.030 A 
ATOM     13  C   UNL A   1     -22.817  -1.433  28.976  0.00  0.00    +0.000 A 
ATOM     14  C   UNL A   1     -25.077  -4.567  29.067  0.00  0.00    +0.140 A 
ATOM     15  F   UNL A   1     -24.992  -5.800  28.843  0.00  0.00    -0.204 F 
ATOM     16 CL   UNL A   1     -29.828  -5.216  30.946  0.00  0.00    -0.082 Cl
ENDROOT
TORSDOF 0
ENDMDL
ENDMDL
