MODEL 4320
MODEL 1
REMARK VINA RESULT:    -4.979      0.000      0.000
REMARK INTER + INTRA:          -4.979
REMARK INTER:                  -4.979
REMARK INTRA:                   0.000
REMARK UNBOUND:                 0.000
REMARK  Name = No_4320-gen_results/8p0m/2024-11-27-11-27-31/
REMARK  0 active torsions:
REMARK  status: ('A' for Active; 'I' for Inactive)
REMARK                            x       y       z     vdW  Elec       q    Type
REMARK                         _______ _______ _______ _____ _____    ______ ____
ROOT
ATOM      1  C   UNL A   1     -10.152 -10.220  18.070  0.00  0.00    +0.196 A 
ATOM      2  C   UNL A   1     -10.360  -9.405  18.939  0.00  0.00    +0.042 A 
ATOM      3  C   UNL A   1      -9.478  -9.145  19.970  0.00  0.00    +0.003 A 
ATOM      4  C   UNL A   1      -8.242  -9.849  19.984  0.00  0.00    +0.000 A 
ATOM      5  C   UNL A   1      -7.984 -10.621  18.903  0.00  0.00    +0.003 A 
ATOM      6  C   UNL A   1      -8.872 -10.780  17.940  0.00  0.00    +0.042 A 
ATOM      7  O   UNL A   1     -11.062 -10.404  17.036  0.00  0.00    -0.287 OA
ENDROOT
TORSDOF 0
ENDMDL
ENDMDL
