MODEL 4321
MODEL 1
REMARK VINA RESULT:    -5.072      0.000      0.000
REMARK INTER + INTRA:          -5.467
REMARK INTER:                  -5.369
REMARK INTRA:                  -0.098
REMARK UNBOUND:                -0.098
REMARK  Name = No_4321-gen_results/8p0m/2024-11-27-11-27-31/
REMARK  1 active torsions:
REMARK  status: ('A' for Active; 'I' for Inactive)
REMARK    1  A    between atoms: C_1  and  C_3
REMARK                            x       y       z     vdW  Elec       q    Type
REMARK                         _______ _______ _______ _____ _____    ______ ____
ROOT
ATOM      1  C   UNL A   1      -9.541  -9.907  18.396  0.00  0.00    +0.050 A 
ATOM      2  C   UNL A   1     -10.259  -9.477  19.036  0.00  0.00    +0.004 A 
ATOM      3  C   UNL A   1      -9.883  -9.044  20.426  0.00  0.00    +0.000 A 
ATOM      4  C   UNL A   1      -8.565  -9.318  20.737  0.00  0.00    +0.000 A 
ATOM      5  C   UNL A   1      -7.812 -10.096  19.929  0.00  0.00    +0.000 A 
ATOM      6  C   UNL A   1      -8.285 -10.471  18.722  0.00  0.00    +0.004 A 
ENDROOT
BRANCH   1   7
ATOM      7  C   UNL A   1     -10.068 -10.399  17.066  0.00  0.00    +0.254 C 
ATOM      8 CL   UNL A   1      -9.411 -10.789  16.077  0.00  0.00    -0.038 Cl
ATOM      9  O   UNL A   1     -11.478 -10.513  16.985  0.00  0.00    -0.274 OA
ENDBRANCH   1   7
TORSDOF 1
ENDMDL
ENDMDL
