MODEL 4322
MODEL 1
REMARK VINA RESULT:    -6.608      0.000      0.000
REMARK INTER + INTRA:          -7.681
REMARK INTER:                  -7.381
REMARK INTRA:                  -0.300
REMARK UNBOUND:                -0.300
REMARK  Name = No_4322-gen_results/8p0m/2024-11-27-11-27-31/
REMARK  2 active torsions:
REMARK  status: ('A' for Active; 'I' for Inactive)
REMARK    1  A    between atoms: C_2  and  C_5
REMARK    2  A    between atoms: C_13  and  C_15
REMARK                            x       y       z     vdW  Elec       q    Type
REMARK                         _______ _______ _______ _____ _____    ______ ____
ROOT
ATOM      1  C   UNL A   1     -27.991 -11.979  31.649  0.00  0.00    +0.007 A 
ATOM      2  C   UNL A   1     -28.101 -11.439  32.548  0.00  0.00    +0.080 A 
ATOM      3  C   UNL A   1     -28.917 -11.560  30.597  0.00  0.00    +0.001 A 
ATOM      4  C   UNL A   1     -29.820 -10.542  30.782  0.00  0.00    +0.009 A 
ATOM      5  C   UNL A   1     -29.822  -9.898  32.034  0.00  0.00    +0.001 A 
ATOM      6  C   UNL A   1     -28.891 -10.292  32.997  0.00  0.00    +0.007 A 
ATOM      7  C   UNL A   1     -28.926 -12.189  29.221  0.00  0.00    +0.003 A 
ATOM      8  C   UNL A   1     -29.418 -11.629  28.194  0.00  0.00    +0.042 A 
ATOM      9  C   UNL A   1     -30.352 -10.522  28.414  0.00  0.00    +0.202 A 
ATOM     10  C   UNL A   1     -30.456  -9.910  29.617  0.00  0.00    +0.119 A 
ATOM     11  O   UNL A   1     -30.966 -10.058  27.245  0.00  0.00    -0.286 OA
ENDROOT
BRANCH   2  12
ATOM     12  C   UNL A   1     -27.126 -11.794  33.710  0.00  0.00    +0.388 C 
ATOM     13  O   UNL A   1     -26.755 -12.731  33.698  0.00  0.00    -0.241 OA
ATOM     14  O   UNL A   1     -26.842 -10.801  34.583  0.00  0.00    -0.241 OA
ENDBRANCH   2  12
BRANCH  10  15
ATOM     15  C   UNL A   1     -31.368  -8.743  29.768  0.00  0.00    +0.391 C 
ATOM     16  O   UNL A   1     -31.101  -7.618  29.626  0.00  0.00    -0.240 OA
ATOM     17  O   UNL A   1     -32.663  -9.164  30.039  0.00  0.00    -0.240 OA
ENDBRANCH  10  15
TORSDOF 2
ENDMDL
ENDMDL
