REMARK  Name = No_4322-gen_results/8p0m/2024-11-27-11-27-31/
REMARK  2 active torsions:
REMARK  status: ('A' for Active; 'I' for Inactive)
REMARK    1  A    between atoms: C_2  and  C_5
REMARK    2  A    between atoms: C_13  and  C_15
REMARK                            x       y       z     vdW  Elec       q    Type
REMARK                         _______ _______ _______ _____ _____    ______ ____
ROOT
ATOM      1  C   UNL A   1     -28.016  -0.814  28.878  0.00  0.00    +0.007 A 
ATOM      2  C   UNL A   1     -28.469  -0.785  29.829  0.00  0.00    +0.080 A 
ATOM      3  C   UNL A   1     -27.087   0.290  28.638  0.00  0.00    +0.001 A 
ATOM      4  C   UNL A   1     -26.832   1.249  29.587  0.00  0.00    +0.009 A 
ATOM      5  C   UNL A   1     -27.496   1.130  30.822  0.00  0.00    +0.001 A 
ATOM      6  C   UNL A   1     -28.338   0.036  31.033  0.00  0.00    +0.007 A 
ATOM      7  C   UNL A   1     -26.315   0.440  27.345  0.00  0.00    +0.003 A 
ATOM      8  C   UNL A   1     -25.253   1.126  27.234  0.00  0.00    +0.042 A 
ATOM      9  C   UNL A   1     -24.982   2.118  28.277  0.00  0.00    +0.202 A 
ATOM     10  C   UNL A   1     -25.643   2.104  29.459  0.00  0.00    +0.119 A 
ATOM     11  O   UNL A   1     -23.879   2.937  28.008  0.00  0.00    -0.286 OA
ENDROOT
BRANCH   2  12
ATOM     12  C   UNL A   1     -29.444  -1.948  30.184  0.00  0.00    +0.388 C 
ATOM     13  O   UNL A   1     -30.393  -1.834  29.864  0.00  0.00    -0.241 OA
ATOM     14  O   UNL A   1     -28.910  -3.004  30.838  0.00  0.00    -0.241 OA
ENDBRANCH   2  12
BRANCH  10  15
ATOM     15  C   UNL A   1     -25.278   3.090  30.513  0.00  0.00    +0.391 C 
ATOM     16  O   UNL A   1     -25.437   4.244  30.484  0.00  0.00    -0.240 OA
ATOM     17  O   UNL A   1     -24.765   2.445  31.631  0.00  0.00    -0.240 OA
ENDBRANCH  10  15
TORSDOF 2
