MODEL 4323
MODEL 1
REMARK VINA RESULT:    -5.250      0.000      0.000
REMARK INTER + INTRA:          -6.143
REMARK INTER:                  -5.864
REMARK INTRA:                  -0.279
REMARK UNBOUND:                -0.279
REMARK  Name = No_4323-gen_results/8p0m/2024-11-27-11-27-31/
REMARK  2 active torsions:
REMARK  status: ('A' for Active; 'I' for Inactive)
REMARK    1  A    between atoms: C_2  and  C_7
REMARK    2  A    between atoms: C_7  and  C_9
REMARK                            x       y       z     vdW  Elec       q    Type
REMARK                         _______ _______ _______ _____ _____    ______ ____
ROOT
ATOM      1  C   UNL A   1     -23.798  -3.448  28.820  0.00  0.00    -0.003 A 
ATOM      2  C   UNL A   1     -24.521  -2.860  29.313  0.00  0.00    +0.001 A 
ATOM      3  C   UNL A   1     -24.174  -4.897  28.607  0.00  0.00    -0.000 A 
ATOM      4  C   UNL A   1     -25.217  -5.309  29.051  0.00  0.00    -0.000 A 
ATOM      5  C   UNL A   1     -25.858  -3.115  29.855  0.00  0.00    -0.003 A 
ATOM      6  C   UNL A   1     -26.185  -4.455  29.707  0.00  0.00    -0.000 A 
ENDROOT
BRANCH   2   7
ATOM      7  C   UNL A   1     -24.211  -1.293  29.516  0.00  0.00    +0.180 C 
ATOM      8  N   UNL A   1     -24.423  -0.477  28.675  0.00  0.00    -0.122 NA
BRANCH   7   9
ATOM      9  C   UNL A   1     -23.481  -0.928  30.710  0.00  0.00    +0.340 C 
ATOM     10  F   UNL A   1     -23.434  -1.738  31.557  0.00  0.00    -0.196 F 
ATOM     11  F   UNL A   1     -22.229  -0.566  30.284  0.00  0.00    -0.196 F 
ENDBRANCH   7   9
ENDBRANCH   2   7
TORSDOF 2
ENDMDL
ENDMDL
