MODEL 4324
MODEL 1
REMARK VINA RESULT:    -5.907      0.000      0.000
REMARK INTER + INTRA:          -6.873
REMARK INTER:                  -6.597
REMARK INTRA:                  -0.275
REMARK UNBOUND:                -0.275
REMARK  Name = No_4324-gen_results/8p0m/2024-11-27-11-27-31/
REMARK  2 active torsions:
REMARK  status: ('A' for Active; 'I' for Inactive)
REMARK    1  A    between atoms: C_2  and  C_11
REMARK    2  A    between atoms: C_3  and  C_7
REMARK                            x       y       z     vdW  Elec       q    Type
REMARK                         _______ _______ _______ _____ _____    ______ ____
ROOT
ATOM      1  C   UNL A   1     -28.346 -11.867  31.126  0.00  0.00    +0.010 A 
ATOM      2  C   UNL A   1     -28.239 -11.542  32.123  0.00  0.00    +0.080 A 
ATOM      3  C   UNL A   1     -29.261 -11.174  30.302  0.00  0.00    +0.072 A 
ATOM      4  C   UNL A   1     -30.008 -10.112  30.772  0.00  0.00    +0.004 A 
ATOM      5  C   UNL A   1     -29.800  -9.747  32.092  0.00  0.00    +0.000 A 
ATOM      6  C   UNL A   1     -28.870 -10.429  32.848  0.00  0.00    +0.007 A 
ENDROOT
BRANCH   3   7
ATOM      7  C   UNL A   1     -29.494 -11.516  28.861  0.00  0.00    +0.419 C 
ATOM      8  F   UNL A   1     -28.456 -11.758  28.301  0.00  0.00    -0.166 F 
ATOM      9  F   UNL A   1     -30.277 -12.639  28.799  0.00  0.00    -0.166 F 
ATOM     10  F   UNL A   1     -30.104 -10.570  28.106  0.00  0.00    -0.166 F 
ENDBRANCH   3   7
BRANCH   2  11
ATOM     11  C   UNL A   1     -27.111 -12.209  33.077  0.00  0.00    +0.388 C 
ATOM     12  O   UNL A   1     -26.392 -13.051  32.583  0.00  0.00    -0.241 OA
ATOM     13  O   UNL A   1     -27.383 -12.320  34.310  0.00  0.00    -0.241 OA
ENDBRANCH   2  11
TORSDOF 2
ENDMDL
ENDMDL
