MODEL 4325
MODEL 1
REMARK VINA RESULT:    -6.550      0.000      0.000
REMARK INTER + INTRA:          -7.261
REMARK INTER:                  -6.932
REMARK INTRA:                  -0.328
REMARK UNBOUND:                -0.328
REMARK  Name = No_4325-gen_results/8p0m/2024-11-27-11-27-31/
REMARK  1 active torsions:
REMARK  status: ('A' for Active; 'I' for Inactive)
REMARK    1  A    between atoms: C_3  and  C_7
REMARK                            x       y       z     vdW  Elec       q    Type
REMARK                         _______ _______ _______ _____ _____    ______ ____
ROOT
ATOM      1  C   UNL A   1     -21.657  -0.040  28.910  0.00  0.00    +0.000 A 
ATOM      2  C   UNL A   1     -22.269  -1.027  29.247  0.00  0.00    +0.000 A 
ATOM      3  C   UNL A   1     -23.562  -1.318  28.814  0.00  0.00    +0.000 A 
ATOM      4  C   UNL A   1     -24.251  -0.371  27.959  0.00  0.00    +0.000 A 
ATOM      5  C   UNL A   1     -23.516   0.762  27.612  0.00  0.00    +0.000 A 
ATOM      6  C   UNL A   1     -22.299   0.964  28.077  0.00  0.00    +0.000 A 
ENDROOT
BRANCH   3   7
ATOM      7  C   UNL A   1     -24.374  -2.515  29.178  0.00  0.00    +0.000 A 
ATOM      8  C   UNL A   1     -25.626  -2.470  29.568  0.00  0.00    +0.000 A 
ATOM      9  C   UNL A   1     -26.354  -3.643  29.877  0.00  0.00    +0.000 A 
ATOM     10  C   UNL A   1     -25.847  -4.884  29.399  0.00  0.00    +0.000 A 
ATOM     11  C   UNL A   1     -23.918  -3.839  28.836  0.00  0.00    +0.000 A 
ATOM     12  C   UNL A   1     -24.627  -4.949  28.969  0.00  0.00    +0.000 A 
ENDBRANCH   3   7
TORSDOF 1
ENDMDL
ENDMDL
