REMARK  Name = outputs/IAG933/test6/raw/output_4326_IAG933_linker_design_.xyz
REMARK  10 active torsions:
REMARK  status: ('A' for Active; 'I' for Inactive)
REMARK    1  A    between atoms: C_1  and  C_2
REMARK    2  A    between atoms: C_1  and  C_8
REMARK    3  A    between atoms: C_1  and  N_36
REMARK    4  A    between atoms: C_13  and  C_37
REMARK    5  A    between atoms: C_14  and  C_15
REMARK    6  A    between atoms: C_21  and  O_22
REMARK    7  A    between atoms: O_22  and  C_23
REMARK    8  A    between atoms: C_23  and  C_24
REMARK    9  A    between atoms: C_28  and  N_36
REMARK   10  A    between atoms: N_36  and  C_38
REMARK                            x       y       z     vdW  Elec       q    Type
REMARK                         _______ _______ _______ _____ _____    ______ ____
ROOT
ATOM      1  C   UNL A   1     -24.020   0.843  28.259  0.00  0.00    +0.099 C 
ATOM      2  F   UNL A   1     -21.077   1.149  25.676  0.00  0.00    -0.229 F 
ATOM      3  F   UNL A   1     -23.019   2.575  25.545  0.00  0.00    -0.201 F 
ATOM      4  C   UNL A   1     -22.023   0.683  26.509  0.00  0.00    +0.251 C 
ATOM      5  O   UNL A   1     -22.297   0.144  29.746  0.00  0.00    -0.325 OA
ATOM      6  F   UNL A   1     -23.463   0.673  24.812  0.00  0.00    -0.201 F 
ATOM      7  O   UNL A   1     -20.515  -0.061  28.181  0.00  0.00    -0.324 OA
ATOM      8  C   UNL A   1     -24.357   1.350  26.970  0.00  0.00    +0.106 C 
ATOM      9  C   UNL A   1     -21.273  -0.684  29.170  0.00  0.00    +0.294 C 
ATOM     10  C   UNL A   1     -23.240   1.323  25.884  0.00  0.00    +0.301 C 
ATOM     11  C   UNL A   1     -22.673   1.132  28.782  0.00  0.00    +0.163 C 
ATOM     12  C   UNL A   1     -21.539   1.025  27.804  0.00  0.00    +0.184 C 
ENDROOT
BRANCH   8  13
ATOM     13  C   UNL A   1     -25.688   1.614  26.461  0.00  0.00    +0.022 C 
ATOM     14  C   UNL A   1     -26.250   2.920  26.395  0.00  0.00    +0.073 C 
ATOM     15  C   UNL A   1     -27.438   3.091  25.645  0.00  0.00    +0.106 C 
ATOM     16  N   UNL A   1     -28.075   2.089  25.003  0.00  0.00    -0.208 NA
ATOM     17  C   UNL A   1     -27.543   0.849  25.079  0.00  0.00    +0.253 C 
ATOM     18  C   UNL A   1     -26.354   0.576  25.777  0.00  0.00    +0.189 C 
ATOM     19  F   UNL A   1     -25.860  -0.681  25.795  0.00  0.00    -0.200 F 
BRANCH  14  20
ATOM     20  C   UNL A   1     -25.642   4.093  27.123  0.00  0.00    +0.266 C 
ATOM     21  N   UNL A   1     -25.614   5.252  26.449  0.00  0.00    -0.200 NA
ATOM     22  C   UNL A   1     -25.026   6.479  26.963  0.00  0.00    +0.139 C 
ATOM     23  O   UNL A   1     -25.143   3.966  28.243  0.00  0.00    -0.268 OA
ENDBRANCH  14  20
BRANCH  17  24
ATOM     24  O   UNL A   1     -28.193  -0.208  24.477  0.00  0.00    -0.456 OA
BRANCH  24  25
ATOM     25  C   UNL A   1     -29.460   0.005  23.866  0.00  0.00    +0.243 C 
BRANCH  25  26
ATOM     26  C   UNL A   1     -30.065  -1.377  23.573  0.00  0.00    +0.229 C 
ATOM     27  O   UNL A   1     -30.729  -1.878  24.721  0.00  0.00    -0.216 OA
ENDBRANCH  25  26
ENDBRANCH  24  25
ENDBRANCH  17  24
ENDBRANCH   8  13
BRANCH   1  28
ATOM     28  N   UNL A   1     -24.866   0.213  29.235  0.00  0.00    -0.240 NA
BRANCH  28  30
ATOM     29  O   UNL A   1     -26.767  -0.175  28.512  0.00  0.00    -0.201 OA
ATOM     30  C   UNL A   1     -26.151   0.738  29.066  0.00  0.00    +0.259 C 
ENDBRANCH  28  30
BRANCH  28  31
ATOM     31  C   UNL A   1     -24.855  -1.012  30.143  0.00  0.00    +0.098 C 
BRANCH  31  32
ATOM     32  C   UNL A   1     -24.973  -2.505  29.788  0.00  0.00    -0.006 C 
ATOM     33  C   UNL A   1     -23.906  -3.173  29.146  0.00  0.00    -0.003 C 
ATOM     34  C   UNL A   1     -23.989  -4.549  28.853  0.00  0.00    -0.000 C 
ATOM     35  C   UNL A   1     -25.137  -5.280  29.205  0.00  0.00    -0.000 C 
ATOM     36  C   UNL A   1     -26.232  -4.611  29.784  0.00  0.00    -0.000 C 
ATOM     37  C   UNL A   1     -26.155  -3.232  30.065  0.00  0.00    -0.003 C 
ENDBRANCH  31  32
BRANCH  31  38
ATOM     38  C   UNL A   1     -25.387  -0.679  31.571  0.00  0.00    +0.092 C 
ATOM     39  C   UNL A   1     -25.189   0.773  32.028  0.00  0.00    +0.021 C 
ATOM     40  C   UNL A   1     -25.336   0.684  33.544  0.00  0.00    +0.020 C 
ATOM     41  C   UNL A   1     -24.829  -0.715  33.905  0.00  0.00    +0.089 C 
ATOM     42  N   UNL A   1     -24.758  -1.481  32.646  0.00  0.00    -0.218 NA
ENDBRANCH  31  38
ENDBRANCH  28  31
ENDBRANCH   1  28
TORSDOF 10
