MODEL 4326
MODEL 1
REMARK VINA RESULT:    -5.489      0.000      0.000
REMARK INTER + INTRA:          -6.426
REMARK INTER:                  -6.130
REMARK INTRA:                  -0.295
REMARK UNBOUND:                -0.295
REMARK  Name = No_4326-gen_results/8p0m/2024-11-27-11-27-31/
REMARK  2 active torsions:
REMARK  status: ('A' for Active; 'I' for Inactive)
REMARK    1  A    between atoms: C_4  and  C_8
REMARK    2  A    between atoms: C_9  and  C_10
REMARK                            x       y       z     vdW  Elec       q    Type
REMARK                         _______ _______ _______ _____ _____    ______ ____
ROOT
ATOM      1  C   UNL A   1     -24.980   0.263  26.838  0.00  0.00    +0.004 C 
ATOM      2  C   UNL A   1     -24.704  -0.739  27.456  0.00  0.00    +0.022 C 
ATOM      3  C   UNL A   1     -23.655  -0.753  28.368  0.00  0.00    -0.044 C 
ATOM      4  C   UNL A   1     -23.336  -1.879  29.171  0.00  0.00    -0.009 C 
ATOM      5  C   UNL A   1     -24.072   1.412  26.858  0.00  0.00    +0.001 C 
ATOM      6  C   UNL A   1     -23.073   1.523  27.793  0.00  0.00    +0.004 C 
ATOM      7  C   UNL A   1     -22.817   0.404  28.589  0.00  0.00    +0.022 C 
ENDROOT
BRANCH   4   8
ATOM      8  C   UNL A   1     -24.124  -2.964  29.305  0.00  0.00    -0.001 C 
ATOM      9  C   UNL A   1     -24.157  -4.030  28.785  0.00  0.00    -0.000 C 
BRANCH   9  10
ATOM     10  C   UNL A   1     -25.089  -4.980  29.183  0.00  0.00    -0.000 C 
ATOM     11  C   UNL A   1     -26.312  -4.511  29.664  0.00  0.00    -0.000 C 
ENDBRANCH   9  10
ENDBRANCH   4   8
TORSDOF 2
ENDMDL
ENDMDL
