REMARK  Name = No_4328-gen_results/8p0m/2024-11-27-11-27-31/
REMARK  5 active torsions:
REMARK  status: ('A' for Active; 'I' for Inactive)
REMARK    1  A    between atoms: C_1  and  C_6
REMARK    2  A    between atoms: C_5  and  C_11
REMARK    3  A    between atoms: N_8  and  C_10
REMARK    4  A    between atoms: N_8  and  C_19
REMARK    5  A    between atoms: C_19  and  C_20
REMARK                            x       y       z     vdW  Elec       q    Type
REMARK                         _______ _______ _______ _____ _____    ______ ____
ROOT
ATOM      1  C   UNL A   1     -28.022  -1.590  30.088  0.00  0.00    +0.253 C 
ATOM      2  N   UNL A   1     -28.838  -1.898  30.766  0.00  0.00    -0.247 N 
ATOM      3  O   UNL A   1     -26.786  -1.948  30.547  0.00  0.00    -0.270 OA
ENDROOT
BRANCH   1   4
ATOM      4  C   UNL A   1     -28.016  -0.814  28.878  0.00  0.00    +0.054 A 
ATOM      5  C   UNL A   1     -27.064  -0.119  28.608  0.00  0.00    +0.004 A 
ATOM      6  C   UNL A   1     -26.972   0.714  27.506  0.00  0.00    +0.000 A 
ATOM      7  C   UNL A   1     -28.105   0.774  26.642  0.00  0.00    +0.007 A 
ATOM      8  C   UNL A   1     -29.201   0.104  27.053  0.00  0.00    +0.080 A 
ATOM      9  C   UNL A   1     -29.164  -0.639  28.148  0.00  0.00    +0.011 A 
BRANCH   8  10
ATOM     10  C   UNL A   1     -30.381   0.212  26.163  0.00  0.00    +0.388 C 
ATOM     11  O   UNL A   1     -31.296  -0.359  26.356  0.00  0.00    -0.241 OA
ATOM     12  O   UNL A   1     -30.186   0.728  24.937  0.00  0.00    -0.241 OA
ENDBRANCH   8  10
ENDBRANCH   1   4
BRANCH   2  13
ATOM     13  C   UNL A   1     -30.251  -1.552  30.515  0.00  0.00    +0.054 A 
ATOM     14  C   UNL A   1     -30.822  -0.707  31.293  0.00  0.00    +0.015 A 
ATOM     15  C   UNL A   1     -32.112  -0.147  31.006  0.00  0.00    +0.001 A 
ATOM     16  C   UNL A   1     -32.809  -0.740  29.935  0.00  0.00    +0.000 A 
ATOM     17  C   UNL A   1     -32.259  -1.756  29.220  0.00  0.00    +0.001 A 
ATOM     18  C   UNL A   1     -30.955  -2.109  29.477  0.00  0.00    +0.015 A 
ENDBRANCH   2  13
BRANCH   2  19
ATOM     19  C   UNL A   1     -28.882  -2.778  31.990  0.00  0.00    +0.202 C 
BRANCH  19  20
ATOM     20  C   UNL A   1     -29.112  -2.134  33.213  0.00  0.00    +0.416 C 
ATOM     21  F   UNL A   1     -28.325  -2.583  34.132  0.00  0.00    -0.168 F 
ATOM     22  F   UNL A   1     -29.010  -0.790  33.139  0.00  0.00    -0.168 F 
ATOM     23  F   UNL A   1     -30.417  -2.426  33.583  0.00  0.00    -0.168 F 
ENDBRANCH  19  20
ENDBRANCH   2  19
TORSDOF 5
