MODEL 4328
MODEL 1
REMARK VINA RESULT:    -6.886      0.000      0.000
REMARK INTER + INTRA:          -9.681
REMARK INTER:                  -8.899
REMARK INTRA:                  -0.782
REMARK UNBOUND:                -0.782
REMARK  Name = No_4328-gen_results/8p0m/2024-11-27-11-27-31/
REMARK  5 active torsions:
REMARK  status: ('A' for Active; 'I' for Inactive)
REMARK    1  A    between atoms: C_1  and  C_6
REMARK    2  A    between atoms: C_5  and  C_11
REMARK    3  A    between atoms: N_8  and  C_10
REMARK    4  A    between atoms: N_8  and  C_19
REMARK    5  A    between atoms: C_19  and  C_20
REMARK                            x       y       z     vdW  Elec       q    Type
REMARK                         _______ _______ _______ _____ _____    ______ ____
ROOT
ATOM      1  C   UNL A   1     -24.250  -0.182  28.540  0.00  0.00    +0.253 C 
ATOM      2  N   UNL A   1     -23.958  -0.985  29.239  0.00  0.00    -0.247 N 
ATOM      3  O   UNL A   1     -23.647   1.012  28.819  0.00  0.00    -0.270 OA
ENDROOT
BRANCH   1   4
ATOM      4  C   UNL A   1     -25.203  -0.140  27.464  0.00  0.00    +0.054 A 
ATOM      5  C   UNL A   1     -24.831  -0.263  26.320  0.00  0.00    +0.004 A 
ATOM      6  C   UNL A   1     -25.646  -0.179  25.204  0.00  0.00    +0.000 A 
ATOM      7  C   UNL A   1     -27.026   0.103  25.428  0.00  0.00    +0.007 A 
ATOM      8  C   UNL A   1     -27.376   0.381  26.700  0.00  0.00    +0.080 A 
ATOM      9  C   UNL A   1     -26.487   0.291  27.677  0.00  0.00    +0.011 A 
BRANCH   8  10
ATOM     10  C   UNL A   1     -28.806   0.712  26.907  0.00  0.00    +0.388 C 
ATOM     11  O   UNL A   1     -29.511  -0.026  27.305  0.00  0.00    -0.241 OA
ATOM     12  O   UNL A   1     -29.289   1.792  26.268  0.00  0.00    -0.241 OA
ENDBRANCH   8  10
ENDBRANCH   1   4
BRANCH   2  13
ATOM     13  C   UNL A   1     -24.542  -2.340  29.180  0.00  0.00    +0.054 A 
ATOM     14  C   UNL A   1     -23.859  -3.277  28.631  0.00  0.00    +0.015 A 
ATOM     15  C   UNL A   1     -24.241  -4.658  28.716  0.00  0.00    +0.001 A 
ATOM     16  C   UNL A   1     -25.521  -4.904  29.250  0.00  0.00    +0.000 A 
ATOM     17  C   UNL A   1     -26.310  -3.882  29.675  0.00  0.00    +0.001 A 
ATOM     18  C   UNL A   1     -25.784  -2.612  29.696  0.00  0.00    +0.015 A 
ENDBRANCH   2  13
BRANCH   2  19
ATOM     19  C   UNL A   1     -22.907  -1.080  30.317  0.00  0.00    +0.202 C 
BRANCH  19  20
ATOM     20  C   UNL A   1     -23.314  -0.749  31.616  0.00  0.00    +0.416 C 
ATOM     21  F   UNL A   1     -23.544   0.516  31.725  0.00  0.00    -0.168 F 
ATOM     22  F   UNL A   1     -24.391  -1.448  32.035  0.00  0.00    -0.168 F 
ATOM     23  F   UNL A   1     -22.263  -1.070  32.462  0.00  0.00    -0.168 F 
ENDBRANCH  19  20
ENDBRANCH   2  19
TORSDOF 5
ENDMDL
ENDMDL
