MODEL 4329
MODEL 1
REMARK VINA RESULT:    -4.874      0.000      0.000
REMARK INTER + INTRA:          -5.158
REMARK INTER:                  -5.158
REMARK INTRA:                   0.000
REMARK UNBOUND:                 0.000
REMARK  Name = No_4329-gen_results/8p0m/2024-11-27-11-27-31/
REMARK  1 active torsions:
REMARK  status: ('A' for Active; 'I' for Inactive)
REMARK    1  A    between atoms: C_2  and  C_4
REMARK                            x       y       z     vdW  Elec       q    Type
REMARK                         _______ _______ _______ _____ _____    ______ ____
ROOT
ATOM      1  F   UNL A   1     -10.216  -9.895  18.572  0.00  0.00    -0.163 F 
ATOM      2  C   UNL A   1      -8.989  -9.754  18.495  0.00  0.00    +0.488 C 
ATOM      3  F   UNL A   1      -8.469  -9.201  17.718  0.00  0.00    -0.163 F 
ATOM      4  F   UNL A   1      -8.523 -11.065  18.239  0.00  0.00    -0.163 F 
ENDROOT
BRANCH   2   5
ATOM      5  C   UNL A   1      -8.502  -9.317  19.917  0.00  0.00    +0.488 C 
ATOM      6  F   UNL A   1      -8.074  -8.296  19.898  0.00  0.00    -0.163 F 
ATOM      7  F   UNL A   1      -9.691  -9.334  20.766  0.00  0.00    -0.163 F 
ATOM      8  F   UNL A   1      -7.741 -10.305  20.344  0.00  0.00    -0.163 F 
ENDBRANCH   2   5
TORSDOF 1
ENDMDL
ENDMDL
