MODEL 432
MODEL 1
REMARK VINA RESULT:    -7.646      0.000      0.000
REMARK INTER + INTRA:         -11.742
REMARK INTER:                 -10.774
REMARK INTRA:                  -0.968
REMARK UNBOUND:                -0.968
REMARK  Name = No_432-gen_results/8p0m/2024-11-27-11-27-31/
REMARK  7 active torsions:
REMARK  status: ('A' for Active; 'I' for Inactive)
REMARK    1  A    between atoms: C_3  and  O_9
REMARK    2  A    between atoms: O_9  and  C_10
REMARK    3  A    between atoms: C_10  and  C_11
REMARK    4  A    between atoms: C_13  and  C_17
REMARK    5  A    between atoms: C_17  and  O_19
REMARK    6  A    between atoms: O_19  and  C_22
REMARK    7  A    between atoms: C_27  and  C_28
REMARK                            x       y       z     vdW  Elec       q    Type
REMARK                         _______ _______ _______ _____ _____    ______ ____
ROOT
ATOM      1  C   UNL A   1     -24.613   0.748  26.388  0.00  0.00    +0.076 A 
ATOM      2  C   UNL A   1     -24.311  -0.164  27.124  0.00  0.00    +0.013 A 
ATOM      3  C   UNL A   1     -23.265  -0.032  28.128  0.00  0.00    +0.076 A 
ATOM      4  C   UNL A   1     -22.664   1.227  28.210  0.00  0.00    +0.006 A 
ATOM      5  C   UNL A   1     -23.977   1.991  26.592  0.00  0.00    +0.006 A 
ATOM      6  C   UNL A   1     -23.022   2.262  27.428  0.00  0.00    +0.000 A 
ENDROOT
BRANCH   1   7
ATOM      7  C   UNL A   1     -25.589   0.652  25.364  0.00  0.00    +0.346 C 
ATOM      8  O   UNL A   1     -25.658  -0.107  24.442  0.00  0.00    -0.244 OA
BRANCH   7   9
ATOM      9  O   UNL A   1     -26.455   1.734  25.376  0.00  0.00    -0.419 OA
BRANCH   9  12
ATOM     10  F   UNL A   1     -27.930   1.774  23.200  0.00  0.00    -0.200 F 
ATOM     11  C   UNL A   1     -28.504   1.666  24.185  0.00  0.00    +0.185 A 
ATOM     12  C   UNL A   1     -27.777   1.482  25.285  0.00  0.00    +0.178 A 
ATOM     13  C   UNL A   1     -28.282   0.894  26.487  0.00  0.00    +0.051 A 
ATOM     14  C   UNL A   1     -29.716   0.623  26.533  0.00  0.00    +0.062 A 
ATOM     15  C   UNL A   1     -30.429   0.790  25.351  0.00  0.00    +0.025 A 
ATOM     16  C   UNL A   1     -29.871   1.163  24.250  0.00  0.00    +0.089 A 
ATOM     17 CL   UNL A   1     -30.390   0.095  27.984  0.00  0.00    -0.082 Cl
ATOM     18 CL   UNL A   1     -30.861   1.415  22.841  0.00  0.00    -0.080 Cl
ENDBRANCH   9  12
ENDBRANCH   7   9
ENDBRANCH   1   7
BRANCH   3  19
ATOM     19  C   UNL A   1     -22.791  -1.148  28.992  0.00  0.00    +0.346 C 
ATOM     20  O   UNL A   1     -21.671  -1.399  29.295  0.00  0.00    -0.244 OA
BRANCH  19  21
ATOM     21  O   UNL A   1     -23.801  -1.746  29.595  0.00  0.00    -0.421 OA
BRANCH  21  22
ATOM     22  C   UNL A   1     -24.546  -2.592  28.771  0.00  0.00    +0.145 A 
ATOM     23  C   UNL A   1     -24.069  -3.633  28.511  0.00  0.00    +0.037 A 
ATOM     24  C   UNL A   1     -24.261  -4.615  28.953  0.00  0.00    +0.003 A 
ATOM     25  C   UNL A   1     -25.613  -4.869  29.635  0.00  0.00    -0.000 A 
ATOM     26  C   UNL A   1     -26.437  -3.753  29.696  0.00  0.00    -0.000 A 
ATOM     27  C   UNL A   1     -25.844  -2.500  29.449  0.00  0.00    +0.023 A 
BRANCH  27  28
ATOM     28  C   UNL A   1     -26.433  -1.395  30.037  0.00  0.00    +0.082 C 
ATOM     29  C   UNL A   1     -26.891  -1.262  31.424  0.00  0.00    +0.017 C 
ATOM     30 BR   UNL A   1     -27.297  -1.841  30.302  0.00  0.00    -0.077 Br
ENDBRANCH  27  28
ENDBRANCH  21  22
ENDBRANCH  19  21
ENDBRANCH   3  19
TORSDOF 7
ENDMDL
ENDMDL
