REMARK  Name = No_4331-gen_results/8p0m/2024-11-27-11-27-31/
REMARK  9 active torsions:
REMARK  status: ('A' for Active; 'I' for Inactive)
REMARK    1  A    between atoms: C_5  and  C_11
REMARK    2  A    between atoms: C_7  and  C_19
REMARK    3  A    between atoms: C_8  and  C_15
REMARK    4  A    between atoms: N_17  and  C_18
REMARK    5  A    between atoms: N_17  and  C_22
REMARK    6  A    between atoms: C_18  and  C_30
REMARK    7  A    between atoms: C_22  and  C_23
REMARK    8  A    between atoms: C_27  and  O_31
REMARK    9  A    between atoms: C_30  and  C_32
REMARK                            x       y       z     vdW  Elec       q    Type
REMARK                         _______ _______ _______ _____ _____    ______ ____
ROOT
ATOM      1  C   UNL A   1     -29.170  -2.466  30.524  0.00  0.00    +0.249 C 
ATOM      2  O   UNL A   1     -29.169  -3.646  30.751  0.00  0.00    -0.270 OA
ATOM      3  N   UNL A   1     -30.194  -1.698  31.038  0.00  0.00    -0.273 N 
ENDROOT
BRANCH   1  11
ATOM      4  C   UNL A   1     -28.016  -0.814  28.878  0.00  0.00    +0.005 A 
ATOM      5  C   UNL A   1     -27.064  -0.119  28.608  0.00  0.00    +0.006 A 
ATOM      6  C   UNL A   1     -25.792  -0.430  29.076  0.00  0.00    +0.000 A 
ATOM      7  C   UNL A   1     -24.546   0.349  28.823  0.00  0.00    +0.004 A 
ATOM      8  C   UNL A   1     -24.659   1.420  27.888  0.00  0.00    +0.072 A 
ATOM      9  C   UNL A   1     -25.947   1.681  27.379  0.00  0.00    +0.010 A 
ATOM     10  C   UNL A   1     -27.044   0.974  27.687  0.00  0.00    +0.080 A 
ATOM     11  C   UNL A   1     -28.024  -1.647  30.126  0.00  0.00    +0.054 A 
ATOM     12  C   UNL A   1     -26.728  -2.085  30.581  0.00  0.00    +0.004 A 
ATOM     13  C   UNL A   1     -25.591  -1.406  30.149  0.00  0.00    +0.000 A 
BRANCH   8  14
ATOM     14  C   UNL A   1     -23.449   2.167  27.524  0.00  0.00    +0.419 C 
ATOM     15  F   UNL A   1     -22.776   1.923  26.631  0.00  0.00    -0.166 F 
ATOM     16  F   UNL A   1     -23.902   3.530  27.344  0.00  0.00    -0.166 F 
ATOM     17  F   UNL A   1     -22.681   2.361  28.676  0.00  0.00    -0.166 F 
ENDBRANCH   8  14
BRANCH  10  18
ATOM     18  C   UNL A   1     -28.322   1.385  27.018  0.00  0.00    +0.388 C 
ATOM     19  O   UNL A   1     -29.079   2.107  27.488  0.00  0.00    -0.241 OA
ATOM     20  O   UNL A   1     -28.343   0.990  25.754  0.00  0.00    -0.241 OA
ENDBRANCH  10  18
ENDBRANCH   1  11
BRANCH   3  21
ATOM     21  C   UNL A   1     -31.407  -2.367  31.583  0.00  0.00    +0.076 C 
ATOM     22  C   UNL A   1     -31.872  -3.304  30.882  0.00  0.00    +0.021 C 
BRANCH  21  23
ATOM     23  C   UNL A   1     -31.957  -1.852  32.750  0.00  0.00    +0.020 C 
BRANCH  23  24
ATOM     24  C   UNL A   1     -31.825  -2.601  33.758  0.00  0.00    +0.002 C 
ATOM     25  C   UNL A   1     -32.722  -2.386  34.867  0.00  0.00    +0.000 C 
ATOM     26  C   UNL A   1     -31.386  -3.971  33.777  0.00  0.00    +0.000 C 
ENDBRANCH  23  24
ENDBRANCH  21  23
ENDBRANCH   3  21
BRANCH   3  27
ATOM     27  C   UNL A   1     -30.291  -0.242  30.988  0.00  0.00    +0.125 C 
BRANCH  27  28
ATOM     28  C   UNL A   1     -30.247   0.372  32.287  0.00  0.00    +0.051 A 
ATOM     29  C   UNL A   1     -30.055   1.323  32.533  0.00  0.00    +0.004 A 
ATOM     30  C   UNL A   1     -29.979   1.921  33.929  0.00  0.00    +0.021 A 
ATOM     31  C   UNL A   1     -30.276   1.036  34.933  0.00  0.00    +0.102 A 
ATOM     32  C   UNL A   1     -30.475  -0.570  33.444  0.00  0.00    +0.222 A 
ATOM     33  N   UNL A   1     -30.455  -0.143  34.678  0.00  0.00    -0.210 NA
BRANCH  32  34
ATOM     34  O   UNL A   1     -30.090  -1.804  33.451  0.00  0.00    -0.456 OA
ATOM     35  C   UNL A   1     -29.336  -2.464  33.141  0.00  0.00    +0.254 C 
ENDBRANCH  32  34
ENDBRANCH  27  28
ENDBRANCH   3  27
TORSDOF 9
