REMARK  Name = outputs/IAG933/test6/raw/output_4332_IAG933_linker_design_.xyz
REMARK  10 active torsions:
REMARK  status: ('A' for Active; 'I' for Inactive)
REMARK    1  A    between atoms: C_1  and  C_2
REMARK    2  A    between atoms: C_1  and  C_8
REMARK    3  A    between atoms: C_1  and  N_46
REMARK    4  A    between atoms: C_13  and  C_38
REMARK    5  A    between atoms: C_14  and  C_15
REMARK    6  A    between atoms: C_21  and  O_22
REMARK    7  A    between atoms: O_22  and  C_23
REMARK    8  A    between atoms: C_23  and  C_24
REMARK    9  A    between atoms: C_29  and  N_46
REMARK   10  A    between atoms: N_30  and  C_36
REMARK                            x       y       z     vdW  Elec       q    Type
REMARK                         _______ _______ _______ _____ _____    ______ ____
ROOT
ATOM      1  C   UNL A   1     -24.190   0.587  28.392  0.00  0.00    +0.060 C 
ATOM      2  F   UNL A   1     -20.521   0.748  28.473  0.00  0.00    -0.204 F 
ATOM      3  C   UNL A   1     -22.006   1.788  27.040  0.00  0.00    +0.059 C 
ATOM      4  F   UNL A   1     -23.431   2.949  25.578  0.00  0.00    -0.204 F 
ATOM      5  C   UNL A   1     -24.401   1.396  27.155  0.00  0.00    +0.044 C 
ATOM      6  C   UNL A   1     -23.296   2.093  26.575  0.00  0.00    +0.144 C 
ATOM      7  C   UNL A   1     -21.797   0.919  28.129  0.00  0.00    +0.144 C 
ATOM      8  C   UNL A   1     -22.881   0.366  28.810  0.00  0.00    +0.045 C 
ENDROOT
BRANCH   5   9
ATOM      9  C   UNL A   1     -25.688   1.614  26.461  0.00  0.00    +0.042 C 
ATOM     10  C   UNL A   1     -26.250   2.920  26.395  0.00  0.00    +0.077 C 
ATOM     11  C   UNL A   1     -27.438   3.091  25.645  0.00  0.00    +0.107 C 
ATOM     12  N   UNL A   1     -28.075   2.089  25.003  0.00  0.00    -0.208 NA
ATOM     13  C   UNL A   1     -27.543   0.849  25.079  0.00  0.00    +0.253 C 
ATOM     14  C   UNL A   1     -26.354   0.576  25.777  0.00  0.00    +0.193 C 
ATOM     15  F   UNL A   1     -25.860  -0.681  25.795  0.00  0.00    -0.199 F 
BRANCH  10  16
ATOM     16  C   UNL A   1     -25.642   4.093  27.123  0.00  0.00    +0.266 C 
ATOM     17  N   UNL A   1     -25.614   5.252  26.449  0.00  0.00    -0.200 NA
ATOM     18  C   UNL A   1     -25.026   6.479  26.963  0.00  0.00    +0.139 C 
ATOM     19  O   UNL A   1     -25.143   3.966  28.243  0.00  0.00    -0.268 OA
ENDBRANCH  10  16
BRANCH  13  20
ATOM     20  O   UNL A   1     -28.193  -0.208  24.477  0.00  0.00    -0.456 OA
BRANCH  20  21
ATOM     21  C   UNL A   1     -29.460   0.005  23.866  0.00  0.00    +0.243 C 
BRANCH  21  22
ATOM     22  C   UNL A   1     -30.065  -1.377  23.573  0.00  0.00    +0.229 C 
ATOM     23  O   UNL A   1     -30.729  -1.878  24.721  0.00  0.00    -0.216 OA
ENDBRANCH  21  22
ENDBRANCH  20  21
ENDBRANCH  13  20
ENDBRANCH   5   9
BRANCH   1  27
ATOM     24  N   UNL A   1     -26.360   2.110  29.669  0.00  0.00    -0.162 NA
ATOM     25  O   UNL A   1     -27.465   0.280  28.672  0.00  0.00    -0.250 OA
ATOM     26  C   UNL A   1     -26.440   0.770  29.196  0.00  0.00    +0.332 C 
ATOM     27  N   UNL A   1     -25.238   0.107  29.212  0.00  0.00    -0.238 N 
BRANCH  24  32
ATOM     28  C   UNL A   1     -27.575   5.026  31.695  0.00  0.00    -0.020 C 
ATOM     29  C   UNL A   1     -28.644   2.827  29.765  0.00  0.00    +0.016 C 
ATOM     30  C   UNL A   1     -29.901   4.773  30.751  0.00  0.00    -0.021 C 
ATOM     31  C   UNL A   1     -28.933   5.347  31.578  0.00  0.00    +0.052 C 
ATOM     32  C   UNL A   1     -27.284   3.020  30.169  0.00  0.00    +0.075 C 
ATOM     33  C   UNL A   1     -29.772   3.618  29.985  0.00  0.00    -0.003 C 
ATOM     34  C   UNL A   1     -26.816   4.042  31.030  0.00  0.00    +0.012 C 
ENDBRANCH  24  32
BRANCH  27  35
ATOM     35  C   UNL A   1     -24.855  -1.012  30.143  0.00  0.00    +0.120 C 
BRANCH  35  36
ATOM     36  C   UNL A   1     -24.973  -2.505  29.788  0.00  0.00    -0.003 C 
ATOM     37  C   UNL A   1     -23.906  -3.173  29.146  0.00  0.00    -0.003 C 
ATOM     38  C   UNL A   1     -23.989  -4.549  28.853  0.00  0.00    -0.000 C 
ATOM     39  C   UNL A   1     -25.137  -5.280  29.205  0.00  0.00    -0.000 C 
ATOM     40  C   UNL A   1     -26.232  -4.611  29.784  0.00  0.00    -0.000 C 
ATOM     41  C   UNL A   1     -26.155  -3.232  30.065  0.00  0.00    -0.003 C 
ENDBRANCH  35  36
BRANCH  35  42
ATOM     42  C   UNL A   1     -25.387  -0.679  31.571  0.00  0.00    +0.096 C 
ATOM     43  C   UNL A   1     -25.189   0.773  32.028  0.00  0.00    +0.021 C 
ATOM     44  C   UNL A   1     -25.336   0.684  33.544  0.00  0.00    +0.020 C 
ATOM     45  C   UNL A   1     -24.829  -0.715  33.905  0.00  0.00    +0.089 C 
ATOM     46  N   UNL A   1     -24.758  -1.481  32.646  0.00  0.00    -0.217 NA
ENDBRANCH  35  42
ENDBRANCH  27  35
ENDBRANCH   1  27
TORSDOF 10
