MODEL 4332
MODEL 1
REMARK VINA RESULT:    -6.468      0.000      0.000
REMARK INTER + INTRA:          -8.111
REMARK INTER:                  -7.981
REMARK INTRA:                  -0.130
REMARK UNBOUND:                -0.130
REMARK  Name = No_4332-gen_results/8p0m/2024-11-27-11-27-31/
REMARK  4 active torsions:
REMARK  status: ('A' for Active; 'I' for Inactive)
REMARK    1  A    between atoms: C_1  and  C_2
REMARK    2  A    between atoms: C_1  and  C_8
REMARK    3  A    between atoms: C_5  and  C_14
REMARK    4  A    between atoms: C_11  and  N_17
REMARK                            x       y       z     vdW  Elec       q    Type
REMARK                         _______ _______ _______ _____ _____    ______ ____
ROOT
ATOM      1  C   UNL A   1     -23.461  -1.379  30.040  0.00  0.00    +0.092 C 
ENDROOT
BRANCH   1   2
ATOM      2  C   UNL A   1     -23.419  -0.615  29.104  0.00  0.00    -0.015 A 
ATOM      3  C   UNL A   1     -22.341   0.206  28.835  0.00  0.00    -0.004 A 
ATOM      4  C   UNL A   1     -22.273   1.193  27.772  0.00  0.00    +0.004 A 
ATOM      5  C   UNL A   1     -23.385   1.344  26.914  0.00  0.00    +0.057 A 
ATOM      6  C   UNL A   1     -24.521   0.503  27.193  0.00  0.00    +0.004 A 
ATOM      7  C   UNL A   1     -24.576  -0.399  28.229  0.00  0.00    -0.004 A 
BRANCH   5   8
ATOM      8  C   UNL A   1     -23.429   2.295  25.864  0.00  0.00    +0.284 C 
ATOM      9  N   UNL A   1     -22.509   2.302  24.996  0.00  0.00    -0.084 NA
ATOM     10  O   UNL A   1     -24.429   3.115  25.806  0.00  0.00    -0.267 OA
ENDBRANCH   5   8
ENDBRANCH   1   2
BRANCH   1  11
ATOM     11  C   UNL A   1     -24.196  -2.626  29.777  0.00  0.00    +0.145 A 
ATOM     12  N   UNL A   1     -25.261  -2.795  29.985  0.00  0.00    -0.212 NA
ATOM     13  N   UNL A   1     -23.464  -3.544  28.959  0.00  0.00    -0.229 NA
ATOM     14  C   UNL A   1     -26.053  -3.913  29.622  0.00  0.00    +0.165 A 
ATOM     15  C   UNL A   1     -24.108  -4.689  28.565  0.00  0.00    +0.103 A 
ATOM     16  C   UNL A   1     -25.385  -4.888  28.907  0.00  0.00    +0.059 A 
BRANCH  14  17
ATOM     17  N   UNL A   1     -27.325  -4.044  30.043  0.00  0.00    -0.230 NA
ATOM     18  C   UNL A   1     -27.998  -3.245  30.679  0.00  0.00    +0.074 C 
ATOM     19  C   UNL A   1     -29.337  -3.600  30.978  0.00  0.00    +0.053 C 
ENDBRANCH  14  17
ENDBRANCH   1  11
TORSDOF 4
ENDMDL
ENDMDL
