MODEL 4333
MODEL 1
REMARK VINA RESULT:    -6.223      0.000      0.000
REMARK INTER + INTRA:          -8.064
REMARK INTER:                  -7.678
REMARK INTRA:                  -0.386
REMARK UNBOUND:                -0.386
REMARK  Name = No_4333-gen_results/8p0m/2024-11-27-11-27-31/
REMARK  4 active torsions:
REMARK  status: ('A' for Active; 'I' for Inactive)
REMARK    1  A    between atoms: C_2  and  C_5
REMARK    2  A    between atoms: C_3  and  C_11
REMARK    3  A    between atoms: C_11  and  N_12
REMARK    4  A    between atoms: N_12  and  C_13
REMARK                            x       y       z     vdW  Elec       q    Type
REMARK                         _______ _______ _______ _____ _____    ______ ____
ROOT
ATOM      1  C   UNL A   1     -23.547   0.716  27.754  0.00  0.00    +0.001 A 
ATOM      2  C   UNL A   1     -22.925   1.326  27.163  0.00  0.00    +0.071 A 
ATOM      3  C   UNL A   1     -22.899  -0.032  28.793  0.00  0.00    -0.001 A 
ATOM      4  C   UNL A   1     -21.571  -0.101  28.922  0.00  0.00    -0.003 A 
ATOM      5  C   UNL A   1     -20.842   0.686  28.091  0.00  0.00    -0.000 A 
ATOM      6  C   UNL A   1     -21.495   1.425  27.173  0.00  0.00    +0.004 A 
ENDROOT
BRANCH   2   7
ATOM      7  C   UNL A   1     -23.512   2.236  26.007  0.00  0.00    +0.419 C 
ATOM      8  F   UNL A   1     -24.379   1.695  25.418  0.00  0.00    -0.166 F 
ATOM      9  F   UNL A   1     -22.577   2.712  25.143  0.00  0.00    -0.166 F 
ATOM     10  F   UNL A   1     -23.966   3.407  26.625  0.00  0.00    -0.166 F 
ENDBRANCH   2   7
BRANCH   3  11
ATOM     11  C   UNL A   1     -23.812  -0.881  29.756  0.00  0.00    +0.139 C 
BRANCH  11  12
ATOM     12  N   UNL A   1     -23.685  -2.197  29.739  0.00  0.00    -0.232 NA
BRANCH  12  13
ATOM     13  C   UNL A   1     -24.579  -3.123  29.361  0.00  0.00    +0.076 C 
ATOM     14  C   UNL A   1     -24.155  -4.351  28.764  0.00  0.00    -0.008 C 
ATOM     15  C   UNL A   1     -24.902  -5.531  28.985  0.00  0.00    +0.032 C 
ENDBRANCH  12  13
ENDBRANCH  11  12
ENDBRANCH   3  11
TORSDOF 4
ENDMDL
ENDMDL
