MODEL 4334
MODEL 1
REMARK VINA RESULT:    -8.561      0.000      0.000
REMARK INTER + INTRA:          -9.389
REMARK INTER:                  -9.062
REMARK INTRA:                  -0.327
REMARK UNBOUND:                -0.327
REMARK  Name = No_4334-gen_results/8p0m/2024-11-27-11-27-31/
REMARK  1 active torsions:
REMARK  status: ('A' for Active; 'I' for Inactive)
REMARK    1  A    between atoms: C_3  and  C_13
REMARK                            x       y       z     vdW  Elec       q    Type
REMARK                         _______ _______ _______ _____ _____    ______ ____
ROOT
ATOM      1  C   UNL A   1     -25.844   1.077  25.313  0.00  0.00    +0.231 C 
ATOM      2  N   UNL A   1     -26.678   1.795  25.389  0.00  0.00    -0.255 N 
ATOM      3  C   UNL A   1     -26.742   2.838  26.166  0.00  0.00    +0.064 C 
ATOM      4  C   UNL A   1     -27.902   3.681  26.205  0.00  0.00    +0.001 C 
ATOM      5  C   UNL A   1     -27.865   1.811  24.503  0.00  0.00    +0.116 C 
ATOM      6  C   UNL A   1     -28.661   3.190  25.151  0.00  0.00    +0.124 C 
ATOM      7  O   UNL A   1     -25.710   0.183  24.359  0.00  0.00    -0.275 OA
ATOM      8  C   UNL A   1     -29.906   3.543  24.637  0.00  0.00    +0.251 C 
ATOM      9  O   UNL A   1     -30.330   4.601  24.701  0.00  0.00    -0.273 OA
ATOM     10  N   UNL A   1     -30.670   2.525  24.028  0.00  0.00    -0.179 NA
ATOM     11  C   UNL A   1     -30.457   1.168  23.936  0.00  0.00    +0.071 A 
ATOM     12  C   UNL A   1     -31.196   0.429  23.451  0.00  0.00    +0.016 A 
ATOM     13  C   UNL A   1     -30.914  -0.980  23.178  0.00  0.00    +0.001 A 
ATOM     14  C   UNL A   1     -29.678  -1.506  23.619  0.00  0.00    -0.000 A 
ATOM     15  C   UNL A   1     -28.780  -0.631  24.201  0.00  0.00    -0.001 A 
ATOM     16  C   UNL A   1     -29.143   0.703  24.384  0.00  0.00    +0.012 A 
ENDROOT
BRANCH   1  19
ATOM     17  C   UNL A   1     -23.605   2.042  25.905  0.00  0.00    +0.124 C 
ATOM     18  N   UNL A   1     -22.731   1.980  26.458  0.00  0.00    -0.204 NA
ATOM     19  C   UNL A   1     -24.623   1.084  26.251  0.00  0.00    +0.103 C 
ATOM     20  C   UNL A   1     -24.337   0.336  27.146  0.00  0.00    +0.048 C 
ATOM     21  C   UNL A   1     -22.249   1.160  27.452  0.00  0.00    +0.249 C 
ATOM     22  C   UNL A   1     -25.342  -0.739  27.642  0.00  0.00    -0.025 C 
ATOM     23  C   UNL A   1     -23.178   0.227  27.830  0.00  0.00    +0.144 C 
ATOM     24  C   UNL A   1     -25.607  -1.338  28.564  0.00  0.00    -0.004 C 
ATOM     25  C   UNL A   1     -24.705  -1.020  29.794  0.00  0.00    +0.003 C 
ATOM     26  C   UNL A   1     -23.369  -0.788  29.983  0.00  0.00    +0.038 C 
ATOM     27  C   UNL A   1     -22.742  -0.253  29.143  0.00  0.00    +0.182 C 
ATOM     28  O   UNL A   1     -21.049   1.371  27.983  0.00  0.00    -0.273 OA
ATOM     29  O   UNL A   1     -21.443  -0.004  29.547  0.00  0.00    -0.291 OA
ENDBRANCH   1  19
TORSDOF 1
ENDMDL
ENDMDL
