REMARK  Name = outputs/IAG933/test6/raw/output_4336_IAG933_linker_design_.xyz
REMARK  14 active torsions:
REMARK  status: ('A' for Active; 'I' for Inactive)
REMARK    1  A    between atoms: C_1  and  C_2
REMARK    2  A    between atoms: C_1  and  C_8
REMARK    3  A    between atoms: C_1  and  N_39
REMARK    4  A    between atoms: C_13  and  C_29
REMARK    5  A    between atoms: C_14  and  C_15
REMARK    6  A    between atoms: C_21  and  O_22
REMARK    7  A    between atoms: O_22  and  C_23
REMARK    8  A    between atoms: C_23  and  C_24
REMARK    9  A    between atoms: C_29  and  C_37
REMARK   10  A    between atoms: N_31  and  S_38
REMARK   11  A    between atoms: N_31  and  C_40
REMARK   12  A    between atoms: C_35  and  N_39
REMARK   13  A    between atoms: C_37  and  C_41
REMARK   14  A    between atoms: N_39  and  C_40
REMARK                            x       y       z     vdW  Elec       q    Type
REMARK                         _______ _______ _______ _____ _____    ______ ____
ROOT
ATOM      1  C   UNL A   1     -24.690   1.250  27.169  0.00  0.00    +0.065 C 
ATOM      2  C   UNL A   1     -25.339   0.427  28.477  0.00  0.00    +0.335 C 
ENDROOT
BRANCH   1   3
ATOM      3  C   UNL A   1     -25.688   1.614  26.461  0.00  0.00    +0.041 C 
ATOM      4  C   UNL A   1     -26.250   2.920  26.395  0.00  0.00    +0.076 C 
ATOM      5  C   UNL A   1     -27.438   3.091  25.645  0.00  0.00    +0.107 C 
ATOM      6  N   UNL A   1     -28.075   2.089  25.003  0.00  0.00    -0.208 NA
ATOM      7  C   UNL A   1     -27.543   0.849  25.079  0.00  0.00    +0.253 C 
ATOM      8  C   UNL A   1     -26.354   0.576  25.777  0.00  0.00    +0.193 C 
ATOM      9  F   UNL A   1     -25.860  -0.681  25.795  0.00  0.00    -0.199 F 
BRANCH   4  10
ATOM     10  C   UNL A   1     -25.642   4.093  27.123  0.00  0.00    +0.266 C 
ATOM     11  N   UNL A   1     -25.614   5.252  26.449  0.00  0.00    -0.200 NA
ATOM     12  C   UNL A   1     -25.026   6.479  26.963  0.00  0.00    +0.139 C 
ATOM     13  O   UNL A   1     -25.143   3.966  28.243  0.00  0.00    -0.268 OA
ENDBRANCH   4  10
BRANCH   7  14
ATOM     14  O   UNL A   1     -28.193  -0.208  24.477  0.00  0.00    -0.456 OA
BRANCH  14  15
ATOM     15  C   UNL A   1     -29.460   0.005  23.866  0.00  0.00    +0.243 C 
BRANCH  15  16
ATOM     16  C   UNL A   1     -30.065  -1.377  23.573  0.00  0.00    +0.229 C 
ATOM     17  O   UNL A   1     -30.729  -1.878  24.721  0.00  0.00    -0.216 OA
ENDBRANCH  15  16
ENDBRANCH  14  15
ENDBRANCH   7  14
ENDBRANCH   1   3
BRANCH   2  18
ATOM     18  N   UNL A   1     -26.797   0.155  28.763  0.00  0.00    +0.118 NA
BRANCH  18  22
ATOM     19  O   UNL A   1     -29.042  -0.613  28.647  0.00  0.00    -0.131 OA
ATOM     20  C   UNL A   1     -28.127   1.371  30.759  0.00  0.00    +0.229 C 
ATOM     21  O   UNL A   1     -28.717  -1.097  30.894  0.00  0.00    -0.131 OA
ATOM     22  S   UNL A   1     -28.170  -0.089  29.799  0.00  0.00    +0.155 S 
ENDBRANCH  18  22
ENDBRANCH   2  18
BRANCH   1  23
ATOM     23  C   UNL A   1     -23.430   1.512  26.728  0.00  0.00    +0.067 C 
BRANCH  23  26
ATOM     24  C   UNL A   1     -21.900   1.358  26.955  0.00  0.00    +0.036 C 
ATOM     25  O   UNL A   1     -22.763   3.017  25.357  0.00  0.00    -0.223 OA
ATOM     26  C   UNL A   1     -22.885   2.122  26.287  0.00  0.00    +0.157 C 
ENDBRANCH  23  26
ENDBRANCH   1  23
BRANCH   2  27
ATOM     27  N   UNL A   1     -24.383  -0.048  29.241  0.00  0.00    -0.190 N 
BRANCH  27  29
ATOM     28  C   UNL A   1     -22.003   0.806  28.414  0.00  0.00    +0.055 C 
ATOM     29  C   UNL A   1     -23.062   0.156  29.152  0.00  0.00    +0.203 C 
ENDBRANCH  27  29
BRANCH  27  30
ATOM     30  C   UNL A   1     -24.855  -1.012  30.143  0.00  0.00    +0.198 C 
BRANCH  30  31
ATOM     31  C   UNL A   1     -24.973  -2.505  29.788  0.00  0.00    +0.021 C 
ATOM     32  C   UNL A   1     -23.906  -3.173  29.146  0.00  0.00    -0.000 C 
ATOM     33  C   UNL A   1     -23.989  -4.549  28.853  0.00  0.00    -0.000 C 
ATOM     34  C   UNL A   1     -25.137  -5.280  29.205  0.00  0.00    -0.000 C 
ATOM     35  C   UNL A   1     -26.232  -4.611  29.784  0.00  0.00    -0.000 C 
ATOM     36  C   UNL A   1     -26.155  -3.232  30.065  0.00  0.00    -0.000 C 
ENDBRANCH  30  31
BRANCH  30  37
ATOM     37  C   UNL A   1     -25.387  -0.679  31.571  0.00  0.00    +0.120 C 
ATOM     38  C   UNL A   1     -25.189   0.773  32.028  0.00  0.00    +0.023 C 
ATOM     39  C   UNL A   1     -25.336   0.684  33.544  0.00  0.00    +0.020 C 
ATOM     40  C   UNL A   1     -24.829  -0.715  33.905  0.00  0.00    +0.089 C 
ATOM     41  N   UNL A   1     -24.758  -1.481  32.646  0.00  0.00    -0.215 NA
ENDBRANCH  30  37
ENDBRANCH  27  30
ENDBRANCH   2  27
TORSDOF 14
