REMARK  Name = No_4337-gen_results/8p0m/2024-11-27-11-27-31/
REMARK  12 active torsions:
REMARK  status: ('A' for Active; 'I' for Inactive)
REMARK    1  A    between atoms: C_1  and  C_2
REMARK    2  A    between atoms: C_1  and  C_3
REMARK    3  A    between atoms: C_3  and  C_4
REMARK    4  A    between atoms: C_5  and  O_18
REMARK    5  A    between atoms: C_6  and  C_7
REMARK    6  A    between atoms: C_6  and  N_25
REMARK    7  A    between atoms: C_7  and  C_8
REMARK    8  A    between atoms: C_13  and  C_31
REMARK    9  A    between atoms: O_18  and  C_19
REMARK   10  A    between atoms: C_21  and  C_28
REMARK   11  A    between atoms: C_31  and  C_32
REMARK   12  A    between atoms: C_31  and  C_34
REMARK                            x       y       z     vdW  Elec       q    Type
REMARK                         _______ _______ _______ _____ _____    ______ ____
ROOT
ATOM      1  C   UNL A   1     -28.469  -0.785  29.829  0.00  0.00    +0.013 A 
ATOM      2  C   UNL A   1     -29.963  -0.861  29.906  0.00  0.00    +0.141 A 
ATOM      3  C   UNL A   1     -30.616  -1.441  30.940  0.00  0.00    +0.034 A 
ATOM      4  C   UNL A   1     -29.943  -1.571  32.139  0.00  0.00    -0.011 A 
ATOM      5  C   UNL A   1     -28.571  -1.439  32.229  0.00  0.00    -0.004 A 
ATOM      6  C   UNL A   1     -27.854  -1.152  31.109  0.00  0.00    -0.002 A 
ENDROOT
BRANCH   1   7
ATOM      7  C   UNL A   1     -28.016  -0.814  28.878  0.00  0.00    +0.034 C 
BRANCH   7   8
ATOM      8  C   UNL A   1     -26.504  -0.778  28.877  0.00  0.00    +0.032 C 
BRANCH   8   9
ATOM      9  C   UNL A   1     -25.950   0.116  29.405  0.00  0.00    -0.010 C 
ATOM     10  C   UNL A   1     -24.467   0.279  29.370  0.00  0.00    +0.090 C 
BRANCH  10  11
ATOM     11  C   UNL A   1     -23.887   1.526  29.277  0.00  0.00    +0.379 C 
ATOM     12  F   UNL A   1     -22.608   1.619  29.648  0.00  0.00    -0.189 F 
ATOM     13  F   UNL A   1     -24.462   2.230  30.497  0.00  0.00    -0.189 F 
BRANCH  11  14
ATOM     14  C   UNL A   1     -24.183   2.136  28.184  0.00  0.00    +0.460 C 
ATOM     15  F   UNL A   1     -23.097   2.461  27.481  0.00  0.00    -0.165 F 
ATOM     16  F   UNL A   1     -24.776   3.439  28.388  0.00  0.00    -0.165 F 
ATOM     17  F   UNL A   1     -25.050   1.467  27.375  0.00  0.00    -0.165 F 
ENDBRANCH  11  14
ENDBRANCH  10  11
BRANCH  10  18
ATOM     18  N   UNL A   1     -23.925  -0.601  30.543  0.00  0.00    -0.303 N 
ATOM     19  C   UNL A   1     -23.960  -0.342  31.617  0.00  0.00    +0.112 C 
ATOM     20  C   UNL A   1     -23.371  -1.849  30.027  0.00  0.00    +0.112 C 
ENDBRANCH  10  18
ENDBRANCH   8   9
ENDBRANCH   7   8
ENDBRANCH   1   7
BRANCH   2  21
ATOM     21  O   UNL A   1     -30.604  -0.696  28.773  0.00  0.00    -0.454 OA
BRANCH  21  22
ATOM     22  C   UNL A   1     -31.269   0.468  28.534  0.00  0.00    +0.152 A 
ATOM     23  C   UNL A   1     -31.600   1.197  29.262  0.00  0.00    +0.038 A 
ATOM     24  C   UNL A   1     -31.726   0.516  27.087  0.00  0.00    +0.114 A 
ATOM     25  C   UNL A   1     -32.323   2.413  29.023  0.00  0.00    +0.003 A 
ATOM     26  C   UNL A   1     -32.450   1.657  26.752  0.00  0.00    +0.010 A 
ATOM     27  C   UNL A   1     -32.785   2.600  27.713  0.00  0.00    +0.000 A 
BRANCH  24  28
ATOM     28  C   UNL A   1     -31.374  -0.454  26.098  0.00  0.00    +0.391 C 
ATOM     29  O   UNL A   1     -31.762  -0.462  25.176  0.00  0.00    -0.240 OA
ATOM     30  O   UNL A   1     -30.506  -1.410  26.480  0.00  0.00    -0.240 OA
ENDBRANCH  24  28
ENDBRANCH  21  22
ENDBRANCH   2  21
BRANCH   4  31
ATOM     31  C   UNL A   1     -30.749  -1.967  33.353  0.00  0.00    +0.066 C 
BRANCH  31  32
ATOM     32  C   UNL A   1     -31.019  -0.989  34.216  0.00  0.00    -0.018 C 
ATOM     33  C   UNL A   1     -31.784  -1.276  35.287  0.00  0.00    -0.004 C 
ENDBRANCH  31  32
BRANCH  31  34
ATOM     34  C   UNL A   1     -31.820  -2.888  33.020  0.00  0.00    -0.018 C 
ATOM     35  C   UNL A   1     -32.593  -3.296  34.231  0.00  0.00    -0.004 C 
ENDBRANCH  31  34
ENDBRANCH   4  31
TORSDOF 12
