MODEL 4337
MODEL 1
REMARK VINA RESULT:    -6.409      0.000      0.000
REMARK INTER + INTRA:         -14.197
REMARK INTER:                 -10.904
REMARK INTRA:                  -3.292
REMARK UNBOUND:                -3.292
REMARK  Name = No_4337-gen_results/8p0m/2024-11-27-11-27-31/
REMARK  12 active torsions:
REMARK  status: ('A' for Active; 'I' for Inactive)
REMARK    1  A    between atoms: C_1  and  C_2
REMARK    2  A    between atoms: C_1  and  C_3
REMARK    3  A    between atoms: C_3  and  C_4
REMARK    4  A    between atoms: C_5  and  O_18
REMARK    5  A    between atoms: C_6  and  C_7
REMARK    6  A    between atoms: C_6  and  N_25
REMARK    7  A    between atoms: C_7  and  C_8
REMARK    8  A    between atoms: C_13  and  C_31
REMARK    9  A    between atoms: O_18  and  C_19
REMARK   10  A    between atoms: C_21  and  C_28
REMARK   11  A    between atoms: C_31  and  C_32
REMARK   12  A    between atoms: C_31  and  C_34
REMARK                            x       y       z     vdW  Elec       q    Type
REMARK                         _______ _______ _______ _____ _____    ______ ____
ROOT
ATOM      1  C   UNL A   1     -10.983   1.147  35.409  0.00  0.00    +0.013 A 
ATOM      2  C   UNL A   1     -11.410   1.240  36.841  0.00  0.00    +0.141 A 
ATOM      3  C   UNL A   1     -12.234   2.211  37.300  0.00  0.00    +0.034 A 
ATOM      4  C   UNL A   1     -13.043   2.858  36.386  0.00  0.00    -0.011 A 
ATOM      5  C   UNL A   1     -12.816   2.788  35.025  0.00  0.00    -0.004 A 
ATOM      6  C   UNL A   1     -11.777   2.042  34.560  0.00  0.00    -0.002 A 
ENDROOT
BRANCH   1   7
ATOM      7  C   UNL A   1     -10.027   0.758  35.197  0.00  0.00    +0.034 C 
BRANCH   7   8
ATOM      8  C   UNL A   1      -9.035   1.747  34.626  0.00  0.00    +0.032 C 
BRANCH   8   9
ATOM      9  C   UNL A   1      -7.900   1.446  34.554  0.00  0.00    -0.010 C 
ATOM     10  C   UNL A   1      -7.233   0.568  35.560  0.00  0.00    +0.090 C 
BRANCH  10  11
ATOM     11  C   UNL A   1      -6.280  -0.354  35.184  0.00  0.00    +0.379 C 
ATOM     12  F   UNL A   1      -5.186  -0.427  35.947  0.00  0.00    -0.189 F 
ATOM     13  F   UNL A   1      -5.613   0.346  34.010  0.00  0.00    -0.189 F 
BRANCH  11  14
ATOM     14  C   UNL A   1      -6.785  -1.488  34.847  0.00  0.00    +0.460 C 
ATOM     15  F   UNL A   1      -7.221  -1.487  33.586  0.00  0.00    -0.165 F 
ATOM     16  F   UNL A   1      -8.001  -1.816  35.556  0.00  0.00    -0.165 F 
ATOM     17  F   UNL A   1      -5.960  -2.556  35.029  0.00  0.00    -0.165 F 
ENDBRANCH  11  14
ENDBRANCH  10  11
BRANCH  10  18
ATOM     18  N   UNL A   1      -6.789   1.524  36.715  0.00  0.00    -0.303 N 
ATOM     19  C   UNL A   1      -6.149   2.419  36.606  0.00  0.00    +0.112 C 
ATOM     20  C   UNL A   1      -7.359   1.084  37.985  0.00  0.00    +0.112 C 
ENDBRANCH  10  18
ENDBRANCH   8   9
ENDBRANCH   7   8
ENDBRANCH   1   7
BRANCH   2  21
ATOM     21  O   UNL A   1     -10.666   0.591  37.705  0.00  0.00    -0.454 OA
BRANCH  21  22
ATOM     22  C   UNL A   1     -11.130  -0.558  38.271  0.00  0.00    +0.152 A 
ATOM     23  C   UNL A   1     -11.477  -1.447  37.762  0.00  0.00    +0.038 A 
ATOM     24  C   UNL A   1     -11.339  -0.353  39.761  0.00  0.00    +0.114 A 
ATOM     25  C   UNL A   1     -11.991  -2.652  38.348  0.00  0.00    +0.003 A 
ATOM     26  C   UNL A   1     -11.848  -1.465  40.426  0.00  0.00    +0.010 A 
ATOM     27  C   UNL A   1     -12.209  -2.611  39.732  0.00  0.00    +0.000 A 
BRANCH  24  28
ATOM     28  C   UNL A   1     -10.959   0.826  40.473  0.00  0.00    +0.391 C 
ATOM     29  O   UNL A   1     -11.604   1.554  40.711  0.00  0.00    -0.240 OA
ATOM     30  O   UNL A   1      -9.655   0.943  40.785  0.00  0.00    -0.240 OA
ENDBRANCH  24  28
ENDBRANCH  21  22
ENDBRANCH   2  21
BRANCH   4  31
ATOM     31  C   UNL A   1     -14.141   3.742  36.927  0.00  0.00    +0.066 C 
BRANCH  31  32
ATOM     32  C   UNL A   1     -15.368   3.226  36.902  0.00  0.00    -0.018 C 
ATOM     33  C   UNL A   1     -16.274   3.774  36.068  0.00  0.00    -0.004 C 
ENDBRANCH  31  32
BRANCH  31  34
ATOM     34  C   UNL A   1     -13.730   4.449  38.127  0.00  0.00    -0.018 C 
ATOM     35  C   UNL A   1     -13.525   5.905  37.866  0.00  0.00    -0.004 C 
ENDBRANCH  31  34
ENDBRANCH   4  31
TORSDOF 12
ENDMDL
ENDMDL
