REMARK  Name = outputs/IAG933/test6/raw/output_4338_IAG933_linker_design_.xyz
REMARK  19 active torsions:
REMARK  status: ('A' for Active; 'I' for Inactive)
REMARK    1  A    between atoms: C_1  and  C_2
REMARK    2  A    between atoms: C_1  and  C_8
REMARK    3  A    between atoms: C_1  and  N_44
REMARK    4  A    between atoms: C_13  and  C_37
REMARK    5  A    between atoms: C_14  and  C_15
REMARK    6  A    between atoms: C_21  and  O_22
REMARK    7  A    between atoms: O_22  and  C_23
REMARK    8  A    between atoms: C_23  and  C_24
REMARK    9  A    between atoms: C_29  and  C_36
REMARK   10  A    between atoms: C_30  and  C_32
REMARK   11  A    between atoms: C_30  and  N_44
REMARK   12  A    between atoms: C_32  and  S_34
REMARK   13  A    between atoms: C_32  and  C_37
REMARK   14  A    between atoms: C_33  and  C_36
REMARK   15  A    between atoms: C_33  and  C_46
REMARK   16  A    between atoms: S_34  and  C_38
REMARK   17  A    between atoms: C_36  and  C_40
REMARK   18  A    between atoms: C_36  and  C_42
REMARK   19  A    between atoms: N_44  and  C_46
REMARK                            x       y       z     vdW  Elec       q    Type
REMARK                         _______ _______ _______ _____ _____    ______ ____
ROOT
ATOM      1  N   UNL A   1     -25.720  -0.355  29.125  0.00  0.00    -0.268 NA
ENDROOT
BRANCH   1   2
ATOM      2  C   UNL A   1     -26.923   0.476  29.573  0.00  0.00    +0.073 C 
BRANCH   2   3
ATOM      3  C   UNL A   1     -28.220  -0.276  29.853  0.00  0.00    +0.036 C 
BRANCH   3   4
ATOM      4  C   UNL A   1     -29.414   0.812  29.585  0.00  0.00    +0.155 C 
BRANCH   4   7
ATOM      5  O   UNL A   1     -29.454   2.739  31.016  0.00  0.00    -0.271 OA
ATOM      6  N   UNL A   1     -29.436   0.727  32.117  0.00  0.00    -0.087 NA
ATOM      7  C   UNL A   1     -29.404   1.526  30.959  0.00  0.00    +0.269 C 
ENDBRANCH   4   7
BRANCH   4   8
ATOM      8  C   UNL A   1     -29.242   1.263  28.227  0.00  0.00    +0.318 C 
ATOM      9  O   UNL A   1     -29.505   2.433  27.887  0.00  0.00    -0.259 OA
ATOM     10  F   UNL A   1     -28.973   0.326  27.401  0.00  0.00    -0.163 F 
ENDBRANCH   4   8
BRANCH   4  11
ATOM     11  C   UNL A   1     -30.927   0.200  29.485  0.00  0.00    +0.019 C 
ATOM     12  C   UNL A   1     -31.457   0.152  28.092  0.00  0.00    +0.001 C 
ENDBRANCH   4  11
ENDBRANCH   3   4
ENDBRANCH   2   3
ENDBRANCH   1   2
BRANCH   1  13
ATOM     13  C   UNL A   1     -24.855  -1.012  30.143  0.00  0.00    +0.096 C 
BRANCH  13  14
ATOM     14  C   UNL A   1     -24.973  -2.505  29.788  0.00  0.00    -0.006 C 
ATOM     15  C   UNL A   1     -23.906  -3.173  29.146  0.00  0.00    -0.003 C 
ATOM     16  C   UNL A   1     -23.989  -4.549  28.853  0.00  0.00    -0.000 C 
ATOM     17  C   UNL A   1     -25.137  -5.280  29.205  0.00  0.00    -0.000 C 
ATOM     18  C   UNL A   1     -26.232  -4.611  29.784  0.00  0.00    -0.000 C 
ATOM     19  C   UNL A   1     -26.155  -3.232  30.065  0.00  0.00    -0.003 C 
ENDBRANCH  13  14
BRANCH  13  20
ATOM     20  C   UNL A   1     -25.387  -0.679  31.571  0.00  0.00    +0.092 C 
ATOM     21  C   UNL A   1     -25.189   0.773  32.028  0.00  0.00    +0.021 C 
ATOM     22  C   UNL A   1     -25.336   0.684  33.544  0.00  0.00    +0.020 C 
ATOM     23  C   UNL A   1     -24.829  -0.715  33.905  0.00  0.00    +0.089 C 
ATOM     24  N   UNL A   1     -24.758  -1.481  32.646  0.00  0.00    -0.218 NA
ENDBRANCH  13  20
ENDBRANCH   1  13
BRANCH   1  25
ATOM     25  C   UNL A   1     -24.410  -0.202  28.124  0.00  0.00    +0.084 C 
BRANCH  25  26
ATOM     26  C   UNL A   1     -24.265   0.969  28.353  0.00  0.00    +0.073 C 
BRANCH  26  27
ATOM     27  C   UNL A   1     -25.468   0.952  27.436  0.00  0.00    +0.021 C 
BRANCH  27  28
ATOM     28  C   UNL A   1     -25.688   1.614  26.461  0.00  0.00    +0.071 C 
ATOM     29  C   UNL A   1     -26.250   2.920  26.395  0.00  0.00    +0.055 C 
ATOM     30  C   UNL A   1     -27.438   3.091  25.645  0.00  0.00    +0.102 C 
ATOM     31  N   UNL A   1     -28.075   2.089  25.003  0.00  0.00    -0.212 NA
ATOM     32  C   UNL A   1     -27.543   0.849  25.079  0.00  0.00    +0.234 C 
ATOM     33  C   UNL A   1     -26.354   0.576  25.777  0.00  0.00    +0.240 C 
ATOM     34  F   UNL A   1     -25.860  -0.681  25.795  0.00  0.00    -0.227 F 
BRANCH  29  35
ATOM     35  C   UNL A   1     -25.642   4.093  27.123  0.00  0.00    +0.262 C 
ATOM     36  N   UNL A   1     -25.614   5.252  26.449  0.00  0.00    -0.200 NA
ATOM     37  C   UNL A   1     -25.026   6.479  26.963  0.00  0.00    +0.139 C 
ATOM     38  O   UNL A   1     -25.143   3.966  28.243  0.00  0.00    -0.269 OA
ENDBRANCH  29  35
BRANCH  32  39
ATOM     39  O   UNL A   1     -28.193  -0.208  24.477  0.00  0.00    -0.459 OA
BRANCH  39  40
ATOM     40  C   UNL A   1     -29.460   0.005  23.866  0.00  0.00    +0.242 C 
BRANCH  40  41
ATOM     41  C   UNL A   1     -30.065  -1.377  23.573  0.00  0.00    +0.229 C 
ATOM     42  O   UNL A   1     -30.729  -1.878  24.721  0.00  0.00    -0.216 OA
ENDBRANCH  40  41
ENDBRANCH  39  40
ENDBRANCH  32  39
ENDBRANCH  27  28
ENDBRANCH  26  27
BRANCH  26  43
ATOM     43  S   UNL A   1     -23.092   1.112  26.859  0.00  0.00    -0.054 S 
BRANCH  43  45
ATOM     44  O   UNL A   1     -20.984   1.614  27.924  0.00  0.00    -0.259 OA
ATOM     45  C   UNL A   1     -22.118   1.052  28.134  0.00  0.00    +0.312 C 
ATOM     46  N   UNL A   1     -22.098   0.231  29.312  0.00  0.00    -0.078 NA
ENDBRANCH  43  45
ENDBRANCH  26  43
ENDBRANCH  25  26
ENDBRANCH   1  25
TORSDOF 19
