MODEL 4338
MODEL 1
REMARK VINA RESULT:    -5.326      0.000      0.000
REMARK INTER + INTRA:          -6.216
REMARK INTER:                  -5.949
REMARK INTRA:                  -0.267
REMARK UNBOUND:                -0.267
REMARK  Name = No_4338-gen_results/8p0m/2024-11-27-11-27-31/
REMARK  2 active torsions:
REMARK  status: ('A' for Active; 'I' for Inactive)
REMARK    1  A    between atoms: C_3  and  C_4
REMARK    2  A    between atoms: C_4  and  C_9
REMARK                            x       y       z     vdW  Elec       q    Type
REMARK                         _______ _______ _______ _____ _____    ______ ____
ROOT
ATOM      1  C   UNL A   1     -24.187  -4.933  28.610  0.00  0.00    -0.000 A 
ATOM      2  C   UNL A   1     -23.857  -3.775  28.500  0.00  0.00    -0.004 A 
ATOM      3  C   UNL A   1     -24.511  -2.717  28.887  0.00  0.00    -0.018 A 
ATOM      4  C   UNL A   1     -25.449  -5.240  29.312  0.00  0.00    -0.000 A 
ATOM      5  C   UNL A   1     -26.233  -4.215  29.715  0.00  0.00    -0.000 A 
ATOM      6  C   UNL A   1     -25.780  -2.840  29.556  0.00  0.00    -0.004 A 
ENDROOT
BRANCH   3   7
ATOM      7  C   UNL A   1     -24.069  -1.309  28.738  0.00  0.00    +0.044 C 
ATOM      8  C   UNL A   1     -24.624  -0.369  27.860  0.00  0.00    +0.009 C 
BRANCH   7   9
ATOM      9  C   UNL A   1     -22.898  -0.889  29.487  0.00  0.00    -0.022 C 
ATOM     10  C   UNL A   1     -21.815  -0.557  29.094  0.00  0.00    -0.005 C 
ENDBRANCH   7   9
ENDBRANCH   3   7
TORSDOF 2
ENDMDL
ENDMDL
