REMARK  Name = outputs/IAG933/test6/raw/output_4339_IAG933_linker_design_.xyz
REMARK  13 active torsions:
REMARK  status: ('A' for Active; 'I' for Inactive)
REMARK    1  A    between atoms: C_1  and  C_2
REMARK    2  A    between atoms: C_1  and  C_8
REMARK    3  A    between atoms: C_9  and  C_34
REMARK    4  A    between atoms: C_13  and  C_37
REMARK    5  A    between atoms: C_14  and  C_15
REMARK    6  A    between atoms: C_21  and  O_22
REMARK    7  A    between atoms: O_22  and  C_23
REMARK    8  A    between atoms: C_23  and  C_24
REMARK    9  A    between atoms: C_33  and  C_34
REMARK   10  A    between atoms: C_33  and  C_45
REMARK   11  A    between atoms: C_34  and  C_38
REMARK   12  A    between atoms: C_37  and  N_42
REMARK   13  A    between atoms: N_42  and  C_45
REMARK                            x       y       z     vdW  Elec       q    Type
REMARK                         _______ _______ _______ _____ _____    ______ ____
ROOT
ATOM      1  C   UNL A   1     -25.090   2.154  31.235  0.00  0.00    +0.035 C 
ENDROOT
BRANCH   1   8
ATOM      2  C   UNL A   1     -27.062   5.921  34.768  0.00  0.00    -0.001 C 
ATOM      3  C   UNL A   1     -27.569   3.869  32.880  0.00  0.00    -0.026 C 
ATOM      4  C   UNL A   1     -28.055   4.980  35.071  0.00  0.00    -0.005 C 
ATOM      5  C   UNL A   1     -28.380   4.003  34.099  0.00  0.00    -0.026 C 
ATOM      6  N   UNL A   1     -26.504   3.908  30.227  0.00  0.00    -0.198 NA
ATOM      7  C   UNL A   1     -27.461   2.616  32.067  0.00  0.00    +0.060 C 
ATOM      8  C   UNL A   1     -26.620   2.693  30.960  0.00  0.00    +0.140 C 
ATOM      9  C   UNL A   1     -26.857   5.004  32.429  0.00  0.00    -0.009 C 
ATOM     10  C   UNL A   1     -26.474   5.179  31.001  0.00  0.00    +0.116 C 
ATOM     11  C   UNL A   1     -29.454   3.170  34.263  0.00  0.00    +0.031 C 
ATOM     12  N   UNL A   1     -27.078   1.747  29.930  0.00  0.00    -0.116 NA
ATOM     13  C   UNL A   1     -26.507   5.946  33.460  0.00  0.00    -0.003 C 
ENDBRANCH   1   8
BRANCH   1  15
ATOM     14  C   UNL A   1     -25.387  -0.679  31.571  0.00  0.00    +0.077 C 
ATOM     15  C   UNL A   1     -25.189   0.773  32.028  0.00  0.00    +0.021 C 
ATOM     16  C   UNL A   1     -25.336   0.684  33.544  0.00  0.00    +0.020 C 
ATOM     17  C   UNL A   1     -24.829  -0.715  33.905  0.00  0.00    +0.089 C 
ATOM     18  N   UNL A   1     -24.758  -1.481  32.646  0.00  0.00    -0.219 NA
BRANCH  14  19
ATOM     19  C   UNL A   1     -24.855  -1.012  30.143  0.00  0.00    +0.044 C 
BRANCH  19  20
ATOM     20  C   UNL A   1     -24.973  -2.505  29.788  0.00  0.00    -0.021 C 
ATOM     21  C   UNL A   1     -23.906  -3.173  29.146  0.00  0.00    -0.004 C 
ATOM     22  C   UNL A   1     -23.989  -4.549  28.853  0.00  0.00    -0.000 C 
ATOM     23  C   UNL A   1     -25.137  -5.280  29.205  0.00  0.00    -0.000 C 
ATOM     24  C   UNL A   1     -26.232  -4.611  29.784  0.00  0.00    -0.000 C 
ATOM     25  C   UNL A   1     -26.155  -3.232  30.065  0.00  0.00    -0.004 C 
ENDBRANCH  19  20
ENDBRANCH  14  19
ENDBRANCH   1  15
BRANCH   1  26
ATOM     26  C   UNL A   1     -23.870   2.164  30.258  0.00  0.00    +0.024 C 
BRANCH  26  27
ATOM     27  C   UNL A   1     -22.973   1.343  29.308  0.00  0.00    +0.094 C 
BRANCH  27  30
ATOM     28  C   UNL A   1     -22.446   1.684  26.904  0.00  0.00    +0.226 C 
ATOM     29  O   UNL A   1     -21.238   1.507  27.174  0.00  0.00    -0.275 OA
ATOM     30  N   UNL A   1     -23.365   1.326  27.890  0.00  0.00    -0.275 N 
ATOM     31  C   UNL A   1     -22.764   2.278  25.506  0.00  0.00    +0.095 C 
BRANCH  30  32
ATOM     32  C   UNL A   1     -24.631   1.068  27.416  0.00  0.00    +0.123 C 
BRANCH  32  33
ATOM     33  C   UNL A   1     -25.688   1.614  26.461  0.00  0.00    +0.036 C 
ATOM     34  C   UNL A   1     -26.250   2.920  26.395  0.00  0.00    +0.074 C 
ATOM     35  C   UNL A   1     -27.438   3.091  25.645  0.00  0.00    +0.106 C 
ATOM     36  N   UNL A   1     -28.075   2.089  25.003  0.00  0.00    -0.208 NA
ATOM     37  C   UNL A   1     -27.543   0.849  25.079  0.00  0.00    +0.253 C 
ATOM     38  C   UNL A   1     -26.354   0.576  25.777  0.00  0.00    +0.191 C 
ATOM     39  F   UNL A   1     -25.860  -0.681  25.795  0.00  0.00    -0.200 F 
BRANCH  34  40
ATOM     40  C   UNL A   1     -25.642   4.093  27.123  0.00  0.00    +0.266 C 
ATOM     41  N   UNL A   1     -25.614   5.252  26.449  0.00  0.00    -0.200 NA
ATOM     42  C   UNL A   1     -25.026   6.479  26.963  0.00  0.00    +0.139 C 
ATOM     43  O   UNL A   1     -25.143   3.966  28.243  0.00  0.00    -0.268 OA
ENDBRANCH  34  40
BRANCH  37  44
ATOM     44  O   UNL A   1     -28.193  -0.208  24.477  0.00  0.00    -0.456 OA
BRANCH  44  45
ATOM     45  C   UNL A   1     -29.460   0.005  23.866  0.00  0.00    +0.243 C 
BRANCH  45  46
ATOM     46  C   UNL A   1     -30.065  -1.377  23.573  0.00  0.00    +0.229 C 
ATOM     47  O   UNL A   1     -30.729  -1.878  24.721  0.00  0.00    -0.216 OA
ENDBRANCH  45  46
ENDBRANCH  44  45
ENDBRANCH  37  44
ENDBRANCH  32  33
ENDBRANCH  30  32
ENDBRANCH  27  30
ENDBRANCH  26  27
ENDBRANCH   1  26
TORSDOF 13
