MODEL 4339
MODEL 1
REMARK VINA RESULT:    -6.954      0.000      0.000
REMARK INTER + INTRA:          -8.287
REMARK INTER:                  -7.767
REMARK INTRA:                  -0.520
REMARK UNBOUND:                -0.520
REMARK  Name = No_4339-gen_results/8p0m/2024-11-27-11-27-31/
REMARK  2 active torsions:
REMARK  status: ('A' for Active; 'I' for Inactive)
REMARK    1  A    between atoms: C_3  and  C_4
REMARK    2  A    between atoms: C_7  and  C_13
REMARK                            x       y       z     vdW  Elec       q    Type
REMARK                         _______ _______ _______ _____ _____    ______ ____
ROOT
ATOM      1  C   UNL A   1     -22.514   0.041  28.584  0.00  0.00    +0.004 A 
ATOM      2  C   UNL A   1     -23.052  -0.977  28.955  0.00  0.00    -0.000 A 
ATOM      3  C   UNL A   1     -24.244  -1.460  28.418  0.00  0.00    -0.000 A 
ATOM      4  C   UNL A   1     -23.241   0.918  27.617  0.00  0.00    +0.071 A 
ATOM      5  C   UNL A   1     -24.371   0.500  26.971  0.00  0.00    +0.004 A 
ATOM      6  C   UNL A   1     -24.984  -0.720  27.367  0.00  0.00    -0.000 A 
ENDROOT
BRANCH   3   7
ATOM      7  C   UNL A   1     -24.973  -2.679  28.816  0.00  0.00    -0.000 A 
ATOM      8  C   UNL A   1     -24.458  -4.023  28.760  0.00  0.00    -0.000 A 
ATOM      9  C   UNL A   1     -25.242  -5.114  29.181  0.00  0.00    +0.000 A 
ATOM     10  C   UNL A   1     -26.442  -4.924  29.935  0.00  0.00    +0.000 A 
ATOM     11  C   UNL A   1     -26.248  -2.600  29.528  0.00  0.00    -0.000 A 
ATOM     12  C   UNL A   1     -26.920  -3.677  30.028  0.00  0.00    +0.000 A 
ENDBRANCH   3   7
BRANCH   4  13
ATOM     13  C   UNL A   1     -22.646   2.200  27.177  0.00  0.00    +0.419 C 
ATOM     14  F   UNL A   1     -21.548   2.450  27.713  0.00  0.00    -0.166 F 
ATOM     15  F   UNL A   1     -22.468   2.073  25.799  0.00  0.00    -0.166 F 
ATOM     16  F   UNL A   1     -23.413   3.224  27.327  0.00  0.00    -0.166 F 
ENDBRANCH   4  13
TORSDOF 2
ENDMDL
ENDMDL
