MODEL 4340
MODEL 1
REMARK VINA RESULT:    -6.827      0.000      0.000
REMARK INTER + INTRA:          -7.293
REMARK INTER:                  -7.226
REMARK INTRA:                  -0.068
REMARK UNBOUND:                -0.068
REMARK  Name = No_4340-gen_results/8p0m/2024-11-27-11-27-31/
REMARK  1 active torsions:
REMARK  status: ('A' for Active; 'I' for Inactive)
REMARK    1  A    between atoms: C_5  and  O_7
REMARK                            x       y       z     vdW  Elec       q    Type
REMARK                         _______ _______ _______ _____ _____    ______ ____
ROOT
ATOM      1  C   UNL A   1      -7.592  -0.637  11.279  0.00  0.00    +0.003 A 
ATOM      2  C   UNL A   1      -8.064   0.379  10.822  0.00  0.00    +0.003 A 
ATOM      3  C   UNL A   1      -7.616   1.023   9.682  0.00  0.00    +0.043 A 
ATOM      4  C   UNL A   1      -6.531   0.420   8.980  0.00  0.00    +0.040 A 
ATOM      5  C   UNL A   1      -6.129  -0.786   9.431  0.00  0.00    +0.139 A 
ATOM      6  C   UNL A   1      -6.692  -1.362  10.495  0.00  0.00    +0.037 A 
ATOM      7  C   UNL A   1      -9.159   1.201  11.594  0.00  0.00    +0.001 A 
ATOM      8  C   UNL A   1      -9.378   1.121  12.656  0.00  0.00    +0.000 A 
ATOM      9  C   UNL A   1      -9.977   1.842  13.383  0.00  0.00    +0.000 A 
ATOM     10  C   UNL A   1     -10.807   2.962  12.894  0.00  0.00    +0.000 A 
ATOM     11  C   UNL A   1     -10.585   3.178  11.516  0.00  0.00    +0.001 A 
ATOM     12  C   UNL A   1      -9.691   2.320  10.813  0.00  0.00    +0.013 A 
ATOM     13  C   UNL A   1      -9.503   2.695   9.447  0.00  0.00    +0.114 C 
ATOM     14  C   UNL A   1     -10.201   3.755   8.787  0.00  0.00    +0.137 C 
ATOM     15  C   UNL A   1      -8.364   1.918   8.842  0.00  0.00    +0.206 C 
ATOM     16  O   UNL A   1      -8.101   2.158   7.588  0.00  0.00    -0.286 OA
ATOM     17  O   UNL A   1     -10.407   4.826   9.394  0.00  0.00    -0.231 OA
ENDROOT
BRANCH   5  18
ATOM     18  O   UNL A   1      -5.142  -1.391   8.709  0.00  0.00    -0.471 OA
ATOM     19  C   UNL A   1      -5.110  -1.199   7.449  0.00  0.00    +0.253 C 
ENDBRANCH   5  18
TORSDOF 1
ENDMDL
ENDMDL
