REMARK  Name = No_4341-gen_results/8p0m/2024-11-27-11-27-31/
REMARK  2 active torsions:
REMARK  status: ('A' for Active; 'I' for Inactive)
REMARK    1  A    between atoms: C_3  and  C_4
REMARK    2  A    between atoms: C_5  and  C_6
REMARK                            x       y       z     vdW  Elec       q    Type
REMARK                         _______ _______ _______ _____ _____    ______ ____
ROOT
ATOM      1  C   UNL A   1     -25.855   1.482  27.083  0.00  0.00    -0.005 C 
ATOM      2  C   UNL A   1     -24.690   1.453  27.881  0.00  0.00    -0.026 C 
ENDROOT
BRANCH   1   5
ATOM      3  C   UNL A   1     -28.016  -0.814  28.878  0.00  0.00    +0.031 C 
ATOM      4  C   UNL A   1     -27.064  -0.119  28.608  0.00  0.00    -0.026 C 
ATOM      5  C   UNL A   1     -27.001   0.691  27.491  0.00  0.00    -0.005 C 
ENDBRANCH   1   5
BRANCH   2   6
ATOM      6  C   UNL A   1     -24.738   0.601  29.042  0.00  0.00    +0.026 C 
ATOM      7  C   UNL A   1     -25.823  -0.169  29.389  0.00  0.00    +0.005 C 
ENDBRANCH   2   6
TORSDOF 2
