MODEL 4344
MODEL 1
REMARK VINA RESULT:    -4.274      0.000      0.000
REMARK INTER + INTRA:          -4.274
REMARK INTER:                  -4.274
REMARK INTRA:                   0.000
REMARK UNBOUND:                 0.000
REMARK  Name = No_4344-gen_results/8p0m/2024-11-27-11-27-31/
REMARK  0 active torsions:
REMARK  status: ('A' for Active; 'I' for Inactive)
REMARK                            x       y       z     vdW  Elec       q    Type
REMARK                         _______ _______ _______ _____ _____    ______ ____
ROOT
ATOM      1  C   UNL A   1     -25.908  -3.044  29.667  0.00  0.00    +0.007 A 
ATOM      2  C   UNL A   1     -24.904  -2.635  29.132  0.00  0.00    +0.035 A 
ATOM      3  C   UNL A   1     -23.952  -3.437  28.592  0.00  0.00    +0.007 A 
ATOM      4  C   UNL A   1     -24.138  -4.831  28.655  0.00  0.00    +0.001 A 
ATOM      5  C   UNL A   1     -26.210  -4.453  29.683  0.00  0.00    +0.001 A 
ATOM      6  C   UNL A   1     -25.271  -5.303  29.179  0.00  0.00    +0.000 A 
ATOM      7 BR   UNL A   1     -24.553  -0.757  28.981  0.00  0.00    -0.049 Br
ENDROOT
TORSDOF 0
ENDMDL
ENDMDL
