MODEL 4345
MODEL 1
REMARK VINA RESULT:    -9.167      0.000      0.000
REMARK INTER + INTRA:         -10.610
REMARK INTER:                 -10.775
REMARK INTRA:                   0.165
REMARK UNBOUND:                 0.165
REMARK  Name = No_4345-gen_results/8p0m/2024-11-27-11-27-31/
REMARK  3 active torsions:
REMARK  status: ('A' for Active; 'I' for Inactive)
REMARK    1  A    between atoms: N_4  and  C_5
REMARK    2  A    between atoms: C_5  and  C_12
REMARK    3  A    between atoms: C_15  and  C_27
REMARK                            x       y       z     vdW  Elec       q    Type
REMARK                         _______ _______ _______ _____ _____    ______ ____
ROOT
ATOM      1  C   UNL A   1     -24.955  -1.022  29.219  0.00  0.00    +0.138 C 
ATOM      2  C   UNL A   1     -24.844  -2.294  28.957  0.00  0.00    +0.018 A 
ATOM      3  C   UNL A   1     -24.119  -2.923  28.585  0.00  0.00    -0.001 A 
ATOM      4  C   UNL A   1     -24.090  -4.469  28.400  0.00  0.00    -0.000 A 
ATOM      5  C   UNL A   1     -25.167  -5.065  29.019  0.00  0.00    +0.001 A 
ATOM      6  C   UNL A   1     -26.071  -4.354  29.734  0.00  0.00    +0.016 A 
ATOM      7  C   UNL A   1     -26.022  -2.991  29.706  0.00  0.00    +0.069 A 
ATOM      8  C   UNL A   1     -26.199  -0.442  29.987  0.00  0.00    +0.019 A 
ATOM      9  C   UNL A   1     -26.506   0.682  29.880  0.00  0.00    +0.006 A 
ATOM     10  C   UNL A   1     -27.647   1.237  30.671  0.00  0.00    +0.034 A 
ATOM     11  C   UNL A   1     -28.239   0.354  31.527  0.00  0.00    +0.008 A 
ATOM     12  C   UNL A   1     -27.853  -0.962  31.666  0.00  0.00    +0.017 A 
ATOM     13  C   UNL A   1     -26.864  -1.365  30.885  0.00  0.00    +0.069 A 
ATOM     14  N   UNL A   1     -26.873  -2.365  30.486  0.00  0.00    -0.213 NA
ATOM     15 BR   UNL A   1     -28.079   3.084  30.676  0.00  0.00    -0.049 Br
ENDROOT
BRANCH   1  16
ATOM     16  C   UNL A   1     -25.068  -0.378  27.819  0.00  0.00    +0.004 A 
ATOM     17  C   UNL A   1     -25.828  -0.382  27.076  0.00  0.00    -0.002 A 
ATOM     18  C   UNL A   1     -25.950   0.327  25.790  0.00  0.00    +0.000 A 
ATOM     19  C   UNL A   1     -24.817   1.034  25.425  0.00  0.00    +0.007 A 
ATOM     20  C   UNL A   1     -23.839   0.523  27.277  0.00  0.00    +0.005 A 
ATOM     21  C   UNL A   1     -23.803   1.185  26.208  0.00  0.00    +0.034 A 
ATOM     22 BR   UNL A   1     -22.248   2.133  25.739  0.00  0.00    -0.049 Br
BRANCH  18  23
ATOM     23  C   UNL A   1     -27.150   0.217  24.923  0.00  0.00    +0.002 A 
ATOM     24  C   UNL A   1     -27.529  -0.759  24.454  0.00  0.00    +0.030 A 
ATOM     25  C   UNL A   1     -28.739  -0.833  23.616  0.00  0.00    +0.140 A 
ATOM     26  C   UNL A   1     -29.444   0.356  23.428  0.00  0.00    +0.030 A 
ATOM     27  C   UNL A   1     -29.021   1.502  23.983  0.00  0.00    +0.002 A 
ATOM     28  C   UNL A   1     -27.869   1.530  24.766  0.00  0.00    +0.000 A 
ATOM     29  F   UNL A   1     -29.110  -1.963  23.102  0.00  0.00    -0.204 F 
ENDBRANCH  18  23
ENDBRANCH   1  16
BRANCH   1  33
ATOM     30  O   UNL A   1     -22.469  -0.317  31.650  0.00  0.00    -0.255 OA
ATOM     31  C   UNL A   1     -23.262  -0.961  31.117  0.00  0.00    +0.327 C 
ATOM     32 CL   UNL A   1     -23.860  -2.190  31.592  0.00  0.00    -0.021 Cl
ATOM     33  N   UNL A   1     -23.921  -0.373  29.902  0.00  0.00    -0.182 NA
ENDBRANCH   1  33
TORSDOF 3
ENDMDL
ENDMDL
