MODEL 4347
MODEL 1
REMARK VINA RESULT:    -5.193      0.000      0.000
REMARK INTER + INTRA:          -5.193
REMARK INTER:                  -5.193
REMARK INTRA:                   0.000
REMARK UNBOUND:                 0.000
REMARK  Name = No_4347-gen_results/8p0m/2024-11-27-11-27-31/
REMARK  0 active torsions:
REMARK  status: ('A' for Active; 'I' for Inactive)
REMARK                            x       y       z     vdW  Elec       q    Type
REMARK                         _______ _______ _______ _____ _____    ______ ____
ROOT
ATOM      1  C   UNL A   1     -25.402  -2.505  30.137  0.00  0.00    +0.019 A 
ATOM      2  C   UNL A   1     -25.750  -1.512  30.190  0.00  0.00    +0.099 A 
ATOM      3  C   UNL A   1     -26.473  -3.492  29.950  0.00  0.00    +0.002 A 
ATOM      4  C   UNL A   1     -26.159  -4.903  29.656  0.00  0.00    +0.000 A 
ATOM      5  C   UNL A   1     -24.977  -5.176  28.930  0.00  0.00    +0.000 A 
ATOM      6  C   UNL A   1     -24.044  -4.133  28.699  0.00  0.00    +0.000 A 
ATOM      7  C   UNL A   1     -24.284  -2.890  29.165  0.00  0.00    +0.003 A 
ATOM      8  N   UNL A   1     -24.746  -0.464  30.427  0.00  0.00    -0.242 NA
ATOM      9  C   UNL A   1     -23.535  -0.641  29.798  0.00  0.00    +0.099 A 
ATOM     10  C   UNL A   1     -23.189  -1.886  29.140  0.00  0.00    +0.021 A 
ENDROOT
TORSDOF 0
ENDMDL
ENDMDL
