MODEL 4348
MODEL 1
REMARK VINA RESULT:    -5.962      0.000      0.000
REMARK INTER + INTRA:          -7.940
REMARK INTER:                  -7.356
REMARK INTRA:                  -0.584
REMARK UNBOUND:                -0.584
REMARK  Name = No_4348-gen_results/8p0m/2024-11-27-11-27-31/
REMARK  4 active torsions:
REMARK  status: ('A' for Active; 'I' for Inactive)
REMARK    1  A    between atoms: C_4  and  C_7
REMARK    2  A    between atoms: C_7  and  C_8
REMARK    3  A    between atoms: C_9  and  C_10
REMARK    4  A    between atoms: C_11  and  C_13
REMARK                            x       y       z     vdW  Elec       q    Type
REMARK                         _______ _______ _______ _____ _____    ______ ____
ROOT
ATOM      1  C   UNL A   1     -24.818  -1.164  29.236  0.00  0.00    +0.054 C 
ENDROOT
BRANCH   1   5
ATOM      2  C   UNL A   1     -26.098  -4.771  29.597  0.00  0.00    +0.018 A 
ATOM      3  C   UNL A   1     -25.267  -5.260  29.173  0.00  0.00    +0.001 A 
ATOM      4  C   UNL A   1     -26.011  -3.306  29.714  0.00  0.00    +0.085 A 
ATOM      5  C   UNL A   1     -24.911  -2.598  29.147  0.00  0.00    -0.001 A 
ATOM      6  C   UNL A   1     -23.932  -3.368  28.572  0.00  0.00    -0.003 A 
ATOM      7  C   UNL A   1     -24.051  -4.712  28.515  0.00  0.00    -0.000 A 
ATOM      8  N   UNL A   1     -26.888  -2.334  30.276  0.00  0.00    -0.128 NA
ENDBRANCH   1   5
BRANCH   1   9
ATOM      9  C   UNL A   1     -24.528  -0.501  28.026  0.00  0.00    -0.021 C 
ATOM     10  C   UNL A   1     -25.361  -0.410  26.998  0.00  0.00    -0.004 C 
BRANCH  10  11
ATOM     11  C   UNL A   1     -25.817   0.285  26.174  0.00  0.00    -0.000 C 
ATOM     12  C   UNL A   1     -26.856  -0.005  25.195  0.00  0.00    -0.000 C 
BRANCH  12  13
ATOM     13  C   UNL A   1     -27.340   1.036  24.433  0.00  0.00    -0.005 C 
ATOM     14  C   UNL A   1     -28.346   0.749  23.389  0.00  0.00    -0.026 C 
ATOM     15  C   UNL A   1     -29.182  -0.355  23.526  0.00  0.00    +0.031 C 
ENDBRANCH  12  13
ENDBRANCH  10  11
ENDBRANCH   1   9
TORSDOF 4
ENDMDL
ENDMDL
