REMARK  Name = outputs/IAG933/test6/raw/output_4348_IAG933_linker_design_.xyz
REMARK  14 active torsions:
REMARK  status: ('A' for Active; 'I' for Inactive)
REMARK    1  A    between atoms: C_1  and  C_2
REMARK    2  A    between atoms: C_1  and  C_8
REMARK    3  A    between atoms: C_1  and  O_35
REMARK    4  A    between atoms: C_13  and  C_42
REMARK    5  A    between atoms: C_14  and  C_15
REMARK    6  A    between atoms: C_21  and  O_22
REMARK    7  A    between atoms: O_22  and  C_23
REMARK    8  A    between atoms: C_23  and  C_24
REMARK    9  A    between atoms: N_31  and  C_42
REMARK   10  A    between atoms: C_34  and  O_35
REMARK   11  A    between atoms: C_34  and  C_42
REMARK   12  A    between atoms: C_34  and  C_44
REMARK   13  A    between atoms: C_37  and  O_39
REMARK   14  A    between atoms: O_39  and  C_44
REMARK                            x       y       z     vdW  Elec       q    Type
REMARK                         _______ _______ _______ _____ _____    ______ ____
ROOT
ATOM      1  C   UNL A   1     -25.669   0.751  28.460  0.00  0.00    +0.169 C 
ENDROOT
BRANCH   1   2
ATOM      2  O   UNL A   1     -24.830  -0.107  29.188  0.00  0.00    -0.348 OA
BRANCH   2   3
ATOM      3  C   UNL A   1     -24.855  -1.012  30.143  0.00  0.00    +0.153 C 
BRANCH   3   4
ATOM      4  C   UNL A   1     -24.973  -2.505  29.788  0.00  0.00    +0.006 C 
ATOM      5  C   UNL A   1     -23.906  -3.173  29.146  0.00  0.00    -0.002 C 
ATOM      6  C   UNL A   1     -23.989  -4.549  28.853  0.00  0.00    -0.000 C 
ATOM      7  C   UNL A   1     -25.137  -5.280  29.205  0.00  0.00    -0.000 C 
ATOM      8  C   UNL A   1     -26.232  -4.611  29.784  0.00  0.00    -0.000 C 
ATOM      9  C   UNL A   1     -26.155  -3.232  30.065  0.00  0.00    -0.002 C 
ENDBRANCH   3   4
BRANCH   3  10
ATOM     10  C   UNL A   1     -25.387  -0.679  31.571  0.00  0.00    +0.104 C 
ATOM     11  C   UNL A   1     -25.189   0.773  32.028  0.00  0.00    +0.022 C 
ATOM     12  C   UNL A   1     -25.336   0.684  33.544  0.00  0.00    +0.020 C 
ATOM     13  C   UNL A   1     -24.829  -0.715  33.905  0.00  0.00    +0.089 C 
ATOM     14  N   UNL A   1     -24.758  -1.481  32.646  0.00  0.00    -0.217 NA
ENDBRANCH   3  10
ENDBRANCH   2   3
ENDBRANCH   1   2
BRANCH   1  15
ATOM     15  C   UNL A   1     -24.820   1.154  27.234  0.00  0.00    +0.149 C 
BRANCH  15  16
ATOM     16  C   UNL A   1     -25.688   1.614  26.461  0.00  0.00    +0.038 C 
ATOM     17  C   UNL A   1     -26.250   2.920  26.395  0.00  0.00    +0.074 C 
ATOM     18  C   UNL A   1     -27.438   3.091  25.645  0.00  0.00    +0.106 C 
ATOM     19  N   UNL A   1     -28.075   2.089  25.003  0.00  0.00    -0.208 NA
ATOM     20  C   UNL A   1     -27.543   0.849  25.079  0.00  0.00    +0.253 C 
ATOM     21  C   UNL A   1     -26.354   0.576  25.777  0.00  0.00    +0.191 C 
ATOM     22  F   UNL A   1     -25.860  -0.681  25.795  0.00  0.00    -0.200 F 
BRANCH  17  23
ATOM     23  C   UNL A   1     -25.642   4.093  27.123  0.00  0.00    +0.266 C 
ATOM     24  N   UNL A   1     -25.614   5.252  26.449  0.00  0.00    -0.200 NA
ATOM     25  C   UNL A   1     -25.026   6.479  26.963  0.00  0.00    +0.139 C 
ATOM     26  O   UNL A   1     -25.143   3.966  28.243  0.00  0.00    -0.268 OA
ENDBRANCH  17  23
BRANCH  20  27
ATOM     27  O   UNL A   1     -28.193  -0.208  24.477  0.00  0.00    -0.456 OA
BRANCH  27  28
ATOM     28  C   UNL A   1     -29.460   0.005  23.866  0.00  0.00    +0.243 C 
BRANCH  28  29
ATOM     29  C   UNL A   1     -30.065  -1.377  23.573  0.00  0.00    +0.229 C 
ATOM     30  O   UNL A   1     -30.729  -1.878  24.721  0.00  0.00    -0.216 OA
ENDBRANCH  28  29
ENDBRANCH  27  28
ENDBRANCH  20  27
ENDBRANCH  15  16
BRANCH  15  31
ATOM     31  N   UNL A   1     -23.541   1.777  27.889  0.00  0.00    -0.200 NA
ATOM     32  O   UNL A   1     -22.433   0.442  29.337  0.00  0.00    -0.273 OA
ATOM     33  C   UNL A   1     -22.446   1.136  28.300  0.00  0.00    +0.242 C 
ATOM     34  C   UNL A   1     -21.212   1.364  27.519  0.00  0.00    +0.096 C 
ENDBRANCH  15  31
ENDBRANCH   1  15
BRANCH   1  35
ATOM     35  C   UNL A   1     -27.070   0.150  28.380  0.00  0.00    +0.174 C 
BRANCH  35  36
ATOM     36  O   UNL A   1     -27.687   0.116  29.679  0.00  0.00    -0.353 OA
BRANCH  36  41
ATOM     37  C   UNL A   1     -31.020  -0.863  27.642  0.00  0.00    -0.066 C 
ATOM     38  O   UNL A   1     -31.056  -2.853  29.156  0.00  0.00    -0.465 OA
ATOM     39  C   UNL A   1     -30.361   0.340  27.621  0.00  0.00    +0.021 C 
ATOM     40  C   UNL A   1     -29.595   1.015  28.735  0.00  0.00    +0.064 C 
ATOM     41  C   UNL A   1     -29.050  -0.192  29.642  0.00  0.00    +0.124 C 
ATOM     42  C   UNL A   1     -29.659  -3.016  29.017  0.00  0.00    +0.209 C 
ATOM     43  C   UNL A   1     -31.578  -1.963  28.149  0.00  0.00    +0.215 C 
ATOM     44  C   UNL A   1     -28.930  -1.848  29.599  0.00  0.00    +0.077 C 
ENDBRANCH  36  41
ENDBRANCH  35  36
ENDBRANCH   1  35
TORSDOF 14
