REMARK  Name = outputs/IAG933/test6/raw/output_4349_IAG933_linker_design_.xyz
REMARK  12 active torsions:
REMARK  status: ('A' for Active; 'I' for Inactive)
REMARK    1  A    between atoms: C_1  and  C_2
REMARK    2  A    between atoms: C_1  and  C_8
REMARK    3  A    between atoms: C_1  and  N_33
REMARK    4  A    between atoms: C_13  and  C_45
REMARK    5  A    between atoms: C_14  and  C_15
REMARK    6  A    between atoms: C_21  and  O_22
REMARK    7  A    between atoms: O_22  and  C_23
REMARK    8  A    between atoms: C_23  and  C_24
REMARK    9  A    between atoms: C_30  and  O_39
REMARK   10  A    between atoms: C_30  and  C_41
REMARK   11  A    between atoms: C_38  and  O_43
REMARK   12  A    between atoms: O_39  and  O_43
REMARK                            x       y       z     vdW  Elec       q    Type
REMARK                         _______ _______ _______ _____ _____    ______ ____
ROOT
ATOM      1  F   UNL A   1     -22.759   2.139  24.901  0.00  0.00    -0.163 F 
ATOM      2  O   UNL A   1     -21.253   1.648  26.354  0.00  0.00    -0.426 OA
ATOM      3  C   UNL A   1     -23.384   1.336  27.105  0.00  0.00    +0.074 A 
ATOM      4  C   UNL A   1     -23.043   0.056  29.156  0.00  0.00    +0.171 A 
ATOM      5  N   UNL A   1     -24.370  -0.067  29.293  0.00  0.00    -0.277 N 
ATOM      6  C   UNL A   1     -22.681   0.864  28.008  0.00  0.00    +0.079 A 
ATOM      7  C   UNL A   1     -21.201   1.039  27.714  0.00  0.00    +0.185 C 
ATOM      8  C   UNL A   1     -25.272   0.597  28.473  0.00  0.00    +0.249 A 
ATOM      9  C   UNL A   1     -22.491   1.809  26.120  0.00  0.00    +0.288 C 
ATOM     10  N   UNL A   1     -22.177  -0.492  29.942  0.00  0.00    -0.129 NA
ATOM     11  C   UNL A   1     -24.772   1.226  27.348  0.00  0.00    +0.059 A 
ENDROOT
BRANCH  11  12
ATOM     12  C   UNL A   1     -25.688   1.614  26.461  0.00  0.00    +0.026 C 
ATOM     13  C   UNL A   1     -26.250   2.920  26.395  0.00  0.00    +0.056 C 
ATOM     14  C   UNL A   1     -27.438   3.091  25.645  0.00  0.00    +0.159 C 
ATOM     15  N   UNL A   1     -28.075   2.089  25.003  0.00  0.00    -0.234 NA
ATOM     16  C   UNL A   1     -27.543   0.849  25.079  0.00  0.00    +0.234 C 
ATOM     17  C   UNL A   1     -26.354   0.576  25.777  0.00  0.00    +0.258 C 
ATOM     18  F   UNL A   1     -25.860  -0.681  25.795  0.00  0.00    -0.222 F 
BRANCH  13  19
ATOM     19  C   UNL A   1     -25.642   4.093  27.123  0.00  0.00    +0.263 C 
ATOM     20  N   UNL A   1     -25.614   5.252  26.449  0.00  0.00    -0.200 NA
ATOM     21  C   UNL A   1     -25.026   6.479  26.963  0.00  0.00    +0.139 C 
ATOM     22  O   UNL A   1     -25.143   3.966  28.243  0.00  0.00    -0.269 OA
ENDBRANCH  13  19
BRANCH  16  23
ATOM     23  O   UNL A   1     -28.193  -0.208  24.477  0.00  0.00    -0.459 OA
BRANCH  23  24
ATOM     24  C   UNL A   1     -29.460   0.005  23.866  0.00  0.00    +0.242 C 
BRANCH  24  25
ATOM     25  C   UNL A   1     -30.065  -1.377  23.573  0.00  0.00    +0.229 C 
ATOM     26  O   UNL A   1     -30.729  -1.878  24.721  0.00  0.00    -0.216 OA
ENDBRANCH  24  25
ENDBRANCH  23  24
ENDBRANCH  16  23
ENDBRANCH  11  12
BRANCH   5  27
ATOM     27  C   UNL A   1     -24.855  -1.012  30.143  0.00  0.00    +0.128 C 
BRANCH  27  28
ATOM     28  C   UNL A   1     -24.973  -2.505  29.788  0.00  0.00    -0.000 C 
ATOM     29  C   UNL A   1     -23.906  -3.173  29.146  0.00  0.00    -0.002 C 
ATOM     30  C   UNL A   1     -23.989  -4.549  28.853  0.00  0.00    -0.000 C 
ATOM     31  C   UNL A   1     -25.137  -5.280  29.205  0.00  0.00    -0.000 C 
ATOM     32  C   UNL A   1     -26.232  -4.611  29.784  0.00  0.00    -0.000 C 
ATOM     33  C   UNL A   1     -26.155  -3.232  30.065  0.00  0.00    -0.002 C 
ENDBRANCH  27  28
BRANCH  27  34
ATOM     34  C   UNL A   1     -25.387  -0.679  31.571  0.00  0.00    +0.098 C 
ATOM     35  C   UNL A   1     -25.189   0.773  32.028  0.00  0.00    +0.021 C 
ATOM     36  C   UNL A   1     -25.336   0.684  33.544  0.00  0.00    +0.020 C 
ATOM     37  C   UNL A   1     -24.829  -0.715  33.905  0.00  0.00    +0.089 C 
ATOM     38  N   UNL A   1     -24.758  -1.481  32.646  0.00  0.00    -0.217 NA
ENDBRANCH  27  34
ENDBRANCH   5  27
BRANCH   8  39
ATOM     39  O   UNL A   1     -26.524   0.616  28.779  0.00  0.00    -0.316 OA
BRANCH  39  40
ATOM     40  O   UNL A   1     -26.909   1.645  29.514  0.00  0.00    -0.174 OA
BRANCH  40  41
ATOM     41  C   UNL A   1     -28.380   1.885  29.704  0.00  0.00    +0.169 C 
ATOM     42  C   UNL A   1     -29.231   3.040  30.119  0.00  0.00    +0.037 C 
ATOM     43  C   UNL A   1     -28.914   1.823  31.128  0.00  0.00    +0.037 C 
BRANCH  41  45
ATOM     44  O   UNL A   1     -28.890  -0.295  28.256  0.00  0.00    -0.218 OA
ATOM     45  C   UNL A   1     -29.188   1.033  28.683  0.00  0.00    +0.213 C 
ENDBRANCH  41  45
ENDBRANCH  40  41
ENDBRANCH  39  40
ENDBRANCH   8  39
TORSDOF 12
