MODEL 434
MODEL 1
REMARK VINA RESULT:    -4.554      0.000      0.000
REMARK INTER + INTRA:          -4.554
REMARK INTER:                  -4.554
REMARK INTRA:                   0.000
REMARK UNBOUND:                 0.000
REMARK  Name = No_434-gen_results/8p0m/2024-11-27-11-27-31/
REMARK  0 active torsions:
REMARK  status: ('A' for Active; 'I' for Inactive)
REMARK                            x       y       z     vdW  Elec       q    Type
REMARK                         _______ _______ _______ _____ _____    ______ ____
ROOT
ATOM      1  C   UNL A   1      -8.875 -10.646  18.050  0.00  0.00    +0.030 A 
ATOM      2  C   UNL A   1      -9.777 -10.106  18.118  0.00  0.00    +0.140 A 
ATOM      3  C   UNL A   1      -7.903 -10.445  19.137  0.00  0.00    +0.002 A 
ATOM      4  C   UNL A   1      -8.246  -9.667  20.281  0.00  0.00    +0.000 A 
ATOM      5  C   UNL A   1     -10.392  -9.294  19.203  0.00  0.00    +0.030 A 
ATOM      6  C   UNL A   1      -9.516  -9.077  20.225  0.00  0.00    +0.002 A 
ATOM      7  F   UNL A   1     -10.740 -10.310  17.065  0.00  0.00    -0.204 F 
ENDROOT
TORSDOF 0
ENDMDL
ENDMDL
