MODEL 4351
MODEL 1
REMARK VINA RESULT:    -5.746      0.000      0.000
REMARK INTER + INTRA:          -6.407
REMARK INTER:                  -6.082
REMARK INTRA:                  -0.326
REMARK UNBOUND:                -0.326
REMARK  Name = No_4351-gen_results/8p0m/2024-11-27-11-27-31/
REMARK  1 active torsions:
REMARK  status: ('A' for Active; 'I' for Inactive)
REMARK    1  A    between atoms: C_4  and  C_5
REMARK                            x       y       z     vdW  Elec       q    Type
REMARK                         _______ _______ _______ _____ _____    ______ ____
ROOT
ATOM      1  C   UNL A   1     -24.398  -3.865  29.018  0.00  0.00    +0.033 C 
ATOM      2  C   UNL A   1     -25.393  -4.049  29.313  0.00  0.00    +0.152 C 
ATOM      3  C   UNL A   1     -24.240  -2.653  28.215  0.00  0.00    +0.007 C 
ATOM      4  C   UNL A   1     -24.403  -1.540  28.714  0.00  0.00    +0.024 C 
ATOM      5  C   UNL A   1     -26.155  -2.907  30.068  0.00  0.00    +0.033 C 
ATOM      6  C   UNL A   1     -25.766  -1.621  29.476  0.00  0.00    +0.007 C 
ATOM      7  O   UNL A   1     -25.887  -5.262  29.855  0.00  0.00    -0.223 OA
ENDROOT
BRANCH   4   8
ATOM      8  C   UNL A   1     -24.070  -0.296  28.092  0.00  0.00    -0.007 A 
ATOM      9  C   UNL A   1     -24.595   0.250  27.218  0.00  0.00    +0.094 A 
ATOM     10  N   UNL A   1     -23.902   1.238  26.468  0.00  0.00    -0.243 NA
ATOM     11  C   UNL A   1     -22.709   0.296  28.515  0.00  0.00    -0.023 A 
ATOM     12  C   UNL A   1     -21.968  -0.368  29.635  0.00  0.00    +0.031 C 
ATOM     13  C   UNL A   1     -22.109   1.307  27.824  0.00  0.00    +0.016 A 
ATOM     14  C   UNL A   1     -22.769   1.844  26.778  0.00  0.00    +0.099 A 
ENDBRANCH   4   8
TORSDOF 1
ENDMDL
ENDMDL
