REMARK  Name = No_4351-gen_results/8p0m/2024-11-27-11-27-31/
REMARK  1 active torsions:
REMARK  status: ('A' for Active; 'I' for Inactive)
REMARK    1  A    between atoms: C_4  and  C_5
REMARK                            x       y       z     vdW  Elec       q    Type
REMARK                         _______ _______ _______ _____ _____    ______ ____
ROOT
ATOM      1  C   UNL A   1     -28.016  -0.814  28.878  0.00  0.00    +0.033 C 
ATOM      2  C   UNL A   1     -28.469  -0.785  29.829  0.00  0.00    +0.152 C 
ATOM      3  C   UNL A   1     -27.087   0.290  28.638  0.00  0.00    +0.007 C 
ATOM      4  C   UNL A   1     -26.024   0.364  29.253  0.00  0.00    +0.024 C 
ATOM      5  C   UNL A   1     -27.533  -0.705  31.083  0.00  0.00    +0.033 C 
ATOM      6  C   UNL A   1     -26.398   0.168  30.758  0.00  0.00    +0.007 C 
ATOM      7  O   UNL A   1     -29.591  -1.550  30.237  0.00  0.00    -0.223 OA
ENDROOT
BRANCH   4   8
ATOM      8  C   UNL A   1     -24.954   1.266  28.953  0.00  0.00    -0.007 A 
ATOM      9  C   UNL A   1     -24.981   2.268  28.377  0.00  0.00    +0.094 A 
ATOM     10  N   UNL A   1     -23.791   2.808  27.820  0.00  0.00    -0.243 NA
ATOM     11  C   UNL A   1     -23.544   0.726  29.270  0.00  0.00    -0.023 A 
ATOM     12  C   UNL A   1     -23.435  -0.574  30.006  0.00  0.00    +0.031 C 
ATOM     13  C   UNL A   1     -22.413   1.320  28.792  0.00  0.00    +0.016 A 
ATOM     14  C   UNL A   1     -22.543   2.455  28.076  0.00  0.00    +0.099 A 
ENDBRANCH   4   8
TORSDOF 1
