MODEL 4352
MODEL 1
REMARK VINA RESULT:    -6.317      0.000      0.000
REMARK INTER + INTRA:          -7.257
REMARK INTER:                  -7.055
REMARK INTRA:                  -0.202
REMARK UNBOUND:                -0.202
REMARK  Name = No_4352-gen_results/8p0m/2024-11-27-11-27-31/
REMARK  2 active torsions:
REMARK  status: ('A' for Active; 'I' for Inactive)
REMARK    1  A    between atoms: C_2  and  C_7
REMARK    2  A    between atoms: N_9  and  C_10
REMARK                            x       y       z     vdW  Elec       q    Type
REMARK                         _______ _______ _______ _____ _____    ______ ____
ROOT
ATOM      1  C   UNL A   1     -24.690  -1.093  28.952  0.00  0.00    +0.269 C 
ATOM      2  O   UNL A   1     -24.912  -0.305  29.667  0.00  0.00    -0.268 OA
ATOM      3  N   UNL A   1     -24.509  -0.785  27.542  0.00  0.00    -0.175 NA
ENDROOT
BRANCH   1   5
ATOM      4  C   UNL A   1     -25.953  -2.872  29.617  0.00  0.00    +0.034 A 
ATOM      5  C   UNL A   1     -25.067  -2.648  29.093  0.00  0.00    +0.058 A 
ATOM      6  C   UNL A   1     -26.277  -4.343  29.746  0.00  0.00    +0.140 A 
ATOM      7  C   UNL A   1     -25.339  -5.299  29.305  0.00  0.00    +0.030 A 
ATOM      8  C   UNL A   1     -23.923  -3.433  28.575  0.00  0.00    +0.005 A 
ATOM      9  C   UNL A   1     -24.182  -4.792  28.683  0.00  0.00    +0.003 A 
ATOM     10  F   UNL A   1     -27.365  -4.819  30.339  0.00  0.00    -0.204 F 
ENDBRANCH   1   5
BRANCH   3  11
ATOM     11  C   UNL A   1     -24.380   0.563  27.188  0.00  0.00    +0.074 A 
ATOM     12  C   UNL A   1     -25.427   0.986  26.738  0.00  0.00    +0.017 A 
ATOM     13  C   UNL A   1     -25.555   2.336  26.205  0.00  0.00    +0.001 A 
ATOM     14  C   UNL A   1     -24.359   3.113  26.321  0.00  0.00    +0.000 A 
ATOM     15  C   UNL A   1     -23.233   2.575  26.885  0.00  0.00    +0.001 A 
ATOM     16  C   UNL A   1     -23.210   1.265  27.284  0.00  0.00    +0.017 A 
ENDBRANCH   3  11
TORSDOF 2
ENDMDL
ENDMDL
