REMARK  Name = outputs/IAG933/test6/raw/output_4352_IAG933_linker_design_.xyz
REMARK  15 active torsions:
REMARK  status: ('A' for Active; 'I' for Inactive)
REMARK    1  A    between atoms: C_1  and  C_2
REMARK    2  A    between atoms: C_1  and  C_8
REMARK    3  A    between atoms: C_1  and  C_30
REMARK    4  A    between atoms: C_13  and  C_39
REMARK    5  A    between atoms: C_14  and  C_15
REMARK    6  A    between atoms: C_21  and  O_22
REMARK    7  A    between atoms: O_22  and  C_23
REMARK    8  A    between atoms: C_23  and  C_24
REMARK    9  A    between atoms: C_28  and  C_29
REMARK   10  A    between atoms: C_30  and  C_39
REMARK   11  A    between atoms: C_30  and  N_41
REMARK   12  A    between atoms: C_31  and  C_43
REMARK   13  A    between atoms: S_33  and  C_42
REMARK   14  A    between atoms: C_42  and  C_45
REMARK   15  A    between atoms: C_43  and  C_45
REMARK                            x       y       z     vdW  Elec       q    Type
REMARK                         _______ _______ _______ _____ _____    ______ ____
ROOT
ATOM      1  C   UNL A   1     -24.983  -0.042  28.880  0.00  0.00    +0.120 C 
ENDROOT
BRANCH   1   4
ATOM      2  C   UNL A   1     -23.381   1.212  27.269  0.00  0.00    +0.047 C 
ATOM      3 CL   UNL A   1     -22.932   2.085  25.815  0.00  0.00    -0.086 Cl
ATOM      4  C   UNL A   1     -24.656   0.983  27.483  0.00  0.00    -0.009 C 
BRANCH   4   5
ATOM      5  C   UNL A   1     -25.688   1.614  26.461  0.00  0.00    +0.090 C 
ATOM      6  C   UNL A   1     -26.250   2.920  26.395  0.00  0.00    +0.059 C 
ATOM      7  C   UNL A   1     -27.438   3.091  25.645  0.00  0.00    +0.102 C 
ATOM      8  N   UNL A   1     -28.075   2.089  25.003  0.00  0.00    -0.212 NA
ATOM      9  C   UNL A   1     -27.543   0.849  25.079  0.00  0.00    +0.234 C 
ATOM     10  C   UNL A   1     -26.354   0.576  25.777  0.00  0.00    +0.244 C 
ATOM     11  F   UNL A   1     -25.860  -0.681  25.795  0.00  0.00    -0.227 F 
BRANCH   6  12
ATOM     12  C   UNL A   1     -25.642   4.093  27.123  0.00  0.00    +0.263 C 
ATOM     13  N   UNL A   1     -25.614   5.252  26.449  0.00  0.00    -0.200 NA
ATOM     14  C   UNL A   1     -25.026   6.479  26.963  0.00  0.00    +0.139 C 
ATOM     15  O   UNL A   1     -25.143   3.966  28.243  0.00  0.00    -0.269 OA
ENDBRANCH   6  12
BRANCH   9  16
ATOM     16  O   UNL A   1     -28.193  -0.208  24.477  0.00  0.00    -0.459 OA
BRANCH  16  17
ATOM     17  C   UNL A   1     -29.460   0.005  23.866  0.00  0.00    +0.242 C 
BRANCH  17  18
ATOM     18  C   UNL A   1     -30.065  -1.377  23.573  0.00  0.00    +0.229 C 
ATOM     19  O   UNL A   1     -30.729  -1.878  24.721  0.00  0.00    -0.216 OA
ENDBRANCH  17  18
ENDBRANCH  16  17
ENDBRANCH   9  16
ENDBRANCH   4   5
BRANCH   2  20
ATOM     20  C   UNL A   1     -22.336   0.825  28.093  0.00  0.00    +0.124 C 
ATOM     21  C   UNL A   1     -20.924   1.413  27.809  0.00  0.00    +0.026 C 
ATOM     22  N   UNL A   1     -22.242   0.018  29.251  0.00  0.00    -0.127 NA
ENDBRANCH   2  20
ENDBRANCH   1   4
BRANCH   1  25
ATOM     23  C   UNL A   1     -27.635  -0.242  29.210  0.00  0.00    +0.241 C 
ATOM     24  O   UNL A   1     -27.944  -1.401  29.062  0.00  0.00    -0.273 OA
ATOM     25  N   UNL A   1     -26.385   0.238  29.046  0.00  0.00    -0.203 NA
BRANCH  23  27
ATOM     26  C   UNL A   1     -28.386   1.903  30.404  0.00  0.00    +0.010 C 
ATOM     27  C   UNL A   1     -28.703   0.803  29.431  0.00  0.00    +0.080 C 
BRANCH  27  28
ATOM     28  C   UNL A   1     -29.149   1.076  28.041  0.00  0.00    +0.031 C 
BRANCH  28  29
ATOM     29  C   UNL A   1     -29.661   2.200  27.765  0.00  0.00    +0.106 C 
BRANCH  29  30
ATOM     30  S   UNL A   1     -31.215   2.308  26.853  0.00  0.00    -0.196 S 
ATOM     31  O   UNL A   1     -32.159   2.050  27.992  0.00  0.00    -0.307 OA
ATOM     32  O   UNL A   1     -31.393   3.667  26.171  0.00  0.00    -0.307 OA
ATOM     33  O   UNL A   1     -31.546   1.126  25.780  0.00  0.00    -0.307 OA
ENDBRANCH  29  30
ENDBRANCH  28  29
ENDBRANCH  27  28
ENDBRANCH  23  27
ENDBRANCH   1  25
BRANCH   1  34
ATOM     34  C   UNL A   1     -24.855  -1.012  30.143  0.00  0.00    +0.062 C 
BRANCH  34  35
ATOM     35  C   UNL A   1     -24.973  -2.505  29.788  0.00  0.00    -0.019 C 
ATOM     36  C   UNL A   1     -23.906  -3.173  29.146  0.00  0.00    -0.004 C 
ATOM     37  C   UNL A   1     -23.989  -4.549  28.853  0.00  0.00    -0.000 C 
ATOM     38  C   UNL A   1     -25.137  -5.280  29.205  0.00  0.00    -0.000 C 
ATOM     39  C   UNL A   1     -26.232  -4.611  29.784  0.00  0.00    -0.000 C 
ATOM     40  C   UNL A   1     -26.155  -3.232  30.065  0.00  0.00    -0.004 C 
ENDBRANCH  34  35
BRANCH  34  41
ATOM     41  C   UNL A   1     -25.387  -0.679  31.571  0.00  0.00    +0.079 C 
ATOM     42  C   UNL A   1     -25.189   0.773  32.028  0.00  0.00    +0.019 C 
ATOM     43  C   UNL A   1     -25.336   0.684  33.544  0.00  0.00    +0.020 C 
ATOM     44  C   UNL A   1     -24.829  -0.715  33.905  0.00  0.00    +0.089 C 
ATOM     45  N   UNL A   1     -24.758  -1.481  32.646  0.00  0.00    -0.219 NA
ENDBRANCH  34  41
ENDBRANCH   1  34
TORSDOF 15
