REMARK  Name = outputs/IAG933/test6/raw/output_4353_IAG933_linker_design_.xyz
REMARK  13 active torsions:
REMARK  status: ('A' for Active; 'I' for Inactive)
REMARK    1  A    between atoms: C_1  and  C_2
REMARK    2  A    between atoms: C_1  and  C_8
REMARK    3  A    between atoms: C_9  and  C_35
REMARK    4  A    between atoms: C_13  and  C_39
REMARK    5  A    between atoms: C_14  and  C_15
REMARK    6  A    between atoms: C_21  and  O_22
REMARK    7  A    between atoms: O_22  and  C_23
REMARK    8  A    between atoms: C_23  and  C_24
REMARK    9  A    between atoms: O_34  and  C_44
REMARK   10  A    between atoms: C_35  and  C_45
REMARK   11  A    between atoms: C_35  and  N_46
REMARK   12  A    between atoms: C_40  and  C_42
REMARK   13  A    between atoms: C_42  and  N_46
REMARK                            x       y       z     vdW  Elec       q    Type
REMARK                         _______ _______ _______ _____ _____    ______ ____
ROOT
ATOM      1  C   UNL A   1     -25.035   1.768  31.195  0.00  0.00    +0.106 C 
ENDROOT
BRANCH   1  10
ATOM      2  O   UNL A   1     -25.544   4.167  30.747  0.00  0.00    -0.293 OA
ATOM      3  C   UNL A   1     -29.682   3.899  30.567  0.00  0.00    +0.037 C 
ATOM      4  C   UNL A   1     -30.351   2.794  29.960  0.00  0.00    +0.003 C 
ATOM      5  O   UNL A   1     -27.663   4.496  31.840  0.00  0.00    -0.431 OA
ATOM      6  C   UNL A   1     -28.276   3.767  30.915  0.00  0.00    +0.142 C 
ATOM      7  C   UNL A   1     -28.178   1.562  29.765  0.00  0.00    +0.001 C 
ATOM      8  C   UNL A   1     -27.471   2.675  30.417  0.00  0.00    +0.040 C 
ATOM      9  C   UNL A   1     -26.279   4.697  31.743  0.00  0.00    +0.432 C 
ATOM     10  C   UNL A   1     -26.052   2.830  30.682  0.00  0.00    +0.162 C 
ATOM     11  C   UNL A   1     -29.620   1.609  29.590  0.00  0.00    -0.000 C 
BRANCH   9  12
ATOM     12  O   UNL A   1     -25.590   5.311  32.867  0.00  0.00    -0.293 OA
ATOM     13  C   UNL A   1     -25.389   4.242  33.872  0.00  0.00    +0.181 C 
ENDBRANCH   9  12
ENDBRANCH   1  10
BRANCH   1  15
ATOM     14  C   UNL A   1     -25.387  -0.679  31.571  0.00  0.00    +0.079 C 
ATOM     15  C   UNL A   1     -25.189   0.773  32.028  0.00  0.00    +0.037 C 
ATOM     16  C   UNL A   1     -25.336   0.684  33.544  0.00  0.00    +0.022 C 
ATOM     17  C   UNL A   1     -24.829  -0.715  33.905  0.00  0.00    +0.089 C 
ATOM     18  N   UNL A   1     -24.758  -1.481  32.646  0.00  0.00    -0.219 NA
BRANCH  14  19
ATOM     19  C   UNL A   1     -24.855  -1.012  30.143  0.00  0.00    +0.044 C 
BRANCH  19  20
ATOM     20  C   UNL A   1     -24.973  -2.505  29.788  0.00  0.00    -0.021 C 
ATOM     21  C   UNL A   1     -23.906  -3.173  29.146  0.00  0.00    -0.004 C 
ATOM     22  C   UNL A   1     -23.989  -4.549  28.853  0.00  0.00    -0.000 C 
ATOM     23  C   UNL A   1     -25.137  -5.280  29.205  0.00  0.00    -0.000 C 
ATOM     24  C   UNL A   1     -26.232  -4.611  29.784  0.00  0.00    -0.000 C 
ATOM     25  C   UNL A   1     -26.155  -3.232  30.065  0.00  0.00    -0.004 C 
ENDBRANCH  19  20
ENDBRANCH  14  19
ENDBRANCH   1  15
BRANCH   1  26
ATOM     26  N   UNL A   1     -23.853   1.946  30.283  0.00  0.00    -0.216 NA
BRANCH  26  27
ATOM     27  C   UNL A   1     -23.805   1.926  28.975  0.00  0.00    +0.103 C 
BRANCH  27  31
ATOM     28  C   UNL A   1     -22.159   1.749  27.015  0.00  0.00    +0.355 C 
ATOM     29  O   UNL A   1     -21.027   1.713  27.516  0.00  0.00    -0.247 OA
ATOM     30  C   UNL A   1     -24.289   1.385  26.783  0.00  0.00    +0.184 C 
ATOM     31  C   UNL A   1     -23.565   1.702  27.672  0.00  0.00    +0.151 C 
ATOM     32  O   UNL A   1     -22.266   1.784  25.659  0.00  0.00    -0.296 OA
ATOM     33  O   UNL A   1     -23.545   1.250  25.308  0.00  0.00    -0.171 OA
BRANCH  30  34
ATOM     34  C   UNL A   1     -25.688   1.614  26.461  0.00  0.00    +0.102 C 
ATOM     35  C   UNL A   1     -26.250   2.920  26.395  0.00  0.00    +0.057 C 
ATOM     36  C   UNL A   1     -27.438   3.091  25.645  0.00  0.00    +0.102 C 
ATOM     37  N   UNL A   1     -28.075   2.089  25.003  0.00  0.00    -0.212 NA
ATOM     38  C   UNL A   1     -27.543   0.849  25.079  0.00  0.00    +0.234 C 
ATOM     39  C   UNL A   1     -26.354   0.576  25.777  0.00  0.00    +0.242 C 
ATOM     40  F   UNL A   1     -25.860  -0.681  25.795  0.00  0.00    -0.227 F 
BRANCH  35  41
ATOM     41  C   UNL A   1     -25.642   4.093  27.123  0.00  0.00    +0.263 C 
ATOM     42  N   UNL A   1     -25.614   5.252  26.449  0.00  0.00    -0.200 NA
ATOM     43  C   UNL A   1     -25.026   6.479  26.963  0.00  0.00    +0.139 C 
ATOM     44  O   UNL A   1     -25.143   3.966  28.243  0.00  0.00    -0.269 OA
ENDBRANCH  35  41
BRANCH  38  45
ATOM     45  O   UNL A   1     -28.193  -0.208  24.477  0.00  0.00    -0.459 OA
BRANCH  45  46
ATOM     46  C   UNL A   1     -29.460   0.005  23.866  0.00  0.00    +0.242 C 
BRANCH  46  47
ATOM     47  C   UNL A   1     -30.065  -1.377  23.573  0.00  0.00    +0.229 C 
ATOM     48  O   UNL A   1     -30.729  -1.878  24.721  0.00  0.00    -0.216 OA
ENDBRANCH  46  47
ENDBRANCH  45  46
ENDBRANCH  38  45
ENDBRANCH  30  34
ENDBRANCH  27  31
ENDBRANCH  26  27
ENDBRANCH   1  26
TORSDOF 13
