MODEL 4354
MODEL 1
REMARK VINA RESULT:    -5.261      0.000      0.000
REMARK INTER + INTRA:          -6.087
REMARK INTER:                  -5.876
REMARK INTRA:                  -0.210
REMARK UNBOUND:                -0.210
REMARK  Name = No_4354-gen_results/8p0m/2024-11-27-11-27-31/
REMARK  2 active torsions:
REMARK  status: ('A' for Active; 'I' for Inactive)
REMARK    1  A    between atoms: C_2  and  C_9
REMARK    2  A    between atoms: C_4  and  C_5
REMARK                            x       y       z     vdW  Elec       q    Type
REMARK                         _______ _______ _______ _____ _____    ______ ____
ROOT
ATOM      1  C   UNL A   1     -21.711   1.557  27.394  0.00  0.00    -0.000 A 
ATOM      2  C   UNL A   1     -22.826   1.482  26.934  0.00  0.00    +0.025 A 
ATOM      3  C   UNL A   1     -23.747   0.564  27.427  0.00  0.00    -0.005 A 
ATOM      4  C   UNL A   1     -23.385  -0.360  28.472  0.00  0.00    -0.022 A 
ATOM      5  C   UNL A   1     -21.182   0.620  28.363  0.00  0.00    -0.001 A 
ATOM      6  C   UNL A   1     -22.027  -0.314  28.922  0.00  0.00    -0.004 A 
ENDROOT
BRANCH   2   7
ATOM      7  C   UNL A   1     -23.367   2.342  25.853  0.00  0.00    +0.262 C 
ATOM      8 CL   UNL A   1     -24.039   3.397  25.870  0.00  0.00    -0.072 Cl
ATOM      9  F   UNL A   1     -22.238   2.430  24.870  0.00  0.00    -0.214 F 
ENDBRANCH   2   7
BRANCH   4  10
ATOM     10  C   UNL A   1     -24.213  -1.295  29.012  0.00  0.00    +0.026 C 
ATOM     11  C   UNL A   1     -23.753  -2.682  28.938  0.00  0.00    +0.005 C 
ENDBRANCH   4  10
TORSDOF 2
ENDMDL
ENDMDL
