REMARK  Name = outputs/IAG933/test6/raw/output_4355_IAG933_linker_design_.xyz
REMARK  8 active torsions:
REMARK  status: ('A' for Active; 'I' for Inactive)
REMARK    1  A    between atoms: C_1  and  C_2
REMARK    2  A    between atoms: C_1  and  C_8
REMARK    3  A    between atoms: C_1  and  N_39
REMARK    4  A    between atoms: C_13  and  C_38
REMARK    5  A    between atoms: C_14  and  C_15
REMARK    6  A    between atoms: C_21  and  O_22
REMARK    7  A    between atoms: O_22  and  C_23
REMARK    8  A    between atoms: C_23  and  C_24
REMARK                            x       y       z     vdW  Elec       q    Type
REMARK                         _______ _______ _______ _____ _____    ______ ____
ROOT
ATOM      1  C   UNL A   1     -23.414   1.634  26.465  0.00  0.00    +0.179 C 
ATOM      2  O   UNL A   1     -23.130   1.974  25.261  0.00  0.00    -0.369 OA
ATOM      3  C   UNL A   1     -22.418  -0.709  30.145  0.00  0.00    +0.107 C 
ATOM      4  C   UNL A   1     -22.512   0.896  28.506  0.00  0.00    +0.092 C 
ATOM      5  C   UNL A   1     -23.790   0.846  29.154  0.00  0.00    +0.156 C 
ATOM      6  O   UNL A   1     -20.200   0.762  28.717  0.00  0.00    -0.222 OA
ATOM      7  N   UNL A   1     -24.772   0.719  28.244  0.00  0.00    -0.220 NA
ATOM      8  C   UNL A   1     -22.314   1.431  27.193  0.00  0.00    +0.161 C 
ATOM      9  N   UNL A   1     -21.639   2.267  25.388  0.00  0.00    +0.070 NA
ATOM     10  N   UNL A   1     -21.235   1.738  26.507  0.00  0.00    -0.086 NA
ATOM     11  C   UNL A   1     -24.629   1.384  27.053  0.00  0.00    +0.103 C 
ATOM     12  N   UNL A   1     -23.709  -0.452  29.785  0.00  0.00    -0.251 NA
ATOM     13  C   UNL A   1     -21.617   0.165  29.166  0.00  0.00    +0.173 C 
ENDROOT
BRANCH  11  14
ATOM     14  C   UNL A   1     -25.688   1.614  26.461  0.00  0.00    +0.056 C 
ATOM     15  C   UNL A   1     -26.250   2.920  26.395  0.00  0.00    +0.078 C 
ATOM     16  C   UNL A   1     -27.438   3.091  25.645  0.00  0.00    +0.107 C 
ATOM     17  N   UNL A   1     -28.075   2.089  25.003  0.00  0.00    -0.208 NA
ATOM     18  C   UNL A   1     -27.543   0.849  25.079  0.00  0.00    +0.253 C 
ATOM     19  C   UNL A   1     -26.354   0.576  25.777  0.00  0.00    +0.194 C 
ATOM     20  F   UNL A   1     -25.860  -0.681  25.795  0.00  0.00    -0.199 F 
BRANCH  15  21
ATOM     21  C   UNL A   1     -25.642   4.093  27.123  0.00  0.00    +0.267 C 
ATOM     22  N   UNL A   1     -25.614   5.252  26.449  0.00  0.00    -0.200 NA
ATOM     23  C   UNL A   1     -25.026   6.479  26.963  0.00  0.00    +0.139 C 
ATOM     24  O   UNL A   1     -25.143   3.966  28.243  0.00  0.00    -0.268 OA
ENDBRANCH  15  21
BRANCH  18  25
ATOM     25  O   UNL A   1     -28.193  -0.208  24.477  0.00  0.00    -0.456 OA
BRANCH  25  26
ATOM     26  C   UNL A   1     -29.460   0.005  23.866  0.00  0.00    +0.243 C 
BRANCH  26  27
ATOM     27  C   UNL A   1     -30.065  -1.377  23.573  0.00  0.00    +0.229 C 
ATOM     28  O   UNL A   1     -30.729  -1.878  24.721  0.00  0.00    -0.216 OA
ENDBRANCH  26  27
ENDBRANCH  25  26
ENDBRANCH  18  25
ENDBRANCH  11  14
BRANCH  12  29
ATOM     29  C   UNL A   1     -24.855  -1.012  30.143  0.00  0.00    +0.098 C 
BRANCH  29  30
ATOM     30  C   UNL A   1     -24.973  -2.505  29.788  0.00  0.00    -0.006 C 
ATOM     31  C   UNL A   1     -23.906  -3.173  29.146  0.00  0.00    -0.003 C 
ATOM     32  C   UNL A   1     -23.989  -4.549  28.853  0.00  0.00    -0.000 C 
ATOM     33  C   UNL A   1     -25.137  -5.280  29.205  0.00  0.00    -0.000 C 
ATOM     34  C   UNL A   1     -26.232  -4.611  29.784  0.00  0.00    -0.000 C 
ATOM     35  C   UNL A   1     -26.155  -3.232  30.065  0.00  0.00    -0.003 C 
ENDBRANCH  29  30
BRANCH  29  36
ATOM     36  C   UNL A   1     -25.387  -0.679  31.571  0.00  0.00    +0.092 C 
ATOM     37  C   UNL A   1     -25.189   0.773  32.028  0.00  0.00    +0.021 C 
ATOM     38  C   UNL A   1     -25.336   0.684  33.544  0.00  0.00    +0.020 C 
ATOM     39  C   UNL A   1     -24.829  -0.715  33.905  0.00  0.00    +0.089 C 
ATOM     40  N   UNL A   1     -24.758  -1.481  32.646  0.00  0.00    -0.218 NA
ENDBRANCH  29  36
ENDBRANCH  12  29
TORSDOF 8
