MODEL 4356
MODEL 1
REMARK VINA RESULT:    -4.594      0.000      0.000
REMARK INTER + INTRA:          -4.594
REMARK INTER:                  -4.594
REMARK INTRA:                   0.000
REMARK UNBOUND:                 0.000
REMARK  Name = No_4356-gen_results/8p0m/2024-11-27-11-27-31/
REMARK  0 active torsions:
REMARK  status: ('A' for Active; 'I' for Inactive)
REMARK                            x       y       z     vdW  Elec       q    Type
REMARK                         _______ _______ _______ _____ _____    ______ ____
ROOT
ATOM      1  C   UNL A   1     -10.198  -9.189  19.542  0.00  0.00    +0.002 A 
ATOM      2  C   UNL A   1      -9.220  -9.181  20.254  0.00  0.00    +0.030 A 
ATOM      3  C   UNL A   1      -8.088  -9.797  20.065  0.00  0.00    +0.140 A 
ATOM      4  C   UNL A   1      -7.949 -10.601  18.894  0.00  0.00    +0.030 A 
ATOM      5  C   UNL A   1      -8.993 -10.569  18.032  0.00  0.00    +0.002 A 
ATOM      6  C   UNL A   1     -10.126  -9.846  18.299  0.00  0.00    +0.000 A 
ATOM      7  F   UNL A   1      -7.072  -9.780  20.918  0.00  0.00    -0.204 F 
ENDROOT
TORSDOF 0
ENDMDL
ENDMDL
