MODEL 4357
MODEL 1
REMARK VINA RESULT:    -4.615      0.000      0.000
REMARK INTER + INTRA:          -4.615
REMARK INTER:                  -4.615
REMARK INTRA:                   0.000
REMARK UNBOUND:                 0.000
REMARK  Name = No_4357-gen_results/8p0m/2024-11-27-11-27-31/
REMARK  0 active torsions:
REMARK  status: ('A' for Active; 'I' for Inactive)
REMARK                            x       y       z     vdW  Elec       q    Type
REMARK                         _______ _______ _______ _____ _____    ______ ____
ROOT
ATOM      1  C   UNL A   1     -26.378  -3.769  29.829  0.00  0.00    +0.002 A 
ATOM      2  C   UNL A   1     -26.157  -4.776  29.611  0.00  0.00    +0.000 A 
ATOM      3  C   UNL A   1     -25.307  -2.791  29.578  0.00  0.00    +0.030 A 
ATOM      4  C   UNL A   1     -24.097  -3.189  28.940  0.00  0.00    +0.140 A 
ATOM      5  C   UNL A   1     -23.976  -4.527  28.658  0.00  0.00    +0.030 A 
ATOM      6  C   UNL A   1     -24.981  -5.385  28.934  0.00  0.00    +0.002 A 
ATOM      7  F   UNL A   1     -23.163  -2.342  28.721  0.00  0.00    -0.204 F 
ENDROOT
TORSDOF 0
ENDMDL
ENDMDL
