MODEL 4358
MODEL 1
REMARK VINA RESULT:    -6.365      0.000      0.000
REMARK INTER + INTRA:          -7.030
REMARK INTER:                  -6.737
REMARK INTRA:                  -0.293
REMARK UNBOUND:                -0.293
REMARK  Name = No_4358-gen_results/8p0m/2024-11-27-11-27-31/
REMARK  1 active torsions:
REMARK  status: ('A' for Active; 'I' for Inactive)
REMARK    1  A    between atoms: C_5  and  C_8
REMARK                            x       y       z     vdW  Elec       q    Type
REMARK                         _______ _______ _______ _____ _____    ______ ____
ROOT
ATOM      1  F   UNL A   1     -27.261  -4.616  30.285  0.00  0.00    -0.204 F 
ATOM      2  C   UNL A   1     -26.269  -4.391  29.758  0.00  0.00    +0.140 A 
ATOM      3  C   UNL A   1     -25.520  -5.250  29.227  0.00  0.00    +0.030 A 
ATOM      4  C   UNL A   1     -25.884  -2.906  29.739  0.00  0.00    +0.030 A 
ATOM      5  C   UNL A   1     -24.617  -2.543  29.137  0.00  0.00    +0.002 A 
ATOM      6  C   UNL A   1     -24.195  -4.860  28.625  0.00  0.00    +0.002 A 
ATOM      7  C   UNL A   1     -23.805  -3.521  28.608  0.00  0.00    +0.000 A 
ENDROOT
BRANCH   5   8
ATOM      8  C   UNL A   1     -24.177  -1.169  29.071  0.00  0.00    +0.000 A 
ATOM      9  C   UNL A   1     -22.964  -0.848  28.940  0.00  0.00    +0.000 A 
ATOM     10  C   UNL A   1     -22.623   0.557  28.826  0.00  0.00    +0.000 A 
ATOM     11  C   UNL A   1     -22.959   1.436  28.183  0.00  0.00    +0.000 A 
ATOM     12  C   UNL A   1     -23.842   0.994  27.200  0.00  0.00    +0.000 A 
ATOM     13  C   UNL A   1     -24.511  -0.448  27.692  0.00  0.00    +0.000 A 
ENDBRANCH   5   8
TORSDOF 1
ENDMDL
ENDMDL
