REMARK  Name = outputs/IAG933/test6/raw/output_4359_IAG933_linker_design_.xyz
REMARK  14 active torsions:
REMARK  status: ('A' for Active; 'I' for Inactive)
REMARK    1  A    between atoms: C_1  and  C_2
REMARK    2  A    between atoms: C_1  and  C_8
REMARK    3  A    between atoms: C_1  and  N_43
REMARK    4  A    between atoms: C_13  and  C_42
REMARK    5  A    between atoms: C_14  and  C_15
REMARK    6  A    between atoms: C_21  and  O_22
REMARK    7  A    between atoms: O_22  and  C_23
REMARK    8  A    between atoms: C_23  and  C_24
REMARK    9  A    between atoms: C_29  and  C_46
REMARK   10  A    between atoms: C_35  and  C_40
REMARK   11  A    between atoms: C_35  and  C_44
REMARK   12  A    between atoms: C_39  and  N_43
REMARK   13  A    between atoms: C_42  and  C_45
REMARK   14  A    between atoms: N_43  and  C_44
REMARK                            x       y       z     vdW  Elec       q    Type
REMARK                         _______ _______ _______ _____ _____    ______ ____
ROOT
ATOM      1  N   UNL A   1     -25.251   0.003  29.116  0.00  0.00    -0.271 NA
ENDROOT
BRANCH   1   5
ATOM      2  C   UNL A   1     -22.052   1.092  27.355  0.00  0.00    +0.001 C 
ATOM      3  C   UNL A   1     -23.040   1.357  29.648  0.00  0.00    +0.016 C 
ATOM      4  C   UNL A   1     -21.812   1.262  28.730  0.00  0.00    +0.001 C 
ATOM      5  C   UNL A   1     -24.255   1.066  28.762  0.00  0.00    +0.058 C 
ATOM      6  C   UNL A   1     -23.570   0.714  27.392  0.00  0.00    +0.015 C 
BRANCH   6   7
ATOM      7  C   UNL A   1     -24.172   1.506  26.200  0.00  0.00    +0.009 C 
BRANCH   7   8
ATOM      8  C   UNL A   1     -25.688   1.614  26.461  0.00  0.00    +0.070 C 
ATOM      9  C   UNL A   1     -26.250   2.920  26.395  0.00  0.00    +0.055 C 
ATOM     10  C   UNL A   1     -27.438   3.091  25.645  0.00  0.00    +0.102 C 
ATOM     11  N   UNL A   1     -28.075   2.089  25.003  0.00  0.00    -0.212 NA
ATOM     12  C   UNL A   1     -27.543   0.849  25.079  0.00  0.00    +0.234 C 
ATOM     13  C   UNL A   1     -26.354   0.576  25.777  0.00  0.00    +0.240 C 
ATOM     14  F   UNL A   1     -25.860  -0.681  25.795  0.00  0.00    -0.227 F 
BRANCH   9  15
ATOM     15  C   UNL A   1     -25.642   4.093  27.123  0.00  0.00    +0.262 C 
ATOM     16  N   UNL A   1     -25.614   5.252  26.449  0.00  0.00    -0.200 NA
ATOM     17  C   UNL A   1     -25.026   6.479  26.963  0.00  0.00    +0.139 C 
ATOM     18  O   UNL A   1     -25.143   3.966  28.243  0.00  0.00    -0.269 OA
ENDBRANCH   9  15
BRANCH  12  19
ATOM     19  O   UNL A   1     -28.193  -0.208  24.477  0.00  0.00    -0.459 OA
BRANCH  19  20
ATOM     20  C   UNL A   1     -29.460   0.005  23.866  0.00  0.00    +0.242 C 
BRANCH  20  21
ATOM     21  C   UNL A   1     -30.065  -1.377  23.573  0.00  0.00    +0.229 C 
ATOM     22  O   UNL A   1     -30.729  -1.878  24.721  0.00  0.00    -0.216 OA
ENDBRANCH  20  21
ENDBRANCH  19  20
ENDBRANCH  12  19
ENDBRANCH   7   8
ENDBRANCH   6   7
ENDBRANCH   1   5
BRANCH   1  23
ATOM     23  C   UNL A   1     -24.855  -1.012  30.143  0.00  0.00    +0.096 C 
BRANCH  23  24
ATOM     24  C   UNL A   1     -24.973  -2.505  29.788  0.00  0.00    -0.006 C 
ATOM     25  C   UNL A   1     -23.906  -3.173  29.146  0.00  0.00    -0.003 C 
ATOM     26  C   UNL A   1     -23.989  -4.549  28.853  0.00  0.00    -0.000 C 
ATOM     27  C   UNL A   1     -25.137  -5.280  29.205  0.00  0.00    -0.000 C 
ATOM     28  C   UNL A   1     -26.232  -4.611  29.784  0.00  0.00    -0.000 C 
ATOM     29  C   UNL A   1     -26.155  -3.232  30.065  0.00  0.00    -0.003 C 
ENDBRANCH  23  24
BRANCH  23  30
ATOM     30  C   UNL A   1     -25.387  -0.679  31.571  0.00  0.00    +0.092 C 
ATOM     31  C   UNL A   1     -25.189   0.773  32.028  0.00  0.00    +0.021 C 
ATOM     32  C   UNL A   1     -25.336   0.684  33.544  0.00  0.00    +0.020 C 
ATOM     33  C   UNL A   1     -24.829  -0.715  33.905  0.00  0.00    +0.089 C 
ATOM     34  N   UNL A   1     -24.758  -1.481  32.646  0.00  0.00    -0.218 NA
ENDBRANCH  23  30
ENDBRANCH   1  23
BRANCH   1  35
ATOM     35  C   UNL A   1     -26.622   0.538  29.408  0.00  0.00    +0.073 C 
BRANCH  35  36
ATOM     36  C   UNL A   1     -27.613  -0.501  28.943  0.00  0.00    +0.025 C 
BRANCH  36  43
ATOM     37  C   UNL A   1     -30.364  -0.132  28.023  0.00  0.00    +0.151 C 
ATOM     38  C   UNL A   1     -31.794  -1.142  29.475  0.00  0.00    +0.111 C 
ATOM     39  C   UNL A   1     -30.590  -2.126  29.784  0.00  0.00    +0.012 C 
ATOM     40  C   UNL A   1     -30.833  -2.826  31.040  0.00  0.00    +0.001 C 
ATOM     41  C   UNL A   1     -29.407  -1.419  29.849  0.00  0.00    +0.008 C 
ATOM     42  C   UNL A   1     -31.545   0.048  28.826  0.00  0.00    +0.076 C 
ATOM     43  C   UNL A   1     -29.129  -0.260  28.959  0.00  0.00    +0.059 C 
ATOM     44  O   UNL A   1     -30.524  -0.362  26.780  0.00  0.00    -0.296 OA
BRANCH  38  47
ATOM     45  O   UNL A   1     -33.261  -2.709  28.515  0.00  0.00    -0.246 OA
ATOM     46  O   UNL A   1     -33.277  -2.518  30.604  0.00  0.00    -0.246 OA
ATOM     47  C   UNL A   1     -32.833  -2.146  29.511  0.00  0.00    +0.365 C 
ENDBRANCH  38  47
ENDBRANCH  36  43
ENDBRANCH  35  36
ENDBRANCH   1  35
TORSDOF 14
