MODEL 435
MODEL 1
REMARK VINA RESULT:    -4.986      0.000      0.000
REMARK INTER + INTRA:          -4.986
REMARK INTER:                  -4.986
REMARK INTRA:                   0.000
REMARK UNBOUND:                 0.000
REMARK  Name = No_435-gen_results/8p0m/2024-11-27-11-27-31/
REMARK  0 active torsions:
REMARK  status: ('A' for Active; 'I' for Inactive)
REMARK                            x       y       z     vdW  Elec       q    Type
REMARK                         _______ _______ _______ _____ _____    ______ ____
ROOT
ATOM      1  C   UNL A   1     -10.448  -9.366  19.077  0.00  0.00    +0.042 A 
ATOM      2  C   UNL A   1      -9.642  -9.189  19.961  0.00  0.00    +0.003 A 
ATOM      3  C   UNL A   1      -8.382  -9.775  19.913  0.00  0.00    +0.000 A 
ATOM      4  C   UNL A   1      -8.012 -10.649  18.829  0.00  0.00    +0.003 A 
ATOM      5  C   UNL A   1      -9.012 -10.818  17.863  0.00  0.00    +0.042 A 
ATOM      6  C   UNL A   1     -10.194 -10.254  17.964  0.00  0.00    +0.196 A 
ATOM      7  O   UNL A   1     -11.123 -10.501  17.000  0.00  0.00    -0.287 OA
ENDROOT
TORSDOF 0
ENDMDL
ENDMDL
