MODEL 4360
MODEL 1
REMARK VINA RESULT:    -4.515      0.000      0.000
REMARK INTER + INTRA:          -4.515
REMARK INTER:                  -4.515
REMARK INTRA:                   0.000
REMARK UNBOUND:                 0.000
REMARK  Name = No_4360-gen_results/8p0m/2024-11-27-11-27-31/
REMARK  0 active torsions:
REMARK  status: ('A' for Active; 'I' for Inactive)
REMARK                            x       y       z     vdW  Elec       q    Type
REMARK                         _______ _______ _______ _____ _____    ______ ____
ROOT
ATOM      1  C   UNL A   1      -8.878 -10.654  18.035  0.00  0.00    +0.030 A 
ATOM      2  C   UNL A   1      -9.773 -10.105  18.120  0.00  0.00    +0.140 A 
ATOM      3  C   UNL A   1      -7.881 -10.450  19.154  0.00  0.00    +0.002 A 
ATOM      4  C   UNL A   1      -8.251  -9.681  20.278  0.00  0.00    +0.000 A 
ATOM      5  C   UNL A   1     -10.406  -9.282  19.175  0.00  0.00    +0.030 A 
ATOM      6  C   UNL A   1      -9.521  -9.078  20.225  0.00  0.00    +0.002 A 
ATOM      7  F   UNL A   1     -10.731 -10.315  17.050  0.00  0.00    -0.204 F 
ENDROOT
TORSDOF 0
ENDMDL
ENDMDL
