REMARK  Name = outputs/IAG933/test6/raw/output_4360_IAG933_linker_design_.xyz
REMARK  11 active torsions:
REMARK  status: ('A' for Active; 'I' for Inactive)
REMARK    1  A    between atoms: C_1  and  C_2
REMARK    2  A    between atoms: C_1  and  C_8
REMARK    3  A    between atoms: C_1  and  N_31
REMARK    4  A    between atoms: C_13  and  O_42
REMARK    5  A    between atoms: C_14  and  C_15
REMARK    6  A    between atoms: C_21  and  O_22
REMARK    7  A    between atoms: O_22  and  C_23
REMARK    8  A    between atoms: C_23  and  C_24
REMARK    9  A    between atoms: C_30  and  O_42
REMARK   10  A    between atoms: C_34  and  N_39
REMARK   11  A    between atoms: C_37  and  N_39
REMARK                            x       y       z     vdW  Elec       q    Type
REMARK                         _______ _______ _______ _____ _____    ______ ____
ROOT
ATOM      1  O   UNL A   1     -21.746   0.654  28.328  0.00  0.00    -0.429 OA
ATOM      2  O   UNL A   1     -21.677   1.884  26.369  0.00  0.00    -0.247 OA
ATOM      3  C   UNL A   1     -23.713   1.138  27.296  0.00  0.00    +0.245 C 
ATOM      4  N   UNL A   1     -24.155   0.028  29.287  0.00  0.00    -0.216 NA
ATOM      5  C   UNL A   1     -24.914   0.913  28.431  0.00  0.00    +0.174 C 
ATOM      6  C   UNL A   1     -22.625   0.024  29.349  0.00  0.00    +0.289 C 
ATOM      7  C   UNL A   1     -22.249   1.396  27.286  0.00  0.00    +0.349 C 
ENDROOT
BRANCH   4   8
ATOM      8  C   UNL A   1     -24.855  -1.012  30.143  0.00  0.00    +0.100 C 
BRANCH   8   9
ATOM      9  C   UNL A   1     -24.973  -2.505  29.788  0.00  0.00    -0.006 C 
ATOM     10  C   UNL A   1     -23.906  -3.173  29.146  0.00  0.00    -0.003 C 
ATOM     11  C   UNL A   1     -23.989  -4.549  28.853  0.00  0.00    -0.000 C 
ATOM     12  C   UNL A   1     -25.137  -5.280  29.205  0.00  0.00    -0.000 C 
ATOM     13  C   UNL A   1     -26.232  -4.611  29.784  0.00  0.00    -0.000 C 
ATOM     14  C   UNL A   1     -26.155  -3.232  30.065  0.00  0.00    -0.003 C 
ENDBRANCH   8   9
BRANCH   8  15
ATOM     15  C   UNL A   1     -25.387  -0.679  31.571  0.00  0.00    +0.092 C 
ATOM     16  C   UNL A   1     -25.189   0.773  32.028  0.00  0.00    +0.021 C 
ATOM     17  C   UNL A   1     -25.336   0.684  33.544  0.00  0.00    +0.020 C 
ATOM     18  C   UNL A   1     -24.829  -0.715  33.905  0.00  0.00    +0.089 C 
ATOM     19  N   UNL A   1     -24.758  -1.481  32.646  0.00  0.00    -0.218 NA
ENDBRANCH   8  15
ENDBRANCH   4   8
BRANCH   5  20
ATOM     20  N   UNL A   1     -26.368   0.415  28.702  0.00  0.00    -0.202 NA
BRANCH  20  25
ATOM     21  C   UNL A   1     -27.730   2.494  29.867  0.00  0.00    +0.017 C 
ATOM     22  C   UNL A   1     -28.804   0.463  28.875  0.00  0.00    +0.017 C 
ATOM     23  C   UNL A   1     -29.119   2.357  30.518  0.00  0.00    +0.001 C 
ATOM     24  C   UNL A   1     -29.783   1.455  28.240  0.00  0.00    +0.001 C 
ATOM     25  C   UNL A   1     -27.451   1.116  29.148  0.00  0.00    +0.074 C 
ATOM     26  C   UNL A   1     -30.043   2.607  29.280  0.00  0.00    +0.000 C 
ENDBRANCH  20  25
ENDBRANCH   5  20
BRANCH   3  27
ATOM     27  O   UNL A   1     -24.227   1.562  26.185  0.00  0.00    -0.338 OA
BRANCH  27  28
ATOM     28  C   UNL A   1     -25.688   1.614  26.461  0.00  0.00    +0.186 C 
ATOM     29  C   UNL A   1     -26.250   2.920  26.395  0.00  0.00    +0.082 C 
ATOM     30  C   UNL A   1     -27.438   3.091  25.645  0.00  0.00    +0.104 C 
ATOM     31  N   UNL A   1     -28.075   2.089  25.003  0.00  0.00    -0.212 NA
ATOM     32  C   UNL A   1     -27.543   0.849  25.079  0.00  0.00    +0.237 C 
ATOM     33  C   UNL A   1     -26.354   0.576  25.777  0.00  0.00    +0.267 C 
ATOM     34  F   UNL A   1     -25.860  -0.681  25.795  0.00  0.00    -0.224 F 
BRANCH  29  35
ATOM     35  C   UNL A   1     -25.642   4.093  27.123  0.00  0.00    +0.265 C 
ATOM     36  N   UNL A   1     -25.614   5.252  26.449  0.00  0.00    -0.200 NA
ATOM     37  C   UNL A   1     -25.026   6.479  26.963  0.00  0.00    +0.139 C 
ATOM     38  O   UNL A   1     -25.143   3.966  28.243  0.00  0.00    -0.269 OA
ENDBRANCH  29  35
BRANCH  32  39
ATOM     39  O   UNL A   1     -28.193  -0.208  24.477  0.00  0.00    -0.459 OA
BRANCH  39  40
ATOM     40  C   UNL A   1     -29.460   0.005  23.866  0.00  0.00    +0.242 C 
BRANCH  40  41
ATOM     41  C   UNL A   1     -30.065  -1.377  23.573  0.00  0.00    +0.229 C 
ATOM     42  O   UNL A   1     -30.729  -1.878  24.721  0.00  0.00    -0.216 OA
ENDBRANCH  40  41
ENDBRANCH  39  40
ENDBRANCH  32  39
ENDBRANCH  27  28
ENDBRANCH   3  27
TORSDOF 11
