MODEL 4361
MODEL 1
REMARK VINA RESULT:    -8.053      0.000      0.000
REMARK INTER + INTRA:         -12.307
REMARK INTER:                 -11.348
REMARK INTRA:                  -0.959
REMARK UNBOUND:                -0.959
REMARK  Name = No_4361-gen_results/8p0m/2024-11-27-11-27-31/
REMARK  7 active torsions:
REMARK  status: ('A' for Active; 'I' for Inactive)
REMARK    1  A    between atoms: C_2  and  C_26
REMARK    2  A    between atoms: C_3  and  C_7
REMARK    3  A    between atoms: C_11  and  C_14
REMARK    4  A    between atoms: C_26  and  N_27
REMARK    5  A    between atoms: N_27  and  C_30
REMARK    6  A    between atoms: C_30  and  C_32
REMARK    7  A    between atoms: C_32  and  C_33
REMARK                            x       y       z     vdW  Elec       q    Type
REMARK                         _______ _______ _______ _____ _____    ______ ____
ROOT
ATOM      1  C   UNL A   1      -8.093   1.761  35.322  0.00  0.00    +0.002 A 
ATOM      2  C   UNL A   1      -7.419   1.725  36.131  0.00  0.00    -0.002 A 
ATOM      3  C   UNL A   1      -9.437   1.341  35.598  0.00  0.00    +0.053 A 
ATOM      4  C   UNL A   1      -9.802   0.776  36.753  0.00  0.00    +0.004 A 
ATOM      5  C   UNL A   1      -8.840   0.701  37.722  0.00  0.00    -0.000 A 
ATOM      6  C   UNL A   1      -7.561   1.171  37.430  0.00  0.00    -0.003 A 
ATOM      7  C   UNL A   1      -9.156  -0.002  39.029  0.00  0.00    -0.000 A 
ATOM      8  C   UNL A   1      -9.940  -0.750  39.168  0.00  0.00    -0.000 A 
ATOM      9  C   UNL A   1     -10.314  -1.409  40.463  0.00  0.00    -0.000 A 
ATOM     10  C   UNL A   1     -11.374  -2.302  40.655  0.00  0.00    +0.000 A 
ATOM     11  C   UNL A   1     -12.124  -2.622  39.493  0.00  0.00    +0.000 A 
ATOM     12  C   UNL A   1     -11.909  -2.051  38.262  0.00  0.00    +0.000 A 
ATOM     13  C   UNL A   1     -10.960  -1.185  38.128  0.00  0.00    +0.000 A 
ATOM     14  C   UNL A   1     -10.965  -0.160  36.876  0.00  0.00    +0.000 A 
ENDROOT
BRANCH   3  15
ATOM     15  C   UNL A   1     -10.469   1.489  34.470  0.00  0.00    +0.249 C 
ATOM     16  N   UNL A   1     -11.602   2.176  34.786  0.00  0.00    -0.276 N 
ATOM     17  C   UNL A   1     -12.819   1.862  34.409  0.00  0.00    +0.094 C 
ATOM     18  C   UNL A   1     -13.954   2.546  35.041  0.00  0.00    +0.034 C 
ATOM     19  C   UNL A   1     -13.681   3.415  36.055  0.00  0.00    +0.125 C 
ATOM     20  C   UNL A   1     -12.376   3.792  36.409  0.00  0.00    +0.034 C 
ATOM     21  C   UNL A   1     -11.531   3.090  36.052  0.00  0.00    +0.094 C 
ATOM     22  O   UNL A   1     -10.275   1.130  33.347  0.00  0.00    -0.270 OA
BRANCH  19  23
ATOM     23  C   UNL A   1     -14.748   4.083  36.918  0.00  0.00    +0.453 C 
ATOM     24  N   UNL A   1     -14.414   5.064  37.733  0.00  0.00    +0.199 NA
ATOM     25  N   UNL A   1     -16.019   3.730  36.710  0.00  0.00    +0.199 NA
ENDBRANCH  19  23
ENDBRANCH   3  15
BRANCH   2  26
ATOM     26  C   UNL A   1      -5.905   2.301  35.983  0.00  0.00    +0.119 C 
BRANCH  26  27
ATOM     27  N   UNL A   1      -5.421   2.213  34.830  0.00  0.00    -0.287 N 
ATOM     28  C   UNL A   1      -5.633   3.115  33.865  0.00  0.00    +0.159 C 
ATOM     29  N   UNL A   1      -4.946   2.922  32.681  0.00  0.00    -0.252 NA
ATOM     30  C   UNL A   1      -5.068   3.805  31.626  0.00  0.00    +0.153 C 
BRANCH  27  31
ATOM     31  C   UNL A   1      -4.565   1.153  34.525  0.00  0.00    +0.097 C 
BRANCH  31  32
ATOM     32  C   UNL A   1      -4.843  -0.038  35.317  0.00  0.00    +0.047 C 
BRANCH  32  33
ATOM     33  C   UNL A   1      -4.575  -1.046  34.842  0.00  0.00    -0.029 C 
ATOM     34  C   UNL A   1      -5.593  -1.937  34.388  0.00  0.00    -0.030 C 
ATOM     35  C   UNL A   1      -6.936  -1.670  34.701  0.00  0.00    +0.030 C 
ENDBRANCH  32  33
ENDBRANCH  31  32
ENDBRANCH  27  31
ENDBRANCH  26  27
ENDBRANCH   2  26
TORSDOF 7
ENDMDL
ENDMDL
