MODEL 4362
MODEL 1
REMARK VINA RESULT:    -6.095      0.000      0.000
REMARK INTER + INTRA:          -6.976
REMARK INTER:                  -6.808
REMARK INTRA:                  -0.168
REMARK UNBOUND:                -0.168
REMARK  Name = No_4362-gen_results/8p0m/2024-11-27-11-27-31/
REMARK  2 active torsions:
REMARK  status: ('A' for Active; 'I' for Inactive)
REMARK    1  A    between atoms: C_2  and  O_7
REMARK    2  A    between atoms: O_7  and  C_8
REMARK                            x       y       z     vdW  Elec       q    Type
REMARK                         _______ _______ _______ _____ _____    ______ ____
ROOT
ATOM      1  O   UNL A   1     -24.497  -1.242  29.511  0.00  0.00    -0.454 OA
ENDROOT
BRANCH   1   3
ATOM      2  C   UNL A   1     -23.838  -3.155  28.787  0.00  0.00    +0.037 A 
ATOM      3  C   UNL A   1     -24.620  -2.696  29.325  0.00  0.00    +0.145 A 
ATOM      4  C   UNL A   1     -23.969  -4.650  28.600  0.00  0.00    +0.003 A 
ATOM      5  C   UNL A   1     -25.154  -5.297  29.011  0.00  0.00    +0.000 A 
ATOM      6  C   UNL A   1     -25.948  -3.121  29.820  0.00  0.00    +0.037 A 
ATOM      7  C   UNL A   1     -26.108  -4.490  29.659  0.00  0.00    +0.003 A 
ENDBRANCH   1   3
BRANCH   1   8
ATOM      8  C   UNL A   1     -24.232  -0.447  28.476  0.00  0.00    +0.145 A 
ATOM      9  C   UNL A   1     -23.281   0.180  28.539  0.00  0.00    +0.037 A 
ATOM     10  C   UNL A   1     -22.951   1.153  27.448  0.00  0.00    +0.003 A 
ATOM     11  C   UNL A   1     -23.866   1.203  26.369  0.00  0.00    +0.000 A 
ATOM     12  C   UNL A   1     -24.973   0.405  26.391  0.00  0.00    +0.003 A 
ATOM     13  C   UNL A   1     -25.239  -0.440  27.408  0.00  0.00    +0.037 A 
ENDBRANCH   1   8
TORSDOF 2
ENDMDL
ENDMDL
