MODEL 4363
MODEL 1
REMARK VINA RESULT:    -6.552      0.000      0.000
REMARK INTER + INTRA:          -7.331
REMARK INTER:                  -6.935
REMARK INTRA:                  -0.397
REMARK UNBOUND:                -0.397
REMARK  Name = No_4363-gen_results/8p0m/2024-11-27-11-27-31/
REMARK  1 active torsions:
REMARK  status: ('A' for Active; 'I' for Inactive)
REMARK    1  A    between atoms: C_3  and  C_4
REMARK                            x       y       z     vdW  Elec       q    Type
REMARK                         _______ _______ _______ _____ _____    ______ ____
ROOT
ATOM      1  C   UNL A   1     -25.758  -2.570  29.815  0.00  0.00    +0.000 A 
ATOM      2  C   UNL A   1     -26.330  -3.450  29.913  0.00  0.00    +0.000 A 
ATOM      3  C   UNL A   1     -24.481  -2.676  29.222  0.00  0.00    +0.000 A 
ATOM      4  C   UNL A   1     -26.036  -4.846  29.544  0.00  0.00    +0.000 A 
ATOM      5  C   UNL A   1     -24.786  -5.028  28.953  0.00  0.00    +0.000 A 
ATOM      6  C   UNL A   1     -23.994  -3.947  28.733  0.00  0.00    +0.000 A 
ENDROOT
BRANCH   3   7
ATOM      7  C   UNL A   1     -23.596  -1.522  28.912  0.00  0.00    +0.000 A 
ATOM      8  C   UNL A   1     -22.560  -1.190  29.227  0.00  0.00    +0.000 A 
ATOM      9  C   UNL A   1     -21.780  -0.056  28.846  0.00  0.00    +0.000 A 
ATOM     10  C   UNL A   1     -22.499   0.830  27.941  0.00  0.00    +0.000 A 
ATOM     11  C   UNL A   1     -23.724   0.521  27.621  0.00  0.00    +0.000 A 
ATOM     12  C   UNL A   1     -24.324  -0.575  28.022  0.00  0.00    +0.000 A 
ENDBRANCH   3   7
TORSDOF 1
ENDMDL
ENDMDL
