MODEL 4364
MODEL 1
REMARK VINA RESULT:    -8.178      0.000      0.000
REMARK INTER + INTRA:         -10.781
REMARK INTER:                  -9.612
REMARK INTRA:                  -1.168
REMARK UNBOUND:                -1.168
REMARK  Name = No_4364-gen_results/8p0m/2024-11-27-11-27-31/
REMARK  3 active torsions:
REMARK  status: ('A' for Active; 'I' for Inactive)
REMARK    1  A    between atoms: C_2  and  N_7
REMARK    2  A    between atoms: C_4  and  C_13
REMARK    3  A    between atoms: C_15  and  C_16
REMARK                            x       y       z     vdW  Elec       q    Type
REMARK                         _______ _______ _______ _____ _____    ______ ____
ROOT
ATOM      1  C   UNL A   1     -26.376  -0.127  24.925  0.00  0.00    +0.015 A 
ATOM      2  C   UNL A   1     -27.184   0.275  25.470  0.00  0.00    +0.048 A 
ATOM      3  C   UNL A   1     -25.078  -0.258  25.689  0.00  0.00    +0.001 A 
ATOM      4  C   UNL A   1     -25.059   0.016  27.073  0.00  0.00    +0.002 A 
ATOM      5  C   UNL A   1     -27.435   0.601  26.892  0.00  0.00    +0.015 A 
ATOM      6  C   UNL A   1     -26.265   0.486  27.628  0.00  0.00    +0.001 A 
ENDROOT
BRANCH   2   7
ATOM      7  N   UNL A   1     -28.490   0.405  24.726  0.00  0.00    -0.307 N 
ATOM      8  C   UNL A   1     -29.294  -0.447  24.381  0.00  0.00    +0.091 C 
ATOM      9  C   UNL A   1     -30.367  -0.121  23.537  0.00  0.00    +0.021 C 
ATOM     10  C   UNL A   1     -28.712   1.698  24.203  0.00  0.00    +0.091 C 
ATOM     11  C   UNL A   1     -29.704   2.027  23.394  0.00  0.00    +0.021 C 
ATOM     12  C   UNL A   1     -30.582   1.041  23.062  0.00  0.00    +0.004 C 
ENDBRANCH   2   7
BRANCH   4  13
ATOM     13  C   UNL A   1     -23.831  -0.077  27.818  0.00  0.00    +0.022 A 
ATOM     14  C   UNL A   1     -22.951   0.547  27.798  0.00  0.00    +0.122 A 
ATOM     15  C   UNL A   1     -23.804  -1.260  28.760  0.00  0.00    +0.022 A 
ATOM     16  C   UNL A   1     -22.618  -0.940  29.692  0.00  0.00    +0.122 A 
ATOM     17  N   UNL A   1     -21.774   0.630  28.408  0.00  0.00    -0.146 NA
ATOM     18  N   UNL A   1     -21.620  -0.128  29.398  0.00  0.00    -0.146 NA
BRANCH  15  19
ATOM     19  C   UNL A   1     -24.430  -2.315  28.890  0.00  0.00    +0.002 A 
ATOM     20  C   UNL A   1     -24.063  -3.524  28.509  0.00  0.00    +0.000 A 
ATOM     21  C   UNL A   1     -24.621  -4.621  28.878  0.00  0.00    +0.000 A 
ATOM     22  C   UNL A   1     -25.924  -4.587  29.467  0.00  0.00    +0.000 A 
ATOM     23  C   UNL A   1     -26.470  -3.369  29.844  0.00  0.00    +0.000 A 
ATOM     24  C   UNL A   1     -25.753  -2.247  29.628  0.00  0.00    +0.000 A 
ENDBRANCH  15  19
ENDBRANCH   4  13
TORSDOF 3
ENDMDL
ENDMDL
