REMARK  Name = outputs/IAG933/test6/raw/output_4365_IAG933_linker_design_.xyz
REMARK  10 active torsions:
REMARK  status: ('A' for Active; 'I' for Inactive)
REMARK    1  A    between atoms: C_1  and  C_2
REMARK    2  A    between atoms: C_1  and  C_8
REMARK    3  A    between atoms: C_9  and  N_29
REMARK    4  A    between atoms: C_13  and  N_33
REMARK    5  A    between atoms: C_14  and  C_15
REMARK    6  A    between atoms: C_21  and  O_22
REMARK    7  A    between atoms: O_22  and  C_23
REMARK    8  A    between atoms: C_23  and  C_24
REMARK    9  A    between atoms: N_31  and  C_39
REMARK   10  A    between atoms: N_31  and  C_44
REMARK                            x       y       z     vdW  Elec       q    Type
REMARK                         _______ _______ _______ _____ _____    ______ ____
ROOT
ATOM      1  C   UNL A   1     -23.633   1.468  27.749  0.00  0.00    +0.112 C 
ATOM      2  C   UNL A   1     -23.322   2.016  25.928  0.00  0.00    +0.233 C 
ATOM      3  N   UNL A   1     -24.589   1.321  27.058  0.00  0.00    -0.256 N 
ATOM      4  C   UNL A   1     -22.277   1.101  29.687  0.00  0.00    +0.086 C 
ATOM      5  N   UNL A   1     -21.220   1.089  28.789  0.00  0.00    -0.272 NA
ATOM      6  C   UNL A   1     -22.649   1.658  27.017  0.00  0.00    +0.121 C 
ATOM      7  C   UNL A   1     -21.335   1.390  27.439  0.00  0.00    +0.136 C 
ATOM      8  O   UNL A   1     -23.273   2.601  24.863  0.00  0.00    -0.274 OA
ATOM      9  C   UNL A   1     -23.539   1.495  29.153  0.00  0.00    +0.134 C 
ENDROOT
BRANCH   3  10
ATOM     10  C   UNL A   1     -25.688   1.614  26.461  0.00  0.00    +0.092 C 
ATOM     11  C   UNL A   1     -26.250   2.920  26.395  0.00  0.00    +0.090 C 
ATOM     12  C   UNL A   1     -27.438   3.091  25.645  0.00  0.00    +0.108 C 
ATOM     13  N   UNL A   1     -28.075   2.089  25.003  0.00  0.00    -0.208 NA
ATOM     14  C   UNL A   1     -27.543   0.849  25.079  0.00  0.00    +0.255 C 
ATOM     15  C   UNL A   1     -26.354   0.576  25.777  0.00  0.00    +0.207 C 
ATOM     16  F   UNL A   1     -25.860  -0.681  25.795  0.00  0.00    -0.198 F 
BRANCH  11  17
ATOM     17  C   UNL A   1     -25.642   4.093  27.123  0.00  0.00    +0.268 C 
ATOM     18  N   UNL A   1     -25.614   5.252  26.449  0.00  0.00    -0.200 NA
ATOM     19  C   UNL A   1     -25.026   6.479  26.963  0.00  0.00    +0.139 C 
ATOM     20  O   UNL A   1     -25.143   3.966  28.243  0.00  0.00    -0.268 OA
ENDBRANCH  11  17
BRANCH  14  21
ATOM     21  O   UNL A   1     -28.193  -0.208  24.477  0.00  0.00    -0.456 OA
BRANCH  21  22
ATOM     22  C   UNL A   1     -29.460   0.005  23.866  0.00  0.00    +0.243 C 
BRANCH  22  23
ATOM     23  C   UNL A   1     -30.065  -1.377  23.573  0.00  0.00    +0.229 C 
ATOM     24  O   UNL A   1     -30.729  -1.878  24.721  0.00  0.00    -0.216 OA
ENDBRANCH  22  23
ENDBRANCH  21  22
ENDBRANCH  14  21
ENDBRANCH   3  10
BRANCH   9  25
ATOM     25  N   UNL A   1     -24.536   1.946  29.866  0.00  0.00    -0.195 NA
BRANCH  25  29
ATOM     26  C   UNL A   1     -27.056   4.422  31.002  0.00  0.00    +0.195 C 
ATOM     27  N   UNL A   1     -26.048   1.852  31.493  0.00  0.00    -0.151 NA
ATOM     28  C   UNL A   1     -27.266   3.535  32.094  0.00  0.00    +0.202 C 
ATOM     29  C   UNL A   1     -25.747   2.534  30.280  0.00  0.00    +0.159 C 
ATOM     30  F   UNL A   1     -27.329   5.545  31.861  0.00  0.00    -0.234 F 
ATOM     31  O   UNL A   1     -25.883   3.001  32.199  0.00  0.00    -0.278 OA
ATOM     32  C   UNL A   1     -25.669   4.069  30.446  0.00  0.00    +0.074 C 
BRANCH  27  34
ATOM     33  C   UNL A   1     -25.387  -0.679  31.571  0.00  0.00    +0.094 C 
ATOM     34  C   UNL A   1     -25.189   0.773  32.028  0.00  0.00    +0.103 C 
ATOM     35  C   UNL A   1     -25.336   0.684  33.544  0.00  0.00    +0.039 C 
ATOM     36  C   UNL A   1     -24.829  -0.715  33.905  0.00  0.00    +0.090 C 
ATOM     37  N   UNL A   1     -24.758  -1.481  32.646  0.00  0.00    -0.218 NA
BRANCH  33  38
ATOM     38  C   UNL A   1     -24.855  -1.012  30.143  0.00  0.00    +0.045 C 
BRANCH  38  39
ATOM     39  C   UNL A   1     -24.973  -2.505  29.788  0.00  0.00    -0.021 C 
ATOM     40  C   UNL A   1     -23.906  -3.173  29.146  0.00  0.00    -0.004 C 
ATOM     41  C   UNL A   1     -23.989  -4.549  28.853  0.00  0.00    -0.000 C 
ATOM     42  C   UNL A   1     -25.137  -5.280  29.205  0.00  0.00    -0.000 C 
ATOM     43  C   UNL A   1     -26.232  -4.611  29.784  0.00  0.00    -0.000 C 
ATOM     44  C   UNL A   1     -26.155  -3.232  30.065  0.00  0.00    -0.004 C 
ENDBRANCH  38  39
ENDBRANCH  33  38
ENDBRANCH  27  34
ENDBRANCH  25  29
ENDBRANCH   9  25
TORSDOF 10
