REMARK  Name = No_4366-gen_results/8p0m/2024-11-27-11-27-31/
REMARK  6 active torsions:
REMARK  status: ('A' for Active; 'I' for Inactive)
REMARK    1  A    between atoms: C_2  and  C_15
REMARK    2  A    between atoms: C_15  and  O_16
REMARK    3  A    between atoms: O_16  and  C_18
REMARK    4  A    between atoms: C_18  and  C_19
REMARK    5  A    between atoms: C_19  and  C_20
REMARK    6  A    between atoms: C_24  and  C_25
REMARK                            x       y       z     vdW  Elec       q    Type
REMARK                         _______ _______ _______ _____ _____    ______ ____
ROOT
ATOM      1  C   UNL A   1     -31.854  -0.360  28.628  0.00  0.00    +0.215 C 
ENDROOT
BRANCH   1   2
ATOM      2  O   UNL A   1     -30.596  -0.053  29.264  0.00  0.00    -0.445 OA
BRANCH   2   3
ATOM      3  C   UNL A   1     -30.058  -0.758  29.950  0.00  0.00    +0.341 C 
ATOM      4  O   UNL A   1     -30.638  -1.244  30.997  0.00  0.00    -0.245 OA
BRANCH   3   6
ATOM      5  C   UNL A   1     -28.016  -0.814  28.878  0.00  0.00    +0.027 A 
ATOM      6  C   UNL A   1     -28.469  -0.785  29.829  0.00  0.00    +0.077 A 
ATOM      7  C   UNL A   1     -26.546  -0.876  28.850  0.00  0.00    +0.103 A 
ATOM      8  C   UNL A   1     -25.804  -1.032  30.057  0.00  0.00    +0.021 A 
ATOM      9  C   UNL A   1     -26.537  -1.039  31.217  0.00  0.00    +0.002 A 
ATOM     10  C   UNL A   1     -27.884  -0.953  31.186  0.00  0.00    +0.006 A 
ATOM     11  C   UNL A   1     -24.355  -1.112  30.035  0.00  0.00    +0.021 A 
ATOM     12  C   UNL A   1     -23.708  -1.192  30.883  0.00  0.00    +0.002 A 
ATOM     13  C   UNL A   1     -22.199  -1.095  30.934  0.00  0.00    +0.000 A 
ATOM     14  C   UNL A   1     -21.656  -0.835  29.724  0.00  0.00    +0.002 A 
ATOM     15  C   UNL A   1     -22.411  -0.649  28.551  0.00  0.00    +0.021 A 
ATOM     16  C   UNL A   1     -23.855  -0.778  28.701  0.00  0.00    +0.103 A 
ATOM     17  N   UNL A   1     -25.828  -0.819  27.715  0.00  0.00    -0.148 NA
ATOM     18  N   UNL A   1     -24.612  -0.638  27.632  0.00  0.00    -0.148 NA
ENDBRANCH   3   6
ENDBRANCH   2   3
ENDBRANCH   1   2
BRANCH   1  19
ATOM     19  C   UNL A   1     -32.456   0.817  28.095  0.00  0.00    +0.093 C 
BRANCH  19  20
ATOM     20  C   UNL A   1     -31.941   2.012  28.241  0.00  0.00    +0.062 A 
ATOM     21  N   UNL A   1     -31.427   2.711  27.646  0.00  0.00    -0.248 NA
ATOM     22  C   UNL A   1     -30.485   3.642  27.928  0.00  0.00    +0.098 A 
ATOM     23  C   UNL A   1     -29.721   3.673  28.601  0.00  0.00    +0.018 A 
ATOM     24  C   UNL A   1     -30.180   3.070  29.945  0.00  0.00    -0.005 A 
ATOM     25  C   UNL A   1     -31.253   2.157  29.674  0.00  0.00    +0.012 A 
BRANCH  24  26
ATOM     26  C   UNL A   1     -29.473   3.119  31.204  0.00  0.00    +0.080 C 
ATOM     27  N   UNL A   1     -28.221   2.961  31.334  0.00  0.00    -0.272 NA
ATOM     28  C   UNL A   1     -27.643   2.661  32.507  0.00  0.00    +0.058 C 
ATOM     29  C   UNL A   1     -30.275   3.441  32.339  0.00  0.00    +0.021 C 
ATOM     30  C   UNL A   1     -29.680   3.249  33.631  0.00  0.00    +0.003 C 
ATOM     31  C   UNL A   1     -28.279   2.949  33.707  0.00  0.00    +0.016 C 
ATOM     32  C   UNL A   1     -27.364   2.395  30.202  0.00  0.00    +0.072 C 
ATOM     33  C   UNL A   1     -25.967   2.881  30.382  0.00  0.00    +0.017 C 
ATOM     34  C   UNL A   1     -25.333   2.518  31.643  0.00  0.00    +0.003 C 
ATOM     35  C   UNL A   1     -26.166   2.631  32.713  0.00  0.00    +0.016 C 
ENDBRANCH  24  26
ENDBRANCH  19  20
ENDBRANCH   1  19
TORSDOF 6
