REMARK  Name = No_4367-gen_results/8p0m/2024-11-27-11-27-31/
REMARK  0 active torsions:
REMARK  status: ('A' for Active; 'I' for Inactive)
REMARK                            x       y       z     vdW  Elec       q    Type
REMARK                         _______ _______ _______ _____ _____    ______ ____
ROOT
ATOM      1  C   UNL A   1     -28.016  -0.814  28.878  0.00  0.00    +0.000 A 
ATOM      2  C   UNL A   1     -27.064  -0.119  28.608  0.00  0.00    +0.000 A 
ATOM      3  C   UNL A   1     -26.876   1.133  28.913  0.00  0.00    +0.000 A 
ATOM      4  C   UNL A   1     -27.901   1.807  29.644  0.00  0.00    +0.000 A 
ATOM      5  C   UNL A   1     -28.945   1.039  30.036  0.00  0.00    +0.000 A 
ATOM      6  C   UNL A   1     -29.027  -0.287  29.702  0.00  0.00    +0.000 A 
ATOM      7  C   UNL A   1     -25.678   1.932  28.465  0.00  0.00    +0.000 A 
ATOM      8  C   UNL A   1     -24.942   1.732  27.648  0.00  0.00    +0.000 A 
ATOM      9  C   UNL A   1     -24.911   0.478  26.924  0.00  0.00    +0.000 A 
ATOM     10  C   UNL A   1     -26.006  -0.619  27.603  0.00  0.00    +0.000 A 
ENDROOT
TORSDOF 0
