REMARK  Name = No_4368-gen_results/8p0m/2024-11-27-11-27-31/
REMARK  1 active torsions:
REMARK  status: ('A' for Active; 'I' for Inactive)
REMARK    1  A    between atoms: C_5  and  C_7
REMARK                            x       y       z     vdW  Elec       q    Type
REMARK                         _______ _______ _______ _____ _____    ______ ____
ROOT
ATOM      1  C   UNL A   1     -30.370   0.226  26.160  0.00  0.00    +0.253 C 
ATOM      2  O   UNL A   1     -30.339   0.216  24.966  0.00  0.00    -0.270 OA
ATOM      3  N   UNL A   1     -31.635   0.120  26.780  0.00  0.00    -0.254 N 
ATOM      4  C   UNL A   1     -31.852   0.140  28.172  0.00  0.00    +0.063 C 
ATOM      5  C   UNL A   1     -32.808   0.192  25.874  0.00  0.00    +0.103 C 
ATOM      6  C   UNL A   1     -33.137   0.529  28.434  0.00  0.00    -0.009 C 
ATOM      7  C   UNL A   1     -33.873   0.402  27.231  0.00  0.00    +0.043 C 
ATOM      8  C   UNL A   1     -34.869  -0.731  27.130  0.00  0.00    +0.006 C 
ENDROOT
BRANCH   1  13
ATOM      9  C   UNL A   1     -28.016  -0.814  28.878  0.00  0.00    +0.000 A 
ATOM     10  C   UNL A   1     -27.064  -0.119  28.608  0.00  0.00    +0.000 A 
ATOM     11  C   UNL A   1     -26.972   0.714  27.506  0.00  0.00    +0.000 A 
ATOM     12  C   UNL A   1     -28.105   0.774  26.642  0.00  0.00    +0.004 A 
ATOM     13  C   UNL A   1     -29.201   0.104  27.053  0.00  0.00    +0.054 A 
ATOM     14  C   UNL A   1     -29.210  -0.603  28.185  0.00  0.00    +0.004 A 
ENDBRANCH   1  13
TORSDOF 1
