MODEL 4368
MODEL 1
REMARK VINA RESULT:    -6.377      0.000      0.000
REMARK INTER + INTRA:          -6.722
REMARK INTER:                  -6.749
REMARK INTRA:                   0.027
REMARK UNBOUND:                 0.027
REMARK  Name = No_4368-gen_results/8p0m/2024-11-27-11-27-31/
REMARK  1 active torsions:
REMARK  status: ('A' for Active; 'I' for Inactive)
REMARK    1  A    between atoms: C_5  and  C_7
REMARK                            x       y       z     vdW  Elec       q    Type
REMARK                         _______ _______ _______ _____ _____    ______ ____
ROOT
ATOM      1  C   UNL A   1     -23.591  -1.342  29.419  0.00  0.00    +0.253 C 
ATOM      2  O   UNL A   1     -22.681  -1.104  30.156  0.00  0.00    -0.270 OA
ATOM      3  N   UNL A   1     -23.837  -0.427  28.371  0.00  0.00    -0.254 N 
ATOM      4  C   UNL A   1     -24.880  -0.543  27.432  0.00  0.00    +0.063 C 
ATOM      5  C   UNL A   1     -23.049   0.830  28.410  0.00  0.00    +0.103 C 
ATOM      6  C   UNL A   1     -25.168   0.687  26.906  0.00  0.00    -0.009 C 
ATOM      7  C   UNL A   1     -24.081   1.543  27.208  0.00  0.00    +0.043 C 
ATOM      8  C   UNL A   1     -23.157   1.936  26.078  0.00  0.00    +0.006 C 
ENDROOT
BRANCH   1  13
ATOM      9  C   UNL A   1     -24.556  -4.920  28.897  0.00  0.00    +0.000 A 
ATOM     10  C   UNL A   1     -25.697  -4.890  29.296  0.00  0.00    +0.000 A 
ATOM     11  C   UNL A   1     -26.316  -3.787  29.859  0.00  0.00    +0.000 A 
ATOM     12  C   UNL A   1     -25.550  -2.587  29.944  0.00  0.00    +0.004 A 
ATOM     13  C   UNL A   1     -24.337  -2.614  29.355  0.00  0.00    +0.054 A 
ATOM     14  C   UNL A   1     -23.868  -3.712  28.759  0.00  0.00    +0.004 A 
ENDBRANCH   1  13
TORSDOF 1
ENDMDL
ENDMDL
