MODEL 4369
MODEL 1
REMARK VINA RESULT:    -6.232      0.000      0.000
REMARK INTER + INTRA:          -8.754
REMARK INTER:                  -8.054
REMARK INTRA:                  -0.700
REMARK UNBOUND:                -0.700
REMARK  Name = No_4369-gen_results/8p0m/2024-11-27-11-27-31/
REMARK  5 active torsions:
REMARK  status: ('A' for Active; 'I' for Inactive)
REMARK    1  A    between atoms: C_2  and  C_7
REMARK    2  A    between atoms: N_9  and  C_10
REMARK    3  A    between atoms: C_11  and  C_12
REMARK    4  A    between atoms: C_12  and  C_13
REMARK    5  A    between atoms: C_14  and  C_15
REMARK                            x       y       z     vdW  Elec       q    Type
REMARK                         _______ _______ _______ _____ _____    ______ ____
ROOT
ATOM      1  C   UNL A   1     -23.674  -1.545  28.982  0.00  0.00    +0.269 C 
ATOM      2  O   UNL A   1     -22.619  -1.870  28.851  0.00  0.00    -0.268 OA
ATOM      3  N   UNL A   1     -24.047  -0.241  29.258  0.00  0.00    -0.174 NA
ENDROOT
BRANCH   1   5
ATOM      4  C   UNL A   1     -25.605  -2.513  29.714  0.00  0.00    +0.005 A 
ATOM      5  C   UNL A   1     -24.710  -2.751  29.212  0.00  0.00    +0.055 A 
ATOM      6  C   UNL A   1     -26.557  -3.668  29.930  0.00  0.00    +0.000 A 
ATOM      7  C   UNL A   1     -26.146  -4.975  29.592  0.00  0.00    +0.000 A 
ATOM      8  C   UNL A   1     -24.039  -4.003  28.795  0.00  0.00    +0.005 A 
ATOM      9  C   UNL A   1     -24.882  -5.089  28.984  0.00  0.00    +0.000 A 
ENDBRANCH   1   5
BRANCH   3  10
ATOM     10  C   UNL A   1     -23.070   0.794  29.078  0.00  0.00    +0.085 C 
ATOM     11  C   UNL A   1     -23.015   1.641  28.446  0.00  0.00    -0.004 C 
BRANCH  11  12
ATOM     12  C   UNL A   1     -24.017   1.822  27.389  0.00  0.00    +0.053 C 
BRANCH  12  13
ATOM     13  C   UNL A   1     -23.593   1.940  25.967  0.00  0.00    -0.021 C 
ATOM     14  C   UNL A   1     -24.198   1.045  25.100  0.00  0.00    -0.004 C 
BRANCH  14  15
ATOM     15  C   UNL A   1     -25.175   0.122  25.587  0.00  0.00    -0.000 C 
ATOM     16  C   UNL A   1     -26.347  -0.071  24.955  0.00  0.00    -0.000 C 
ENDBRANCH  14  15
ENDBRANCH  12  13
ENDBRANCH  11  12
ENDBRANCH   3  10
TORSDOF 5
ENDMDL
ENDMDL
