REMARK  Name = outputs/IAG933/test6/raw/output_4370_IAG933_linker_design_.xyz
REMARK  14 active torsions:
REMARK  status: ('A' for Active; 'I' for Inactive)
REMARK    1  A    between atoms: C_1  and  C_2
REMARK    2  A    between atoms: C_1  and  C_8
REMARK    3  A    between atoms: C_1  and  C_29
REMARK    4  A    between atoms: C_13  and  N_31
REMARK    5  A    between atoms: C_14  and  C_15
REMARK    6  A    between atoms: C_21  and  O_22
REMARK    7  A    between atoms: O_22  and  C_23
REMARK    8  A    between atoms: C_23  and  C_24
REMARK    9  A    between atoms: C_29  and  C_40
REMARK   10  A    between atoms: C_34  and  C_38
REMARK   11  A    between atoms: C_34  and  N_42
REMARK   12  A    between atoms: O_35  and  C_40
REMARK   13  A    between atoms: O_35  and  C_41
REMARK   14  A    between atoms: C_38  and  C_41
REMARK                            x       y       z     vdW  Elec       q    Type
REMARK                         _______ _______ _______ _____ _____    ______ ____
ROOT
ATOM      1  C   UNL A   1     -25.534  -0.202  28.981  0.00  0.00    +0.070 C 
ATOM      2  C   UNL A   1     -21.149   1.674  27.604  0.00  0.00    +0.060 C 
ATOM      3  N   UNL A   1     -24.622   1.239  27.226  0.00  0.00    -0.166 N 
ATOM      4  C   UNL A   1     -23.400   1.583  26.560  0.00  0.00    +0.258 C 
ATOM      5  C   UNL A   1     -24.513   0.524  28.330  0.00  0.00    +0.308 C 
ATOM      6  C   UNL A   1     -22.708   1.560  27.571  0.00  0.00    +0.252 C 
ATOM      7  N   UNL A   1     -23.173   0.624  28.557  0.00  0.00    -0.037 NA
ENDROOT
BRANCH   3   8
ATOM      8  C   UNL A   1     -25.688   1.614  26.461  0.00  0.00    +0.177 C 
ATOM      9  C   UNL A   1     -26.250   2.920  26.395  0.00  0.00    +0.114 C 
ATOM     10  C   UNL A   1     -27.438   3.091  25.645  0.00  0.00    +0.110 C 
ATOM     11  N   UNL A   1     -28.075   2.089  25.003  0.00  0.00    -0.208 NA
ATOM     12  C   UNL A   1     -27.543   0.849  25.079  0.00  0.00    +0.257 C 
ATOM     13  C   UNL A   1     -26.354   0.576  25.777  0.00  0.00    +0.230 C 
ATOM     14  F   UNL A   1     -25.860  -0.681  25.795  0.00  0.00    -0.196 F 
BRANCH   9  15
ATOM     15  C   UNL A   1     -25.642   4.093  27.123  0.00  0.00    +0.270 C 
ATOM     16  N   UNL A   1     -25.614   5.252  26.449  0.00  0.00    -0.200 NA
ATOM     17  C   UNL A   1     -25.026   6.479  26.963  0.00  0.00    +0.139 C 
ATOM     18  O   UNL A   1     -25.143   3.966  28.243  0.00  0.00    -0.268 OA
ENDBRANCH   9  15
BRANCH  12  19
ATOM     19  O   UNL A   1     -28.193  -0.208  24.477  0.00  0.00    -0.456 OA
BRANCH  19  20
ATOM     20  C   UNL A   1     -29.460   0.005  23.866  0.00  0.00    +0.243 C 
BRANCH  20  21
ATOM     21  C   UNL A   1     -30.065  -1.377  23.573  0.00  0.00    +0.229 C 
ATOM     22  O   UNL A   1     -30.729  -1.878  24.721  0.00  0.00    -0.216 OA
ENDBRANCH  20  21
ENDBRANCH  19  20
ENDBRANCH  12  19
ENDBRANCH   3   8
BRANCH   1  23
ATOM     23  C   UNL A   1     -24.855  -1.012  30.143  0.00  0.00    +0.066 C 
BRANCH  23  24
ATOM     24  C   UNL A   1     -24.973  -2.505  29.788  0.00  0.00    -0.017 C 
ATOM     25  C   UNL A   1     -23.906  -3.173  29.146  0.00  0.00    -0.004 C 
ATOM     26  C   UNL A   1     -23.989  -4.549  28.853  0.00  0.00    -0.000 C 
ATOM     27  C   UNL A   1     -25.137  -5.280  29.205  0.00  0.00    -0.000 C 
ATOM     28  C   UNL A   1     -26.232  -4.611  29.784  0.00  0.00    -0.000 C 
ATOM     29  C   UNL A   1     -26.155  -3.232  30.065  0.00  0.00    -0.004 C 
ENDBRANCH  23  24
BRANCH  23  30
ATOM     30  C   UNL A   1     -25.387  -0.679  31.571  0.00  0.00    +0.081 C 
ATOM     31  C   UNL A   1     -25.189   0.773  32.028  0.00  0.00    +0.019 C 
ATOM     32  C   UNL A   1     -25.336   0.684  33.544  0.00  0.00    +0.020 C 
ATOM     33  C   UNL A   1     -24.829  -0.715  33.905  0.00  0.00    +0.089 C 
ATOM     34  N   UNL A   1     -24.758  -1.481  32.646  0.00  0.00    -0.219 NA
ENDBRANCH  23  30
ENDBRANCH   1  23
BRANCH   1  35
ATOM     35  C   UNL A   1     -27.070  -0.324  28.650  0.00  0.00    +0.172 C 
BRANCH  35  36
ATOM     36  O   UNL A   1     -27.955   0.724  29.086  0.00  0.00    -0.349 OA
BRANCH  36  37
ATOM     37  C   UNL A   1     -29.305   0.262  28.914  0.00  0.00    +0.144 C 
BRANCH  37  38
ATOM     38  C   UNL A   1     -30.412   1.284  28.651  0.00  0.00    +0.049 C 
BRANCH  38  39
ATOM     39  C   UNL A   1     -29.729   2.648  28.742  0.00  0.00    +0.075 C 
BRANCH  39  42
ATOM     40  C   UNL A   1     -30.752   3.365  30.552  0.00  0.00    +0.090 C 
ATOM     41  C   UNL A   1     -28.426   3.003  31.225  0.00  0.00    +0.090 C 
ATOM     42  N   UNL A   1     -29.547   2.854  30.262  0.00  0.00    -0.270 NA
ENDBRANCH  39  42
ENDBRANCH  38  39
ENDBRANCH  37  38
ENDBRANCH  36  37
ENDBRANCH  35  36
ENDBRANCH   1  35
TORSDOF 14
