MODEL 4371
MODEL 1
REMARK VINA RESULT:    -4.960      0.000      0.000
REMARK INTER + INTRA:          -5.400
REMARK INTER:                  -5.250
REMARK INTRA:                  -0.150
REMARK UNBOUND:                -0.150
REMARK  Name = No_4371-gen_results/8p0m/2024-11-27-11-27-31/
REMARK  1 active torsions:
REMARK  status: ('A' for Active; 'I' for Inactive)
REMARK    1  A    between atoms: C_5  and  C_8
REMARK                            x       y       z     vdW  Elec       q    Type
REMARK                         _______ _______ _______ _____ _____    ______ ____
ROOT
ATOM      1 CL   UNL A   1     -24.214  -2.913  29.600  0.00  0.00    -0.082 Cl
ATOM      2  C   UNL A   1     -23.883  -1.710  29.055  0.00  0.00    +0.058 A 
ATOM      3  C   UNL A   1     -24.622  -1.147  28.154  0.00  0.00    +0.011 A 
ATOM      4  C   UNL A   1     -24.287   0.084  27.437  0.00  0.00    +0.005 A 
ATOM      5  C   UNL A   1     -23.046   0.691  27.755  0.00  0.00    +0.071 A 
ATOM      6  C   UNL A   1     -22.229   0.041  28.671  0.00  0.00    +0.005 A 
ATOM      7  C   UNL A   1     -22.577  -1.129  29.270  0.00  0.00    +0.011 A 
ENDROOT
BRANCH   5   8
ATOM      8  C   UNL A   1     -22.641   1.916  27.067  0.00  0.00    +0.419 C 
ATOM      9  F   UNL A   1     -23.365   2.903  27.490  0.00  0.00    -0.166 F 
ATOM     10  F   UNL A   1     -22.848   1.867  25.773  0.00  0.00    -0.166 F 
ATOM     11  F   UNL A   1     -21.365   2.234  27.315  0.00  0.00    -0.166 F 
ENDBRANCH   5   8
TORSDOF 1
ENDMDL
ENDMDL
