MODEL 4372
MODEL 1
REMARK VINA RESULT:    -7.948      0.000      0.000
REMARK INTER + INTRA:         -13.460
REMARK INTER:                 -11.665
REMARK INTRA:                  -1.795
REMARK UNBOUND:                -1.795
REMARK  Name = No_4372-gen_results/8p0m/2024-11-27-11-27-31/
REMARK  8 active torsions:
REMARK  status: ('A' for Active; 'I' for Inactive)
REMARK    1  A    between atoms: C_1  and  C_14
REMARK    2  A    between atoms: C_3  and  C_26
REMARK    3  A    between atoms: C_5  and  N_7
REMARK    4  A    between atoms: C_14  and  O_16
REMARK    5  A    between atoms: O_16  and  C_17
REMARK    6  A    between atoms: C_21  and  C_23
REMARK    7  A    between atoms: C_30  and  C_31
REMARK    8  A    between atoms: C_31  and  O_34
REMARK                            x       y       z     vdW  Elec       q    Type
REMARK                         _______ _______ _______ _____ _____    ______ ____
ROOT
ATOM      1  C   UNL A   1     -10.610   1.109  35.296  0.00  0.00    +0.077 A 
ATOM      2  C   UNL A   1      -9.562   0.729  34.827  0.00  0.00    +0.006 A 
ATOM      3  C   UNL A   1      -8.722  -0.167  35.459  0.00  0.00    +0.002 A 
ATOM      4  C   UNL A   1      -9.136  -0.699  36.712  0.00  0.00    +0.015 A 
ATOM      5  C   UNL A   1     -10.388  -0.377  37.112  0.00  0.00    +0.048 A 
ATOM      6  C   UNL A   1     -11.140   0.459  36.421  0.00  0.00    +0.021 A 
ENDROOT
BRANCH   5   7
ATOM      7  N   UNL A   1     -10.797  -0.931  38.320  0.00  0.00    -0.309 N 
ATOM      8  C   UNL A   1     -11.692  -1.883  38.395  0.00  0.00    +0.073 C 
ATOM      9  C   UNL A   1     -11.752  -2.720  37.720  0.00  0.00    +0.021 C 
ATOM     10  C   UNL A   1     -11.865  -2.299  39.868  0.00  0.00    +0.020 C 
ATOM     11  C   UNL A   1     -10.099  -0.357  39.470  0.00  0.00    +0.091 C 
ATOM     12  C   UNL A   1     -10.610  -0.669  40.672  0.00  0.00    +0.021 C 
ATOM     13  C   UNL A   1     -11.557  -1.576  40.940  0.00  0.00    +0.004 C 
ENDBRANCH   5   7
BRANCH   3  14
ATOM     14  C   UNL A   1      -7.330  -0.521  35.006  0.00  0.00    +0.006 A 
ATOM     15  C   UNL A   1      -6.973  -1.549  34.501  0.00  0.00    +0.000 A 
ATOM     16  C   UNL A   1      -5.570  -1.889  34.303  0.00  0.00    +0.000 A 
ATOM     17  C   UNL A   1      -4.648  -0.993  34.871  0.00  0.00    +0.000 A 
ATOM     18  C   UNL A   1      -6.252   0.309  35.635  0.00  0.00    +0.076 A 
ATOM     19  C   UNL A   1      -4.843   0.070  35.536  0.00  0.00    +0.006 A 
BRANCH  18  20
ATOM     20  C   UNL A   1      -6.667   1.605  36.331  0.00  0.00    +0.341 C 
ATOM     21  O   UNL A   1      -6.729   2.543  35.927  0.00  0.00    -0.245 OA
BRANCH  20  22
ATOM     22  O   UNL A   1      -6.571   1.432  37.729  0.00  0.00    -0.441 OA
ATOM     23  C   UNL A   1      -6.266   2.597  38.422  0.00  0.00    +0.256 C 
ENDBRANCH  20  22
ENDBRANCH  18  20
ENDBRANCH   3  14
BRANCH   1  24
ATOM     24  C   UNL A   1     -11.546   2.052  34.516  0.00  0.00    +0.346 C 
ATOM     25  O   UNL A   1     -12.147   1.944  33.711  0.00  0.00    -0.244 OA
BRANCH  24  26
ATOM     26  O   UNL A   1     -11.435   3.317  35.185  0.00  0.00    -0.421 OA
BRANCH  26  27
ATOM     27  C   UNL A   1     -12.322   3.669  36.120  0.00  0.00    +0.149 A 
ATOM     28  C   UNL A   1     -11.760   4.218  37.205  0.00  0.00    +0.038 A 
ATOM     29  C   UNL A   1     -12.677   4.578  38.271  0.00  0.00    +0.003 A 
ATOM     30  C   UNL A   1     -14.085   4.483  38.100  0.00  0.00    +0.007 A 
ATOM     31  C   UNL A   1     -14.552   3.856  36.914  0.00  0.00    +0.083 A 
ATOM     32  C   UNL A   1     -13.696   3.425  35.940  0.00  0.00    +0.044 A 
BRANCH  31  33
ATOM     33  C   UNL A   1     -16.004   3.604  36.815  0.00  0.00    +0.388 C 
ATOM     34  O   UNL A   1     -16.602   3.725  35.732  0.00  0.00    -0.241 OA
ATOM     35  O   UNL A   1     -16.635   3.379  37.944  0.00  0.00    -0.241 OA
ENDBRANCH  31  33
ENDBRANCH  26  27
ENDBRANCH  24  26
ENDBRANCH   1  24
TORSDOF 8
ENDMDL
ENDMDL
