REMARK  Name = No_4372-gen_results/8p0m/2024-11-27-11-27-31/
REMARK  8 active torsions:
REMARK  status: ('A' for Active; 'I' for Inactive)
REMARK    1  A    between atoms: C_1  and  C_14
REMARK    2  A    between atoms: C_3  and  C_26
REMARK    3  A    between atoms: C_5  and  N_7
REMARK    4  A    between atoms: C_14  and  O_16
REMARK    5  A    between atoms: O_16  and  C_17
REMARK    6  A    between atoms: C_21  and  C_23
REMARK    7  A    between atoms: C_30  and  C_31
REMARK    8  A    between atoms: C_31  and  O_34
REMARK                            x       y       z     vdW  Elec       q    Type
REMARK                         _______ _______ _______ _____ _____    ______ ____
ROOT
ATOM      1  C   UNL A   1     -28.016  -0.814  28.878  0.00  0.00    +0.077 A 
ATOM      2  C   UNL A   1     -27.064  -0.119  28.608  0.00  0.00    +0.006 A 
ATOM      3  C   UNL A   1     -27.001   0.691  27.491  0.00  0.00    +0.002 A 
ATOM      4  C   UNL A   1     -28.137   0.736  26.635  0.00  0.00    +0.015 A 
ATOM      5  C   UNL A   1     -29.236   0.076  27.069  0.00  0.00    +0.048 A 
ATOM      6  C   UNL A   1     -29.218  -0.643  28.175  0.00  0.00    +0.021 A 
ENDROOT
BRANCH   5   7
ATOM      7  N   UNL A   1     -30.352   0.156  26.243  0.00  0.00    -0.309 N 
ATOM      8  C   UNL A   1     -30.269   0.123  24.937  0.00  0.00    +0.073 C 
ATOM      9  C   UNL A   1     -29.612  -0.525  24.382  0.00  0.00    +0.021 C 
ATOM     10  C   UNL A   1     -31.688   0.177  24.339  0.00  0.00    +0.020 C 
ATOM     11  C   UNL A   1     -31.605   0.249  26.992  0.00  0.00    +0.091 C 
ATOM     12  C   UNL A   1     -32.690   0.569  26.269  0.00  0.00    +0.021 C 
ATOM     13  C   UNL A   1     -32.785   0.633  24.935  0.00  0.00    +0.004 C 
ENDBRANCH   5   7
BRANCH   3  14
ATOM     14  C   UNL A   1     -25.773   1.423  27.016  0.00  0.00    +0.006 A 
ATOM     15  C   UNL A   1     -25.064   1.125  26.095  0.00  0.00    +0.000 A 
ATOM     16  C   UNL A   1     -23.777   1.760  25.849  0.00  0.00    +0.000 A 
ATOM     17  C   UNL A   1     -23.347   2.655  26.844  0.00  0.00    +0.000 A 
ATOM     18  C   UNL A   1     -25.167   2.332  28.042  0.00  0.00    +0.076 A 
ATOM     19  C   UNL A   1     -23.903   2.997  27.932  0.00  0.00    +0.006 A 
BRANCH  18  20
ATOM     20  C   UNL A   1     -26.018   2.701  29.257  0.00  0.00    +0.341 C 
ATOM     21  O   UNL A   1     -27.004   2.973  29.274  0.00  0.00    -0.245 OA
BRANCH  20  22
ATOM     22  O   UNL A   1     -25.168   3.018  30.339  0.00  0.00    -0.441 OA
ATOM     23  C   UNL A   1     -25.836   3.217  31.541  0.00  0.00    +0.256 C 
ENDBRANCH  20  22
ENDBRANCH  18  20
ENDBRANCH   3  14
BRANCH   1  24
ATOM     24  C   UNL A   1     -28.065  -1.642  30.176  0.00  0.00    +0.346 C 
ATOM     25  O   UNL A   1     -28.589  -1.575  31.037  0.00  0.00    -0.244 OA
BRANCH  24  26
ATOM     26  O   UNL A   1     -27.110  -2.696  29.977  0.00  0.00    -0.421 OA
BRANCH  26  27
ATOM     27  C   UNL A   1     -25.825  -2.411  29.746  0.00  0.00    +0.149 A 
ATOM     28  C   UNL A   1     -25.258  -3.218  28.839  0.00  0.00    +0.038 A 
ATOM     29  C   UNL A   1     -23.850  -2.979  28.583  0.00  0.00    +0.003 A 
ATOM     30  C   UNL A   1     -23.171  -1.869  29.155  0.00  0.00    +0.007 A 
ATOM     31  C   UNL A   1     -23.878  -1.107  30.124  0.00  0.00    +0.083 A 
ATOM     32  C   UNL A   1     -25.178  -1.377  30.446  0.00  0.00    +0.044 A 
BRANCH  31  33
ATOM     33  C   UNL A   1     -23.118  -0.062  30.840  0.00  0.00    +0.388 C 
ATOM     34  O   UNL A   1     -23.633   0.575  31.776  0.00  0.00    -0.241 OA
ATOM     35  O   UNL A   1     -21.937   0.238  30.353  0.00  0.00    -0.241 OA
ENDBRANCH  31  33
ENDBRANCH  26  27
ENDBRANCH  24  26
ENDBRANCH   1  24
TORSDOF 8
