MODEL 4373
MODEL 1
REMARK VINA RESULT:    -7.058      0.000      0.000
REMARK INTER + INTRA:         -11.354
REMARK INTER:                  -9.534
REMARK INTRA:                  -1.821
REMARK UNBOUND:                -1.821
REMARK  Name = No_4373-gen_results/8p0m/2024-11-27-11-27-31/
REMARK  6 active torsions:
REMARK  status: ('A' for Active; 'I' for Inactive)
REMARK    1  A    between atoms: C_2  and  C_7
REMARK    2  A    between atoms: N_8  and  C_10
REMARK    3  A    between atoms: C_10  and  C_11
REMARK    4  A    between atoms: C_10  and  C_14
REMARK    5  A    between atoms: C_14  and  C_15
REMARK    6  A    between atoms: C_16  and  C_17
REMARK                            x       y       z     vdW  Elec       q    Type
REMARK                         _______ _______ _______ _____ _____    ______ ____
ROOT
ATOM      1  C   UNL A   1     -24.921   1.859  29.894  0.00  0.00    +0.338 C 
ENDROOT
BRANCH   1   3
ATOM      2  C   UNL A   1     -23.164   1.023  28.694  0.00  0.00    +0.411 C 
ATOM      3  N   UNL A   1     -23.522   1.529  29.582  0.00  0.00    -0.049 NA
ATOM      4  N   UNL A   1     -21.833   0.754  28.512  0.00  0.00    +0.216 NA
BRANCH   2   6
ATOM      5  C   UNL A   1     -24.653  -0.166  27.238  0.00  0.00    +0.008 A 
ATOM      6  C   UNL A   1     -23.869   0.737  27.415  0.00  0.00    +0.090 A 
ATOM      7  C   UNL A   1     -23.563   1.632  26.396  0.00  0.00    +0.008 A 
ATOM      8  C   UNL A   1     -24.136   1.485  25.083  0.00  0.00    +0.000 A 
ATOM      9  C   UNL A   1     -25.014   0.400  24.959  0.00  0.00    +0.000 A 
ATOM     10  C   UNL A   1     -25.257  -0.428  25.950  0.00  0.00    +0.000 A 
ENDBRANCH   2   6
ENDBRANCH   1   3
BRANCH   1  11
ATOM     11  C   UNL A   1     -25.423   2.947  29.469  0.00  0.00    +0.502 C 
ATOM     12  N   UNL A   1     -26.206   3.050  28.411  0.00  0.00    +0.204 NA
ATOM     13  N   UNL A   1     -25.435   4.047  30.214  0.00  0.00    +0.204 NA
ENDBRANCH   1  11
BRANCH   1  14
ATOM     14  C   UNL A   1     -25.582   0.958  30.787  0.00  0.00    +0.089 C 
BRANCH  14  15
ATOM     15  C   UNL A   1     -25.928   0.041  30.558  0.00  0.00    -0.043 C 
ATOM     16  C   UNL A   1     -25.845  -1.064  30.547  0.00  0.00    -0.028 C 
ATOM     17  C   UNL A   1     -25.335  -0.982  32.092  0.00  0.00    +0.030 C 
ATOM     18  C   UNL A   1     -27.168  -0.039  29.581  0.00  0.00    +0.026 C 
BRANCH  16  19
ATOM     19  C   UNL A   1     -25.604  -2.279  30.280  0.00  0.00    +0.019 A 
ATOM     20  C   UNL A   1     -26.486  -3.245  30.160  0.00  0.00    -0.020 A 
ATOM     21  C   UNL A   1     -24.148  -2.629  29.974  0.00  0.00    +0.139 A 
ATOM     22  F   UNL A   1     -23.391  -1.765  29.787  0.00  0.00    -0.204 F 
ATOM     23  C   UNL A   1     -24.068  -3.650  28.867  0.00  0.00    +0.030 A 
ATOM     24  C   UNL A   1     -24.875  -4.857  29.034  0.00  0.00    +0.002 A 
ATOM     25  C   UNL A   1     -27.807  -3.071  30.694  0.00  0.00    +0.031 C 
ATOM     26  C   UNL A   1     -26.214  -4.540  29.523  0.00  0.00    -0.004 A 
ENDBRANCH  16  19
ENDBRANCH  14  15
ENDBRANCH   1  14
TORSDOF 6
ENDMDL
ENDMDL
