REMARK  Name = outputs/IAG933/test6/raw/output_4373_IAG933_linker_design_.xyz
REMARK  11 active torsions:
REMARK  status: ('A' for Active; 'I' for Inactive)
REMARK    1  A    between atoms: C_1  and  C_2
REMARK    2  A    between atoms: C_1  and  C_8
REMARK    3  A    between atoms: C_1  and  C_33
REMARK    4  A    between atoms: C_13  and  C_43
REMARK    5  A    between atoms: C_14  and  C_15
REMARK    6  A    between atoms: C_21  and  O_22
REMARK    7  A    between atoms: O_22  and  C_23
REMARK    8  A    between atoms: C_23  and  C_24
REMARK    9  A    between atoms: C_28  and  C_37
REMARK   10  A    between atoms: C_28  and  C_40
REMARK   11  A    between atoms: O_31  and  C_37
REMARK                            x       y       z     vdW  Elec       q    Type
REMARK                         _______ _______ _______ _____ _____    ______ ____
ROOT
ATOM      1  O   UNL A   1     -21.535   2.029  26.378  0.00  0.00    -0.345 OA
ATOM      2  C   UNL A   1     -23.474   1.320  27.249  0.00  0.00    +0.030 C 
ATOM      3  C   UNL A   1     -22.767   1.834  26.099  0.00  0.00    +0.140 C 
ATOM      4  C   UNL A   1     -24.446  -0.133  29.281  0.00  0.00    +0.189 C 
ATOM      5  N   UNL A   1     -25.447   0.571  28.588  0.00  0.00    -0.243 N 
ATOM      6  O   UNL A   1     -27.268  -0.762  28.446  0.00  0.00    -0.274 OA
ATOM      7  N   UNL A   1     -23.020   0.062  29.199  0.00  0.00    -0.253 NA
ATOM      8  C   UNL A   1     -21.325   1.403  27.647  0.00  0.00    +0.187 C 
ATOM      9  C   UNL A   1     -26.914   0.322  28.763  0.00  0.00    +0.236 C 
ATOM     10  C   UNL A   1     -22.525   0.910  28.198  0.00  0.00    +0.085 C 
ATOM     11  C   UNL A   1     -23.447   2.064  24.747  0.00  0.00    +0.037 C 
ATOM     12  C   UNL A   1     -24.802   1.291  27.479  0.00  0.00    +0.040 C 
ENDROOT
BRANCH  12  13
ATOM     13  C   UNL A   1     -25.688   1.614  26.461  0.00  0.00    +0.106 C 
ATOM     14  C   UNL A   1     -26.250   2.920  26.395  0.00  0.00    +0.060 C 
ATOM     15  C   UNL A   1     -27.438   3.091  25.645  0.00  0.00    +0.102 C 
ATOM     16  N   UNL A   1     -28.075   2.089  25.003  0.00  0.00    -0.212 NA
ATOM     17  C   UNL A   1     -27.543   0.849  25.079  0.00  0.00    +0.234 C 
ATOM     18  C   UNL A   1     -26.354   0.576  25.777  0.00  0.00    +0.245 C 
ATOM     19  F   UNL A   1     -25.860  -0.681  25.795  0.00  0.00    -0.227 F 
BRANCH  14  20
ATOM     20  C   UNL A   1     -25.642   4.093  27.123  0.00  0.00    +0.263 C 
ATOM     21  N   UNL A   1     -25.614   5.252  26.449  0.00  0.00    -0.200 NA
ATOM     22  C   UNL A   1     -25.026   6.479  26.963  0.00  0.00    +0.139 C 
ATOM     23  O   UNL A   1     -25.143   3.966  28.243  0.00  0.00    -0.269 OA
ENDBRANCH  14  20
BRANCH  17  24
ATOM     24  O   UNL A   1     -28.193  -0.208  24.477  0.00  0.00    -0.459 OA
BRANCH  24  25
ATOM     25  C   UNL A   1     -29.460   0.005  23.866  0.00  0.00    +0.242 C 
BRANCH  25  26
ATOM     26  C   UNL A   1     -30.065  -1.377  23.573  0.00  0.00    +0.229 C 
ATOM     27  O   UNL A   1     -30.729  -1.878  24.721  0.00  0.00    -0.216 OA
ENDBRANCH  25  26
ENDBRANCH  24  25
ENDBRANCH  17  24
ENDBRANCH  12  13
BRANCH   4  28
ATOM     28  C   UNL A   1     -24.855  -1.012  30.143  0.00  0.00    +0.080 C 
BRANCH  28  29
ATOM     29  C   UNL A   1     -24.973  -2.505  29.788  0.00  0.00    -0.018 C 
ATOM     30  C   UNL A   1     -23.906  -3.173  29.146  0.00  0.00    -0.004 C 
ATOM     31  C   UNL A   1     -23.989  -4.549  28.853  0.00  0.00    -0.000 C 
ATOM     32  C   UNL A   1     -25.137  -5.280  29.205  0.00  0.00    -0.000 C 
ATOM     33  C   UNL A   1     -26.232  -4.611  29.784  0.00  0.00    -0.000 C 
ATOM     34  C   UNL A   1     -26.155  -3.232  30.065  0.00  0.00    -0.004 C 
ENDBRANCH  28  29
BRANCH  28  35
ATOM     35  C   UNL A   1     -25.387  -0.679  31.571  0.00  0.00    +0.080 C 
ATOM     36  C   UNL A   1     -25.189   0.773  32.028  0.00  0.00    +0.019 C 
ATOM     37  C   UNL A   1     -25.336   0.684  33.544  0.00  0.00    +0.020 C 
ATOM     38  C   UNL A   1     -24.829  -0.715  33.905  0.00  0.00    +0.089 C 
ATOM     39  N   UNL A   1     -24.758  -1.481  32.646  0.00  0.00    -0.219 NA
ENDBRANCH  28  35
ENDBRANCH   4  28
BRANCH   9  40
ATOM     40  C   UNL A   1     -28.185   1.229  29.359  0.00  0.00    +0.150 C 
BRANCH  40  41
ATOM     41  C   UNL A   1     -28.198   2.743  29.276  0.00  0.00    +0.278 C 
ATOM     42  O   UNL A   1     -27.307   3.217  30.220  0.00  0.00    -0.189 OA
BRANCH  41  43
ATOM     43  O   UNL A   1     -29.385   3.115  29.937  0.00  0.00    -0.325 OA
ATOM     44  C   UNL A   1     -30.031   4.300  29.962  0.00  0.00    +0.177 C 
ENDBRANCH  41  43
ENDBRANCH  40  41
ENDBRANCH   9  40
TORSDOF 11
