MODEL 4374
MODEL 1
REMARK VINA RESULT:    -7.184      0.000      0.000
REMARK INTER + INTRA:          -9.325
REMARK INTER:                  -8.863
REMARK INTRA:                  -0.461
REMARK UNBOUND:                -0.461
REMARK  Name = No_4374-gen_results/8p0m/2024-11-27-11-27-31/
REMARK  4 active torsions:
REMARK  status: ('A' for Active; 'I' for Inactive)
REMARK    1  A    between atoms: C_6  and  C_7
REMARK    2  A    between atoms: N_8  and  C_10
REMARK    3  A    between atoms: C_10  and  C_18
REMARK    4  A    between atoms: C_12  and  C_15
REMARK                            x       y       z     vdW  Elec       q    Type
REMARK                         _______ _______ _______ _____ _____    ______ ____
ROOT
ATOM      1  C   UNL A   1      -7.006  -1.898  34.595  0.00  0.00    +0.005 A 
ATOM      2  C   UNL A   1      -5.984  -2.376  34.159  0.00  0.00    +0.000 A 
ATOM      3  C   UNL A   1      -4.748  -1.735  34.214  0.00  0.00    +0.000 A 
ATOM      4  C   UNL A   1      -4.670  -0.397  34.768  0.00  0.00    +0.000 A 
ATOM      5  C   UNL A   1      -5.903   0.100  35.248  0.00  0.00    +0.005 A 
ATOM      6  C   UNL A   1      -7.019  -0.576  35.146  0.00  0.00    +0.055 A 
ATOM      7  C   UNL A   1      -3.438  -2.305  33.738  0.00  0.00    +0.007 A 
ATOM      8  C   UNL A   1      -2.303  -1.608  33.796  0.00  0.00    +0.080 A 
ATOM      9  C   UNL A   1      -2.261  -0.330  34.317  0.00  0.00    +0.007 A 
ATOM     10  C   UNL A   1      -3.464   0.303  34.812  0.00  0.00    +0.000 A 
ENDROOT
BRANCH   6  11
ATOM     11  C   UNL A   1      -8.243   0.115  35.635  0.00  0.00    +0.265 C 
ATOM     12  N   UNL A   1      -8.866  -0.309  36.577  0.00  0.00    -0.197 NA
ATOM     13  O   UNL A   1      -8.411   1.346  35.192  0.00  0.00    -0.268 OA
BRANCH  12  14
ATOM     14  C   UNL A   1     -10.009   0.417  37.183  0.00  0.00    +0.142 C 
BRANCH  14  15
ATOM     15  C   UNL A   1     -10.810  -0.361  37.916  0.00  0.00    -0.001 A 
ATOM     16  C   UNL A   1     -10.934  -0.285  39.057  0.00  0.00    -0.003 A 
ATOM     17  C   UNL A   1     -10.972  -1.724  37.279  0.00  0.00    -0.003 A 
ATOM     18  C   UNL A   1     -11.777  -1.181  39.925  0.00  0.00    -0.000 A 
ATOM     19  C   UNL A   1     -11.788  -2.666  38.045  0.00  0.00    -0.000 A 
ATOM     20  C   UNL A   1     -12.088  -2.406  39.345  0.00  0.00    -0.000 A 
ENDBRANCH  14  15
ENDBRANCH  12  14
ENDBRANCH   6  11
BRANCH   8  21
ATOM     21  C   UNL A   1      -1.031  -2.202  33.370  0.00  0.00    +0.388 C 
ATOM     22  O   UNL A   1      -0.052  -2.096  33.918  0.00  0.00    -0.241 OA
ATOM     23  O   UNL A   1      -1.075  -2.955  32.213  0.00  0.00    -0.241 OA
ENDBRANCH   8  21
TORSDOF 4
ENDMDL
ENDMDL
