MODEL 4375
MODEL 1
REMARK VINA RESULT:    -4.276      0.000      0.000
REMARK INTER + INTRA:          -4.276
REMARK INTER:                  -4.276
REMARK INTRA:                   0.000
REMARK UNBOUND:                 0.000
REMARK  Name = No_4375-gen_results/8p0m/2024-11-27-11-27-31/
REMARK  0 active torsions:
REMARK  status: ('A' for Active; 'I' for Inactive)
REMARK                            x       y       z     vdW  Elec       q    Type
REMARK                         _______ _______ _______ _____ _____    ______ ____
ROOT
ATOM      1  C   UNL A   1     -24.009  -3.325  28.783  0.00  0.00    +0.000 A 
ATOM      2  C   UNL A   1     -24.009  -4.517  28.578  0.00  0.00    +0.000 A 
ATOM      3  C   UNL A   1     -25.016  -5.365  28.996  0.00  0.00    +0.000 A 
ATOM      4  C   UNL A   1     -26.131  -4.793  29.671  0.00  0.00    +0.000 A 
ATOM      5  C   UNL A   1     -26.166  -3.441  29.724  0.00  0.00    +0.000 A 
ATOM      6  C   UNL A   1     -25.174  -2.706  29.260  0.00  0.00    +0.000 A 
ENDROOT
TORSDOF 0
ENDMDL
ENDMDL
