MODEL 4377
MODEL 1
REMARK VINA RESULT:    -8.057      0.000      0.000
REMARK INTER + INTRA:         -11.291
REMARK INTER:                  -8.999
REMARK INTRA:                  -2.292
REMARK UNBOUND:                -2.292
REMARK  Name = No_4377-gen_results/8p0m/2024-11-27-11-27-31/
REMARK  2 active torsions:
REMARK  status: ('A' for Active; 'I' for Inactive)
REMARK    1  A    between atoms: C_5  and  C_11
REMARK    2  A    between atoms: C_18  and  N_19
REMARK                            x       y       z     vdW  Elec       q    Type
REMARK                         _______ _______ _______ _____ _____    ______ ____
ROOT
ATOM      1  C   UNL A   1     -26.558   2.407  28.044  0.00  0.00    +0.089 A 
ATOM      2  C   UNL A   1     -27.277   1.976  28.916  0.00  0.00    +0.008 A 
ATOM      3  C   UNL A   1     -28.334   1.103  28.718  0.00  0.00    +0.001 A 
ATOM      4  C   UNL A   1     -28.567   0.659  27.383  0.00  0.00    +0.010 A 
ATOM      5  C   UNL A   1     -27.658   1.040  26.463  0.00  0.00    +0.114 A 
ATOM      6  C   UNL A   1     -25.450   3.258  28.380  0.00  0.00    +0.268 C 
ATOM      7  C   UNL A   1     -26.673   1.861  26.791  0.00  0.00    +0.151 A 
ATOM      8  N   UNL A   1     -24.454   3.393  27.921  0.00  0.00    -0.198 NA
ATOM      9  O   UNL A   1     -25.607   3.979  29.530  0.00  0.00    -0.268 OA
ATOM     10  C   UNL A   1     -24.030   2.654  26.715  0.00  0.00    +0.147 C 
ATOM     11  C   UNL A   1     -23.148   3.095  25.963  0.00  0.00    +0.027 C 
ATOM     12  C   UNL A   1     -22.796   2.392  24.753  0.00  0.00    +0.002 C 
ATOM     13  C   UNL A   1     -23.466   1.170  24.457  0.00  0.00    +0.005 C 
ATOM     14  C   UNL A   1     -24.378   0.688  25.344  0.00  0.00    +0.058 C 
ATOM     15  C   UNL A   1     -24.687   1.388  26.503  0.00  0.00    +0.200 C 
ATOM     16  O   UNL A   1     -25.754   1.983  25.921  0.00  0.00    -0.466 OA
ENDROOT
BRANCH  15  17
ATOM     17  N   UNL A   1     -23.917   0.456  27.438  0.00  0.00    -0.242 NA
ATOM     18  C   UNL A   1     -22.844   0.488  28.066  0.00  0.00    +0.077 C 
ATOM     19  C   UNL A   1     -22.606  -0.500  29.000  0.00  0.00    +0.039 C 
ATOM     20  C   UNL A   1     -24.676  -0.829  27.779  0.00  0.00    +0.081 C 
ATOM     21  C   UNL A   1     -24.337  -1.707  28.671  0.00  0.00    +0.058 C 
ATOM     22  C   UNL A   1     -23.210  -1.573  29.354  0.00  0.00    +0.099 C 
ATOM     23  C   UNL A   1     -25.274  -2.879  28.920  0.00  0.00    -0.028 C 
ATOM     24  C   UNL A   1     -25.840  -2.932  30.018  0.00  0.00    -0.026 C 
ATOM     25  C   UNL A   1     -25.931  -1.892  30.917  0.00  0.00    +0.053 C 
ATOM     26  C   UNL A   1     -25.566  -0.958  30.996  0.00  0.00    -0.003 A 
ATOM     27  C   UNL A   1     -25.973  -0.089  32.257  0.00  0.00    -0.003 A 
ATOM     28  C   UNL A   1     -25.580   1.249  32.471  0.00  0.00    -0.000 A 
ATOM     29  C   UNL A   1     -24.408   1.607  31.891  0.00  0.00    +0.001 A 
ATOM     30  C   UNL A   1     -23.878   0.819  30.764  0.00  0.00    +0.016 A 
ATOM     31  C   UNL A   1     -24.397  -0.383  30.535  0.00  0.00    +0.062 A 
ATOM     32  N   UNL A   1     -23.495  -0.934  30.212  0.00  0.00    -0.239 NA
ENDBRANCH  15  17
BRANCH   5  33
ATOM     33  C   UNL A   1     -27.895   0.535  25.091  0.00  0.00    +0.391 C 
ATOM     34  O   UNL A   1     -27.589  -0.380  24.775  0.00  0.00    -0.240 OA
ATOM     35  O   UNL A   1     -28.584   1.442  24.382  0.00  0.00    -0.240 OA
ENDBRANCH   5  33
TORSDOF 2
ENDMDL
ENDMDL
