MODEL 4378
MODEL 1
REMARK VINA RESULT:    -5.373      0.000      0.000
REMARK INTER + INTRA:          -5.530
REMARK INTER:                  -5.687
REMARK INTRA:                   0.157
REMARK UNBOUND:                 0.157
REMARK  Name = No_4378-gen_results/8p0m/2024-11-27-11-27-31/
REMARK  1 active torsions:
REMARK  status: ('A' for Active; 'I' for Inactive)
REMARK    1  A    between atoms: C_5  and  C_7
REMARK                            x       y       z     vdW  Elec       q    Type
REMARK                         _______ _______ _______ _____ _____    ______ ____
ROOT
ATOM      1  C   UNL A   1     -28.346 -11.853  31.079  0.00  0.00    +0.021 A 
ATOM      2  C   UNL A   1     -29.077 -11.207  30.364  0.00  0.00    +0.069 A 
ATOM      3  C   UNL A   1     -29.863 -10.225  30.702  0.00  0.00    +0.070 A 
ATOM      4  C   UNL A   1     -29.906  -9.842  32.077  0.00  0.00    +0.042 A 
ATOM      5  C   UNL A   1     -28.249 -11.447  32.469  0.00  0.00    +0.108 A 
ATOM      6  C   UNL A   1     -29.035 -10.461  32.902  0.00  0.00    +0.147 A 
ATOM      7 CL   UNL A   1     -29.164 -11.558  28.591  0.00  0.00    -0.081 Cl
ATOM      8  F   UNL A   1     -28.997 -10.116  34.164  0.00  0.00    -0.204 F 
ATOM      9 CL   UNL A   1     -30.991  -9.427  29.558  0.00  0.00    -0.081 Cl
ENDROOT
BRANCH   5  10
ATOM     10  C   UNL A   1     -27.281 -12.180  33.318  0.00  0.00    +0.390 C 
ATOM     11  O   UNL A   1     -27.297 -12.163  34.415  0.00  0.00    -0.240 OA
ATOM     12  O   UNL A   1     -26.391 -12.974  32.623  0.00  0.00    -0.240 OA
ENDBRANCH   5  10
TORSDOF 1
ENDMDL
ENDMDL
