REMARK  Name = outputs/IAG933/test6/raw/output_4379_IAG933_linker_design_.xyz
REMARK  13 active torsions:
REMARK  status: ('A' for Active; 'I' for Inactive)
REMARK    1  A    between atoms: C_1  and  C_2
REMARK    2  A    between atoms: C_1  and  C_8
REMARK    3  A    between atoms: C_1  and  N_30
REMARK    4  A    between atoms: C_13  and  C_34
REMARK    5  A    between atoms: C_14  and  C_15
REMARK    6  A    between atoms: C_21  and  O_22
REMARK    7  A    between atoms: O_22  and  C_23
REMARK    8  A    between atoms: C_23  and  C_24
REMARK    9  A    between atoms: C_32  and  C_38
REMARK   10  A    between atoms: C_33  and  C_34
REMARK   11  A    between atoms: C_34  and  C_35
REMARK   12  A    between atoms: C_40  and  C_44
REMARK   13  A    between atoms: C_41  and  C_44
REMARK                            x       y       z     vdW  Elec       q    Type
REMARK                         _______ _______ _______ _____ _____    ______ ____
ROOT
ATOM      1  O   UNL A   1     -21.002   1.303  27.984  0.00  0.00    -0.294 OA
ATOM      2  N   UNL A   1     -23.740  -0.145  29.745  0.00  0.00    -0.260 NA
ATOM      3  C   UNL A   1     -23.501   1.262  28.180  0.00  0.00    +0.089 C 
ATOM      4  C   UNL A   1     -22.146   0.923  28.369  0.00  0.00    +0.169 C 
ATOM      5  C   UNL A   1     -24.217   1.219  29.353  0.00  0.00    +0.088 C 
ATOM      6  C   UNL A   1     -22.304  -0.168  29.356  0.00  0.00    +0.138 C 
ENDROOT
BRANCH   5   7
ATOM      7  C   UNL A   1     -24.182   2.395  30.404  0.00  0.00    -0.009 C 
ATOM      8  C   UNL A   1     -25.305   3.485  30.845  0.00  0.00    +0.038 C 
BRANCH   8  11
ATOM      9  F   UNL A   1     -26.011   5.589  31.315  0.00  0.00    -0.197 F 
ATOM     10  F   UNL A   1     -24.438   4.797  32.608  0.00  0.00    -0.197 F 
ATOM     11  C   UNL A   1     -25.560   4.439  31.956  0.00  0.00    +0.315 C 
BRANCH  11  13
ATOM     12  F   UNL A   1     -26.858   5.362  33.610  0.00  0.00    -0.228 F 
ATOM     13  C   UNL A   1     -26.522   4.114  32.994  0.00  0.00    +0.264 C 
ENDBRANCH  11  13
ENDBRANCH   8  11
ENDBRANCH   5   7
BRANCH   2  14
ATOM     14  C   UNL A   1     -24.855  -1.012  30.143  0.00  0.00    +0.097 C 
BRANCH  14  15
ATOM     15  C   UNL A   1     -24.973  -2.505  29.788  0.00  0.00    -0.006 C 
ATOM     16  C   UNL A   1     -23.906  -3.173  29.146  0.00  0.00    -0.003 C 
ATOM     17  C   UNL A   1     -23.989  -4.549  28.853  0.00  0.00    -0.000 C 
ATOM     18  C   UNL A   1     -25.137  -5.280  29.205  0.00  0.00    -0.000 C 
ATOM     19  C   UNL A   1     -26.232  -4.611  29.784  0.00  0.00    -0.000 C 
ATOM     20  C   UNL A   1     -26.155  -3.232  30.065  0.00  0.00    -0.003 C 
ENDBRANCH  14  15
BRANCH  14  21
ATOM     21  C   UNL A   1     -25.387  -0.679  31.571  0.00  0.00    +0.092 C 
ATOM     22  C   UNL A   1     -25.189   0.773  32.028  0.00  0.00    +0.021 C 
ATOM     23  C   UNL A   1     -25.336   0.684  33.544  0.00  0.00    +0.020 C 
ATOM     24  C   UNL A   1     -24.829  -0.715  33.905  0.00  0.00    +0.089 C 
ATOM     25  N   UNL A   1     -24.758  -1.481  32.646  0.00  0.00    -0.218 NA
ENDBRANCH  14  21
ENDBRANCH   2  14
BRANCH   3  26
ATOM     26  C   UNL A   1     -24.301   1.421  26.903  0.00  0.00    +0.119 C 
BRANCH  26  27
ATOM     27  C   UNL A   1     -25.688   1.614  26.461  0.00  0.00    +0.081 C 
ATOM     28  C   UNL A   1     -26.250   2.920  26.395  0.00  0.00    +0.055 C 
ATOM     29  C   UNL A   1     -27.438   3.091  25.645  0.00  0.00    +0.102 C 
ATOM     30  N   UNL A   1     -28.075   2.089  25.003  0.00  0.00    -0.212 NA
ATOM     31  C   UNL A   1     -27.543   0.849  25.079  0.00  0.00    +0.234 C 
ATOM     32  C   UNL A   1     -26.354   0.576  25.777  0.00  0.00    +0.240 C 
ATOM     33  F   UNL A   1     -25.860  -0.681  25.795  0.00  0.00    -0.227 F 
BRANCH  28  34
ATOM     34  C   UNL A   1     -25.642   4.093  27.123  0.00  0.00    +0.263 C 
ATOM     35  N   UNL A   1     -25.614   5.252  26.449  0.00  0.00    -0.200 NA
ATOM     36  C   UNL A   1     -25.026   6.479  26.963  0.00  0.00    +0.139 C 
ATOM     37  O   UNL A   1     -25.143   3.966  28.243  0.00  0.00    -0.269 OA
ENDBRANCH  28  34
BRANCH  31  38
ATOM     38  O   UNL A   1     -28.193  -0.208  24.477  0.00  0.00    -0.459 OA
BRANCH  38  39
ATOM     39  C   UNL A   1     -29.460   0.005  23.866  0.00  0.00    +0.242 C 
BRANCH  39  40
ATOM     40  C   UNL A   1     -30.065  -1.377  23.573  0.00  0.00    +0.229 C 
ATOM     41  O   UNL A   1     -30.729  -1.878  24.721  0.00  0.00    -0.216 OA
ENDBRANCH  39  40
ENDBRANCH  38  39
ENDBRANCH  31  38
ENDBRANCH  26  27
BRANCH  26  43
ATOM     42  O   UNL A   1     -23.718   2.369  24.879  0.00  0.00    -0.246 OA
ATOM     43  C   UNL A   1     -23.283   1.963  25.862  0.00  0.00    +0.365 C 
ATOM     44  O   UNL A   1     -22.068   2.262  25.867  0.00  0.00    -0.246 OA
ENDBRANCH  26  43
ENDBRANCH   3  26
TORSDOF 13
