MODEL 437
MODEL 1
REMARK VINA RESULT:    -6.218      0.000      0.000
REMARK INTER + INTRA:         -11.649
REMARK INTER:                  -8.763
REMARK INTRA:                  -2.886
REMARK UNBOUND:                -2.886
REMARK  Name = No_437-gen_results/8p0m/2024-11-27-11-27-31/
REMARK  7 active torsions:
REMARK  status: ('A' for Active; 'I' for Inactive)
REMARK    1  A    between atoms: C_12  and  C_16
REMARK    2  A    between atoms: C_16  and  C_17
REMARK    3  A    between atoms: C_18  and  C_19
REMARK    4  A    between atoms: C_19  and  N_21
REMARK    5  A    between atoms: N_21  and  C_24
REMARK    6  A    between atoms: C_25  and  C_26
REMARK    7  A    between atoms: C_27  and  C_28
REMARK                            x       y       z     vdW  Elec       q    Type
REMARK                         _______ _______ _______ _____ _____    ______ ____
ROOT
ATOM      1  C   UNL A   1     -25.750  -1.333  28.346  0.00  0.00    +0.037 A 
ATOM      2  C   UNL A   1     -26.038  -1.354  29.360  0.00  0.00    +0.195 A 
ATOM      3  C   UNL A   1     -24.595  -0.476  28.083  0.00  0.00    -0.022 A 
ATOM      4  C   UNL A   1     -24.443   0.221  26.935  0.00  0.00    +0.037 C 
ATOM      5  C   UNL A   1     -25.228  -1.452  30.523  0.00  0.00    +0.042 A 
ATOM      6  C   UNL A   1     -24.016  -0.645  30.468  0.00  0.00    -0.001 A 
ATOM      7  C   UNL A   1     -23.710  -0.184  29.199  0.00  0.00    -0.018 A 
ATOM      8  C   UNL A   1     -23.411   1.041  26.692  0.00  0.00    +0.084 C 
ATOM      9  C   UNL A   1     -22.423   1.251  27.768  0.00  0.00    +0.159 C 
ATOM     10  C   UNL A   1     -22.617   0.744  28.972  0.00  0.00    +0.091 C 
ATOM     11  C   UNL A   1     -25.256  -0.048  25.724  0.00  0.00    +0.027 C 
ATOM     12  C   UNL A   1     -25.959   0.809  25.237  0.00  0.00    -0.040 C 
ATOM     13  C   UNL A   1     -25.887   2.009  25.595  0.00  0.00    -0.009 C 
ATOM     14  C   UNL A   1     -24.732   2.864  25.943  0.00  0.00    -0.005 C 
ATOM     15  C   UNL A   1     -23.528   2.382  26.007  0.00  0.00    -0.019 C 
ATOM     16  O   UNL A   1     -21.253   1.890  27.469  0.00  0.00    -0.295 OA
ATOM     17  O   UNL A   1     -27.389  -1.884  29.690  0.00  0.00    -0.287 OA
ENDROOT
BRANCH  12  18
ATOM     18  C   UNL A   1     -26.965   0.384  24.296  0.00  0.00    +0.048 C 
BRANCH  18  19
ATOM     19  C   UNL A   1     -27.789   1.388  23.760  0.00  0.00    -0.023 C 
ATOM     20  C   UNL A   1     -29.069   1.278  23.744  0.00  0.00    +0.007 C 
BRANCH  20  21
ATOM     21  C   UNL A   1     -29.874   2.363  23.535  0.00  0.00    +0.193 C 
ATOM     22 CL   UNL A   1     -31.258   2.221  22.595  0.00  0.00    -0.086 Cl
BRANCH  21  23
ATOM     23  N   UNL A   1     -30.325   3.229  24.698  0.00  0.00    -0.217 NA
BRANCH  23  24
ATOM     24  C   UNL A   1     -30.469   2.663  25.905  0.00  0.00    +0.082 C 
ATOM     25  C   UNL A   1     -29.566   2.586  26.831  0.00  0.00    +0.017 C 
BRANCH  25  26
ATOM     26  C   UNL A   1     -29.585   1.641  27.869  0.00  0.00    +0.001 C 
ATOM     27  C   UNL A   1     -28.472   1.391  28.721  0.00  0.00    +0.000 C 
BRANCH  27  28
ATOM     28  C   UNL A   1     -27.314   2.126  28.490  0.00  0.00    +0.000 C 
ATOM     29  C   UNL A   1     -26.427   2.412  29.504  0.00  0.00    +0.000 C 
ENDBRANCH  27  28
ENDBRANCH  25  26
ENDBRANCH  23  24
ENDBRANCH  21  23
ENDBRANCH  20  21
ENDBRANCH  18  19
ENDBRANCH  12  18
TORSDOF 7
ENDMDL
ENDMDL
