MODEL 4380
MODEL 1
REMARK VINA RESULT:    -6.876      0.000      0.000
REMARK INTER + INTRA:          -7.554
REMARK INTER:                  -7.278
REMARK INTRA:                  -0.276
REMARK UNBOUND:                -0.276
REMARK  Name = No_4380-gen_results/8p0m/2024-11-27-11-27-31/
REMARK  1 active torsions:
REMARK  status: ('A' for Active; 'I' for Inactive)
REMARK    1  A    between atoms: C_3  and  C_7
REMARK                            x       y       z     vdW  Elec       q    Type
REMARK                         _______ _______ _______ _____ _____    ______ ____
ROOT
ATOM      1  C   UNL A   1     -24.722  -5.020  28.914  0.00  0.00    +0.001 A 
ATOM      2  C   UNL A   1     -24.068  -4.014  28.763  0.00  0.00    +0.000 A 
ATOM      3  C   UNL A   1     -24.508  -2.729  29.034  0.00  0.00    +0.001 A 
ATOM      4  C   UNL A   1     -25.826  -2.593  29.560  0.00  0.00    +0.011 A 
ATOM      5  C   UNL A   1     -26.470  -3.730  29.867  0.00  0.00    +0.058 A 
ATOM      6  C   UNL A   1     -25.958  -4.901  29.617  0.00  0.00    +0.011 A 
ATOM      7 CL   UNL A   1     -28.015  -3.558  30.597  0.00  0.00    -0.082 Cl
ENDROOT
BRANCH   3   8
ATOM      8  C   UNL A   1     -23.706  -1.499  28.697  0.00  0.00    +0.001 A 
ATOM      9  C   UNL A   1     -24.359  -0.641  27.896  0.00  0.00    +0.011 A 
ATOM     10  C   UNL A   1     -23.660   0.563  27.407  0.00  0.00    +0.058 A 
ATOM     11  C   UNL A   1     -22.530   0.963  28.101  0.00  0.00    +0.011 A 
ATOM     12  C   UNL A   1     -22.529  -1.085  29.260  0.00  0.00    +0.000 A 
ATOM     13  C   UNL A   1     -21.838   0.077  28.861  0.00  0.00    +0.001 A 
ATOM     14 CL   UNL A   1     -24.498   1.648  26.363  0.00  0.00    -0.082 Cl
ENDBRANCH   3   8
TORSDOF 1
ENDMDL
ENDMDL
