REMARK  Name = outputs/IAG933/test6/raw/output_4381_IAG933_linker_design_.xyz
REMARK  16 active torsions:
REMARK  status: ('A' for Active; 'I' for Inactive)
REMARK    1  A    between atoms: C_1  and  C_2
REMARK    2  A    between atoms: C_1  and  C_8
REMARK    3  A    between atoms: C_9  and  C_44
REMARK    4  A    between atoms: C_13  and  C_33
REMARK    5  A    between atoms: C_14  and  C_15
REMARK    6  A    between atoms: C_21  and  O_22
REMARK    7  A    between atoms: O_22  and  C_23
REMARK    8  A    between atoms: C_23  and  C_24
REMARK    9  A    between atoms: N_30  and  C_33
REMARK   10  A    between atoms: N_30  and  C_43
REMARK   11  A    between atoms: C_31  and  C_33
REMARK   12  A    between atoms: N_32  and  C_36
REMARK   13  A    between atoms: C_34  and  C_44
REMARK   14  A    between atoms: C_40  and  C_43
REMARK   15  A    between atoms: C_40  and  C_44
REMARK   16  A    between atoms: C_45  and  C_46
REMARK                            x       y       z     vdW  Elec       q    Type
REMARK                         _______ _______ _______ _____ _____    ______ ____
ROOT
ATOM      1  C   UNL A   1     -25.295   2.135  31.259  0.00  0.00    +0.025 C 
ENDROOT
BRANCH   1   2
ATOM      2  C   UNL A   1     -25.491   3.421  31.995  0.00  0.00    -0.022 C 
ATOM      3  C   UNL A   1     -26.841   5.345  32.504  0.00  0.00    +0.004 C 
ATOM      4  C   UNL A   1     -26.588   4.218  31.667  0.00  0.00    -0.004 C 
ATOM      5  C   UNL A   1     -24.743   4.970  33.667  0.00  0.00    +0.004 C 
ATOM      6  C   UNL A   1     -24.487   3.825  32.906  0.00  0.00    -0.004 C 
ATOM      7  C   UNL A   1     -25.972   5.573  33.603  0.00  0.00    +0.055 C 
BRANCH   7  10
ATOM      8  N   UNL A   1     -26.268   7.631  35.081  0.00  0.00    -0.202 NA
ATOM      9  O   UNL A   1     -26.634   5.524  35.855  0.00  0.00    -0.268 OA
ATOM     10  C   UNL A   1     -26.315   6.280  34.938  0.00  0.00    +0.265 C 
BRANCH   8  12
ATOM     11  C   UNL A   1     -26.162   8.669  37.354  0.00  0.00    +0.025 C 
ATOM     12  C   UNL A   1     -26.966   8.202  36.211  0.00  0.00    +0.116 C 
ENDBRANCH   8  12
ENDBRANCH   7  10
ENDBRANCH   1   2
BRANCH   1  14
ATOM     13  C   UNL A   1     -25.387  -0.679  31.571  0.00  0.00    +0.077 C 
ATOM     14  C   UNL A   1     -25.189   0.773  32.028  0.00  0.00    +0.022 C 
ATOM     15  C   UNL A   1     -25.336   0.684  33.544  0.00  0.00    +0.021 C 
ATOM     16  C   UNL A   1     -24.829  -0.715  33.905  0.00  0.00    +0.089 C 
ATOM     17  N   UNL A   1     -24.758  -1.481  32.646  0.00  0.00    -0.219 NA
BRANCH  13  18
ATOM     18  C   UNL A   1     -24.855  -1.012  30.143  0.00  0.00    +0.044 C 
BRANCH  18  19
ATOM     19  C   UNL A   1     -24.973  -2.505  29.788  0.00  0.00    -0.021 C 
ATOM     20  C   UNL A   1     -23.906  -3.173  29.146  0.00  0.00    -0.004 C 
ATOM     21  C   UNL A   1     -23.989  -4.549  28.853  0.00  0.00    -0.000 C 
ATOM     22  C   UNL A   1     -25.137  -5.280  29.205  0.00  0.00    -0.000 C 
ATOM     23  C   UNL A   1     -26.232  -4.611  29.784  0.00  0.00    -0.000 C 
ATOM     24  C   UNL A   1     -26.155  -3.232  30.065  0.00  0.00    -0.004 C 
ENDBRANCH  18  19
ENDBRANCH  13  18
ENDBRANCH   1  14
BRANCH   1  25
ATOM     25  C   UNL A   1     -23.976   2.205  30.351  0.00  0.00    +0.023 C 
BRANCH  25  26
ATOM     26  C   UNL A   1     -24.438   1.864  29.018  0.00  0.00    +0.089 C 
BRANCH  26  27
ATOM     27  N   UNL A   1     -24.217   0.808  28.223  0.00  0.00    -0.219 NA
BRANCH  27  28
ATOM     28  C   UNL A   1     -24.269   1.185  26.795  0.00  0.00    +0.080 C 
BRANCH  28  29
ATOM     29  C   UNL A   1     -25.688   1.614  26.461  0.00  0.00    +0.086 C 
ATOM     30  C   UNL A   1     -26.250   2.920  26.395  0.00  0.00    +0.056 C 
ATOM     31  C   UNL A   1     -27.438   3.091  25.645  0.00  0.00    +0.102 C 
ATOM     32  N   UNL A   1     -28.075   2.089  25.003  0.00  0.00    -0.212 NA
ATOM     33  C   UNL A   1     -27.543   0.849  25.079  0.00  0.00    +0.234 C 
ATOM     34  C   UNL A   1     -26.354   0.576  25.777  0.00  0.00    +0.241 C 
ATOM     35  F   UNL A   1     -25.860  -0.681  25.795  0.00  0.00    -0.227 F 
BRANCH  30  36
ATOM     36  C   UNL A   1     -25.642   4.093  27.123  0.00  0.00    +0.263 C 
ATOM     37  N   UNL A   1     -25.614   5.252  26.449  0.00  0.00    -0.200 NA
ATOM     38  C   UNL A   1     -25.026   6.479  26.963  0.00  0.00    +0.139 C 
ATOM     39  O   UNL A   1     -25.143   3.966  28.243  0.00  0.00    -0.269 OA
ENDBRANCH  30  36
BRANCH  33  40
ATOM     40  O   UNL A   1     -28.193  -0.208  24.477  0.00  0.00    -0.459 OA
BRANCH  40  41
ATOM     41  C   UNL A   1     -29.460   0.005  23.866  0.00  0.00    +0.242 C 
BRANCH  41  42
ATOM     42  C   UNL A   1     -30.065  -1.377  23.573  0.00  0.00    +0.229 C 
ATOM     43  O   UNL A   1     -30.729  -1.878  24.721  0.00  0.00    -0.216 OA
ENDBRANCH  41  42
ENDBRANCH  40  41
ENDBRANCH  33  40
ENDBRANCH  28  29
BRANCH  28  45
ATOM     44  C   UNL A   1     -21.727   1.593  27.393  0.00  0.00    +0.001 C 
ATOM     45  C   UNL A   1     -22.963   2.044  26.642  0.00  0.00    +0.017 C 
ATOM     46  C   UNL A   1     -22.741   2.370  25.187  0.00  0.00    +0.001 C 
ENDBRANCH  28  45
ENDBRANCH  27  28
ENDBRANCH  26  27
ENDBRANCH  25  26
ENDBRANCH   1  25
TORSDOF 16
