MODEL 4381
MODEL 1
REMARK VINA RESULT:    -7.984      0.000      0.000
REMARK INTER + INTRA:          -8.605
REMARK INTER:                  -8.451
REMARK INTRA:                  -0.154
REMARK UNBOUND:                -0.154
REMARK  Name = No_4381-gen_results/8p0m/2024-11-27-11-27-31/
REMARK  1 active torsions:
REMARK  status: ('A' for Active; 'I' for Inactive)
REMARK    1  A    between atoms: C_2  and  C_7
REMARK                            x       y       z     vdW  Elec       q    Type
REMARK                         _______ _______ _______ _____ _____    ______ ____
ROOT
ATOM      1  C   UNL A   1     -23.860  -1.037  29.703  0.00  0.00    +0.253 C 
ATOM      2  O   UNL A   1     -23.202  -0.985  30.598  0.00  0.00    -0.270 OA
ATOM      3  N   UNL A   1     -23.985  -0.032  28.738  0.00  0.00    -0.256 N 
ATOM      4  C   UNL A   1     -24.690   0.041  27.608  0.00  0.00    +0.046 A 
ATOM      5  C   UNL A   1     -23.161   1.173  29.090  0.00  0.00    +0.099 C 
ATOM      6  C   UNL A   1     -22.477   1.599  28.158  0.00  0.00    +0.027 C 
ATOM      7  C   UNL A   1     -23.977   0.756  26.474  0.00  0.00    -0.009 A 
ATOM      8  C   UNL A   1     -24.572   0.685  25.155  0.00  0.00    -0.003 A 
ATOM      9  C   UNL A   1     -22.969   1.570  26.837  0.00  0.00    +0.029 C 
ATOM     10  C   UNL A   1     -25.938   0.591  25.113  0.00  0.00    -0.001 A 
ATOM     11  C   UNL A   1     -26.703   0.257  26.228  0.00  0.00    -0.003 A 
ATOM     12  C   UNL A   1     -26.081  -0.179  27.367  0.00  0.00    -0.009 A 
ATOM     13  C   UNL A   1     -26.927  -0.231  28.582  0.00  0.00    +0.032 C 
ENDROOT
BRANCH   1  15
ATOM     14  C   UNL A   1     -25.546  -2.532  30.057  0.00  0.00    +0.016 A 
ATOM     15  C   UNL A   1     -24.635  -2.434  29.536  0.00  0.00    +0.055 A 
ATOM     16  C   UNL A   1     -26.248  -3.862  29.894  0.00  0.00    +0.058 A 
ATOM     17  C   UNL A   1     -25.599  -4.906  29.201  0.00  0.00    +0.011 A 
ATOM     18  C   UNL A   1     -23.744  -3.353  28.792  0.00  0.00    +0.005 A 
ATOM     19  C   UNL A   1     -24.353  -4.588  28.627  0.00  0.00    +0.001 A 
ATOM     20 CL   UNL A   1     -27.813  -4.225  30.482  0.00  0.00    -0.082 Cl
ENDBRANCH   1  15
TORSDOF 1
ENDMDL
ENDMDL
