REMARK  Name = outputs/IAG933/test6/raw/output_4382_IAG933_linker_design_.xyz
REMARK  8 active torsions:
REMARK  status: ('A' for Active; 'I' for Inactive)
REMARK    1  A    between atoms: C_1  and  C_2
REMARK    2  A    between atoms: C_1  and  C_8
REMARK    3  A    between atoms: C_1  and  N_31
REMARK    4  A    between atoms: C_13  and  N_36
REMARK    5  A    between atoms: C_14  and  C_15
REMARK    6  A    between atoms: C_21  and  O_22
REMARK    7  A    between atoms: O_22  and  C_23
REMARK    8  A    between atoms: C_23  and  C_24
REMARK                            x       y       z     vdW  Elec       q    Type
REMARK                         _______ _______ _______ _____ _____    ______ ____
ROOT
ATOM      1  O   UNL A   1     -21.492   2.043  25.970  0.00  0.00    -0.442 OA
ATOM      2  C   UNL A   1     -22.804   1.758  25.977  0.00  0.00    +0.365 C 
ATOM      3  O   UNL A   1     -25.465   1.990  29.401  0.00  0.00    -0.252 OA
ATOM      4  N   UNL A   1     -24.324  -0.009  29.321  0.00  0.00    -0.242 N 
ATOM      5  F   UNL A   1     -23.448   1.837  24.807  0.00  0.00    -0.182 F 
ATOM      6  C   UNL A   1     -24.951   1.062  28.711  0.00  0.00    +0.313 C 
ATOM      7  C   UNL A   1     -21.274   1.401  28.270  0.00  0.00    +0.040 C 
ATOM      8  N   UNL A   1     -22.155  -0.634  29.956  0.00  0.00    -0.106 NA
ATOM      9  N   UNL A   1     -24.714   1.311  27.409  0.00  0.00    -0.235 N 
ATOM     10  C   UNL A   1     -20.738   1.950  27.091  0.00  0.00    +0.175 C 
ATOM     11  C   UNL A   1     -23.427   1.311  27.128  0.00  0.00    +0.107 C 
ATOM     12  C   UNL A   1     -23.023   0.037  29.172  0.00  0.00    +0.194 C 
ATOM     13  C   UNL A   1     -22.576   0.908  28.172  0.00  0.00    +0.033 C 
ENDROOT
BRANCH   9  14
ATOM     14  C   UNL A   1     -25.688   1.614  26.461  0.00  0.00    +0.151 C 
ATOM     15  C   UNL A   1     -26.250   2.920  26.395  0.00  0.00    +0.073 C 
ATOM     16  C   UNL A   1     -27.438   3.091  25.645  0.00  0.00    +0.104 C 
ATOM     17  N   UNL A   1     -28.075   2.089  25.003  0.00  0.00    -0.212 NA
ATOM     18  C   UNL A   1     -27.543   0.849  25.079  0.00  0.00    +0.236 C 
ATOM     19  C   UNL A   1     -26.354   0.576  25.777  0.00  0.00    +0.259 C 
ATOM     20  F   UNL A   1     -25.860  -0.681  25.795  0.00  0.00    -0.225 F 
BRANCH  15  21
ATOM     21  C   UNL A   1     -25.642   4.093  27.123  0.00  0.00    +0.264 C 
ATOM     22  N   UNL A   1     -25.614   5.252  26.449  0.00  0.00    -0.200 NA
ATOM     23  C   UNL A   1     -25.026   6.479  26.963  0.00  0.00    +0.139 C 
ATOM     24  O   UNL A   1     -25.143   3.966  28.243  0.00  0.00    -0.269 OA
ENDBRANCH  15  21
BRANCH  18  25
ATOM     25  O   UNL A   1     -28.193  -0.208  24.477  0.00  0.00    -0.459 OA
BRANCH  25  26
ATOM     26  C   UNL A   1     -29.460   0.005  23.866  0.00  0.00    +0.242 C 
BRANCH  26  27
ATOM     27  C   UNL A   1     -30.065  -1.377  23.573  0.00  0.00    +0.229 C 
ATOM     28  O   UNL A   1     -30.729  -1.878  24.721  0.00  0.00    -0.216 OA
ENDBRANCH  26  27
ENDBRANCH  25  26
ENDBRANCH  18  25
ENDBRANCH   9  14
BRANCH   4  29
ATOM     29  C   UNL A   1     -24.855  -1.012  30.143  0.00  0.00    +0.117 C 
BRANCH  29  30
ATOM     30  C   UNL A   1     -24.973  -2.505  29.788  0.00  0.00    -0.003 C 
ATOM     31  C   UNL A   1     -23.906  -3.173  29.146  0.00  0.00    -0.003 C 
ATOM     32  C   UNL A   1     -23.989  -4.549  28.853  0.00  0.00    -0.000 C 
ATOM     33  C   UNL A   1     -25.137  -5.280  29.205  0.00  0.00    -0.000 C 
ATOM     34  C   UNL A   1     -26.232  -4.611  29.784  0.00  0.00    -0.000 C 
ATOM     35  C   UNL A   1     -26.155  -3.232  30.065  0.00  0.00    -0.003 C 
ENDBRANCH  29  30
BRANCH  29  36
ATOM     36  C   UNL A   1     -25.387  -0.679  31.571  0.00  0.00    +0.095 C 
ATOM     37  C   UNL A   1     -25.189   0.773  32.028  0.00  0.00    +0.021 C 
ATOM     38  C   UNL A   1     -25.336   0.684  33.544  0.00  0.00    +0.020 C 
ATOM     39  C   UNL A   1     -24.829  -0.715  33.905  0.00  0.00    +0.089 C 
ATOM     40  N   UNL A   1     -24.758  -1.481  32.646  0.00  0.00    -0.217 NA
ENDBRANCH  29  36
ENDBRANCH   4  29
TORSDOF 8
