MODEL 4383
MODEL 1
REMARK VINA RESULT:    -7.824      0.000      0.000
REMARK INTER + INTRA:         -10.955
REMARK INTER:                 -10.112
REMARK INTRA:                  -0.844
REMARK UNBOUND:                -0.844
REMARK  Name = No_4383-gen_results/8p0m/2024-11-27-11-27-31/
REMARK  5 active torsions:
REMARK  status: ('A' for Active; 'I' for Inactive)
REMARK    1  A    between atoms: C_3  and  C_4
REMARK    2  A    between atoms: C_6  and  O_16
REMARK    3  A    between atoms: C_10  and  C_13
REMARK    4  A    between atoms: O_16  and  C_17
REMARK    5  A    between atoms: C_17  and  C_18
REMARK                            x       y       z     vdW  Elec       q    Type
REMARK                         _______ _______ _______ _____ _____    ______ ____
ROOT
ATOM      1  C   UNL A   1     -24.537   1.234  26.285  0.00  0.00    +0.003 A 
ATOM      2  C   UNL A   1     -24.597   0.284  27.347  0.00  0.00    +0.037 A 
ATOM      3  C   UNL A   1     -23.485   0.066  28.159  0.00  0.00    +0.139 A 
ATOM      4  C   UNL A   1     -22.379   0.926  27.979  0.00  0.00    +0.037 A 
ATOM      5  C   UNL A   1     -22.319   1.850  26.978  0.00  0.00    +0.003 A 
ATOM      6  C   UNL A   1     -23.458   2.057  26.111  0.00  0.00    +0.000 A 
ENDROOT
BRANCH   1   9
ATOM      7  C   UNL A   1     -27.587   2.630  24.820  0.00  0.00    +0.007 A 
ATOM      8  C   UNL A   1     -26.573   2.579  25.477  0.00  0.00    +0.000 A 
ATOM      9  C   UNL A   1     -25.797   1.425  25.510  0.00  0.00    +0.000 A 
ATOM     10  C   UNL A   1     -28.179   1.447  24.203  0.00  0.00    +0.080 A 
ATOM     11  C   UNL A   1     -27.434   0.291  24.095  0.00  0.00    +0.007 A 
ATOM     12  C   UNL A   1     -26.231   0.225  24.811  0.00  0.00    +0.000 A 
BRANCH  10  13
ATOM     13  C   UNL A   1     -29.451   1.494  23.461  0.00  0.00    +0.388 C 
ATOM     14  O   UNL A   1     -30.192   0.516  23.650  0.00  0.00    -0.241 OA
ATOM     15  O   UNL A   1     -29.938   2.461  23.005  0.00  0.00    -0.241 OA
ENDBRANCH  10  13
ENDBRANCH   1   9
BRANCH   3  16
ATOM     16  O   UNL A   1     -23.531  -0.813  29.133  0.00  0.00    -0.469 OA
BRANCH  16  17
ATOM     17  C   UNL A   1     -23.181  -2.011  29.049  0.00  0.00    +0.251 C 
BRANCH  17  18
ATOM     18  C   UNL A   1     -24.146  -2.978  29.287  0.00  0.00    +0.103 A 
ATOM     19  N   UNL A   1     -25.347  -2.529  29.828  0.00  0.00    -0.244 NA
ATOM     20  C   UNL A   1     -26.346  -3.287  30.040  0.00  0.00    +0.099 A 
ATOM     21  C   UNL A   1     -26.254  -4.653  29.653  0.00  0.00    +0.021 A 
ATOM     22  C   UNL A   1     -25.068  -5.099  29.059  0.00  0.00    +0.003 A 
ATOM     23  C   UNL A   1     -24.046  -4.237  28.890  0.00  0.00    +0.018 A 
ENDBRANCH  17  18
ENDBRANCH  16  17
ENDBRANCH   3  16
TORSDOF 5
ENDMDL
ENDMDL
