REMARK  Name = outputs/IAG933/test6/raw/output_4383_IAG933_linker_design_.xyz
REMARK  12 active torsions:
REMARK  status: ('A' for Active; 'I' for Inactive)
REMARK    1  A    between atoms: C_1  and  C_2
REMARK    2  A    between atoms: C_1  and  C_8
REMARK    3  A    between atoms: C_1  and  N_45
REMARK    4  A    between atoms: C_13  and  C_39
REMARK    5  A    between atoms: C_14  and  C_15
REMARK    6  A    between atoms: C_21  and  O_22
REMARK    7  A    between atoms: O_22  and  C_23
REMARK    8  A    between atoms: C_23  and  C_24
REMARK    9  A    between atoms: C_31  and  N_45
REMARK   10  A    between atoms: C_35  and  C_42
REMARK   11  A    between atoms: C_36  and  C_38
REMARK   12  A    between atoms: C_42  and  N_45
REMARK                            x       y       z     vdW  Elec       q    Type
REMARK                         _______ _______ _______ _____ _____    ______ ____
ROOT
ATOM      1  N   UNL A   1     -25.910  -0.385  29.255  0.00  0.00    -0.299 N 
ENDROOT
BRANCH   1   2
ATOM      2  C   UNL A   1     -27.248  -0.944  28.928  0.00  0.00    +0.059 C 
ATOM      3  C   UNL A   1     -28.628  -0.455  28.957  0.00  0.00    +0.008 C 
BRANCH   3   8
ATOM      4  C   UNL A   1     -29.569   3.037  29.765  0.00  0.00    +0.076 C 
ATOM      5  C   UNL A   1     -30.045   3.228  32.149  0.00  0.00    +0.109 C 
ATOM      6  C   UNL A   1     -29.721   4.413  29.242  0.00  0.00    +0.019 C 
ATOM      7  C   UNL A   1     -29.600   1.784  28.894  0.00  0.00    +0.038 C 
ATOM      8  C   UNL A   1     -29.262   0.787  29.562  0.00  0.00    +0.115 C 
ATOM      9  N   UNL A   1     -29.718   2.436  30.955  0.00  0.00    -0.203 NA
ATOM     10  C   UNL A   1     -30.097   1.445  27.582  0.00  0.00    +0.003 C 
ATOM     11  N   UNL A   1     -29.505   1.064  30.876  0.00  0.00    -0.144 NA
ENDBRANCH   3   8
ENDBRANCH   1   2
BRANCH   1  12
ATOM     12  C   UNL A   1     -24.855  -1.012  30.143  0.00  0.00    +0.112 C 
BRANCH  12  13
ATOM     13  C   UNL A   1     -24.973  -2.505  29.788  0.00  0.00    -0.003 C 
ATOM     14  C   UNL A   1     -23.906  -3.173  29.146  0.00  0.00    -0.003 C 
ATOM     15  C   UNL A   1     -23.989  -4.549  28.853  0.00  0.00    -0.000 C 
ATOM     16  C   UNL A   1     -25.137  -5.280  29.205  0.00  0.00    -0.000 C 
ATOM     17  C   UNL A   1     -26.232  -4.611  29.784  0.00  0.00    -0.000 C 
ATOM     18  C   UNL A   1     -26.155  -3.232  30.065  0.00  0.00    -0.003 C 
ENDBRANCH  12  13
BRANCH  12  19
ATOM     19  C   UNL A   1     -25.387  -0.679  31.571  0.00  0.00    +0.095 C 
ATOM     20  C   UNL A   1     -25.189   0.773  32.028  0.00  0.00    +0.021 C 
ATOM     21  C   UNL A   1     -25.336   0.684  33.544  0.00  0.00    +0.020 C 
ATOM     22  C   UNL A   1     -24.829  -0.715  33.905  0.00  0.00    +0.089 C 
ATOM     23  N   UNL A   1     -24.758  -1.481  32.646  0.00  0.00    -0.217 NA
ENDBRANCH  12  19
ENDBRANCH   1  12
BRANCH   1  24
ATOM     24  C   UNL A   1     -25.604   1.051  29.062  0.00  0.00    +0.118 C 
BRANCH  24  27
ATOM     25  C   UNL A   1     -22.013   1.738  26.689  0.00  0.00    -0.000 C 
ATOM     26  C   UNL A   1     -23.014   1.128  28.811  0.00  0.00    -0.003 C 
ATOM     27  C   UNL A   1     -24.294   1.187  28.261  0.00  0.00    -0.002 C 
ATOM     28  C   UNL A   1     -21.904   1.381  28.029  0.00  0.00    -0.000 C 
ATOM     29  C   UNL A   1     -24.380   1.534  26.932  0.00  0.00    +0.000 C 
ATOM     30  C   UNL A   1     -23.282   1.795  26.124  0.00  0.00    -0.000 C 
BRANCH  29  31
ATOM     31  C   UNL A   1     -25.688   1.614  26.461  0.00  0.00    +0.038 C 
ATOM     32  C   UNL A   1     -26.250   2.920  26.395  0.00  0.00    +0.076 C 
ATOM     33  C   UNL A   1     -27.438   3.091  25.645  0.00  0.00    +0.107 C 
ATOM     34  N   UNL A   1     -28.075   2.089  25.003  0.00  0.00    -0.208 NA
ATOM     35  C   UNL A   1     -27.543   0.849  25.079  0.00  0.00    +0.253 C 
ATOM     36  C   UNL A   1     -26.354   0.576  25.777  0.00  0.00    +0.193 C 
ATOM     37  F   UNL A   1     -25.860  -0.681  25.795  0.00  0.00    -0.199 F 
BRANCH  32  38
ATOM     38  C   UNL A   1     -25.642   4.093  27.123  0.00  0.00    +0.266 C 
ATOM     39  N   UNL A   1     -25.614   5.252  26.449  0.00  0.00    -0.200 NA
ATOM     40  C   UNL A   1     -25.026   6.479  26.963  0.00  0.00    +0.139 C 
ATOM     41  O   UNL A   1     -25.143   3.966  28.243  0.00  0.00    -0.268 OA
ENDBRANCH  32  38
BRANCH  35  42
ATOM     42  O   UNL A   1     -28.193  -0.208  24.477  0.00  0.00    -0.456 OA
BRANCH  42  43
ATOM     43  C   UNL A   1     -29.460   0.005  23.866  0.00  0.00    +0.243 C 
BRANCH  43  44
ATOM     44  C   UNL A   1     -30.065  -1.377  23.573  0.00  0.00    +0.229 C 
ATOM     45  O   UNL A   1     -30.729  -1.878  24.721  0.00  0.00    -0.216 OA
ENDBRANCH  43  44
ENDBRANCH  42  43
ENDBRANCH  35  42
ENDBRANCH  29  31
ENDBRANCH  24  27
ENDBRANCH   1  24
TORSDOF 12
