MODEL 4384
MODEL 1
REMARK VINA RESULT:    -7.122      0.000      0.000
REMARK INTER + INTRA:          -6.945
REMARK INTER:                  -7.538
REMARK INTRA:                   0.593
REMARK UNBOUND:                 0.593
REMARK  Name = No_4384-gen_results/8p0m/2024-11-27-11-27-31/
REMARK  1 active torsions:
REMARK  status: ('A' for Active; 'I' for Inactive)
REMARK    1  A    between atoms: C_3  and  C_7
REMARK                            x       y       z     vdW  Elec       q    Type
REMARK                         _______ _______ _______ _____ _____    ______ ____
ROOT
ATOM      1  C   UNL A   1     -23.551  -1.409  29.629  0.00  0.00    +0.249 C 
ATOM      2  N   UNL A   1     -23.417  -0.688  28.536  0.00  0.00    -0.276 N 
ATOM      3  C   UNL A   1     -22.940   0.410  28.412  0.00  0.00    +0.076 C 
ATOM      4  C   UNL A   1     -22.989   1.145  27.067  0.00  0.00    +0.021 C 
ATOM      5  O   UNL A   1     -22.952  -1.137  30.651  0.00  0.00    -0.270 OA
ATOM      6  C   UNL A   1     -21.392   0.347  28.594  0.00  0.00    +0.021 C 
ATOM      7  C   UNL A   1     -24.324   1.148  26.517  0.00  0.00    +0.022 C 
ATOM      8  C   UNL A   1     -25.293   0.255  27.190  0.00  0.00    +0.112 C 
ATOM      9  N   UNL A   1     -26.641   0.321  26.738  0.00  0.00    -0.131 NA
ATOM     10  C   UNL A   1     -24.836  -0.579  28.141  0.00  0.00    +0.113 C 
ENDROOT
BRANCH   1  13
ATOM     11  C   UNL A   1     -24.206  -3.812  28.963  0.00  0.00    +0.034 A 
ATOM     12  C   UNL A   1     -24.983  -4.521  29.024  0.00  0.00    +0.140 A 
ATOM     13  C   UNL A   1     -24.537  -2.527  29.578  0.00  0.00    +0.056 A 
ATOM     14  C   UNL A   1     -25.746  -2.300  30.188  0.00  0.00    +0.005 A 
ATOM     15  C   UNL A   1     -26.329  -4.562  29.596  0.00  0.00    +0.030 A 
ATOM     16  C   UNL A   1     -26.659  -3.323  30.194  0.00  0.00    +0.003 A 
ATOM     17  F   UNL A   1     -24.692  -5.836  28.462  0.00  0.00    -0.204 F 
ENDBRANCH   1  13
TORSDOF 1
ENDMDL
ENDMDL
