REMARK  Name = outputs/IAG933/test6/raw/output_4385_IAG933_linker_design_.xyz
REMARK  4 active torsions:
REMARK  status: ('A' for Active; 'I' for Inactive)
REMARK    1  A    between atoms: C_1  and  C_2
REMARK    2  A    between atoms: C_1  and  C_8
REMARK    3  A    between atoms: C_1  and  C_40
REMARK    4  A    between atoms: C_14  and  C_15
REMARK                            x       y       z     vdW  Elec       q    Type
REMARK                         _______ _______ _______ _____ _____    ______ ____
ROOT
ATOM      1  C   UNL A   1     -25.688   1.614  26.461  0.00  0.00    +0.038 C 
ATOM      2  C   UNL A   1     -26.250   2.920  26.395  0.00  0.00    +0.076 C 
ATOM      3  C   UNL A   1     -27.438   3.091  25.645  0.00  0.00    +0.107 C 
ATOM      4  N   UNL A   1     -28.075   2.089  25.003  0.00  0.00    -0.208 NA
ATOM      5  C   UNL A   1     -27.543   0.849  25.079  0.00  0.00    +0.253 C 
ATOM      6  O   UNL A   1     -28.193  -0.208  24.477  0.00  0.00    -0.456 OA
ATOM      7  C   UNL A   1     -29.460   0.005  23.866  0.00  0.00    +0.239 C 
ATOM      8  C   UNL A   1     -30.065  -1.377  23.573  0.00  0.00    +0.190 C 
ATOM      9  O   UNL A   1     -30.729  -1.878  24.721  0.00  0.00    -0.345 OA
ATOM     10  C   UNL A   1     -26.354   0.576  25.777  0.00  0.00    +0.193 C 
ATOM     11  F   UNL A   1     -25.860  -0.681  25.795  0.00  0.00    -0.199 F 
ATOM     12  C   UNL A   1     -28.236   1.399  29.406  0.00  0.00    +0.152 C 
ATOM     13  C   UNL A   1     -34.047  -2.981  27.473  0.00  0.00    -0.000 C 
ATOM     14  C   UNL A   1     -27.441   0.038  29.222  0.00  0.00    +0.038 C 
ATOM     15  C   UNL A   1     -33.700  -2.500  28.714  0.00  0.00    +0.003 C 
ATOM     16  C   UNL A   1     -24.466   0.613  28.464  0.00  0.00    -0.022 C 
ATOM     17  O   UNL A   1     -27.716   1.816  30.600  0.00  0.00    -0.223 OA
ATOM     18  C   UNL A   1     -31.812  -1.093  25.154  0.00  0.00    +0.172 C 
ATOM     19  C   UNL A   1     -24.399   1.413  27.240  0.00  0.00    -0.001 C 
ATOM     20  C   UNL A   1     -21.727   0.788  28.355  0.00  0.00    -0.000 C 
ATOM     21  C   UNL A   1     -21.950   1.715  27.243  0.00  0.00    -0.000 C 
ATOM     22  C   UNL A   1     -30.427   1.621  28.433  0.00  0.00    +0.050 C 
ATOM     23  C   UNL A   1     -30.913   0.277  28.695  0.00  0.00    +0.205 C 
ATOM     24  C   UNL A   1     -25.758  -0.004  29.392  0.00  0.00    +0.030 C 
ATOM     25  C   UNL A   1     -23.201   1.994  26.653  0.00  0.00    -0.000 C 
ATOM     26  C   UNL A   1     -33.352  -2.644  26.318  0.00  0.00    +0.001 C 
ATOM     27  C   UNL A   1     -29.572   2.034  29.354  0.00  0.00    +0.037 C 
ATOM     28  C   UNL A   1     -22.995   0.309  29.005  0.00  0.00    -0.004 C 
ATOM     29  C   UNL A   1     -32.324  -1.727  26.409  0.00  0.00    +0.041 C 
ATOM     30  O   UNL A   1     -30.612  -0.754  27.776  0.00  0.00    -0.476 OA
ATOM     31  C   UNL A   1     -32.579  -1.706  28.825  0.00  0.00    +0.037 C 
ATOM     32  C   UNL A   1     -31.802  -1.379  27.663  0.00  0.00    +0.137 C 
ENDROOT
BRANCH   2  33
ATOM     33  C   UNL A   1     -25.642   4.093  27.123  0.00  0.00    +0.266 C 
ATOM     34  N   UNL A   1     -25.614   5.252  26.449  0.00  0.00    -0.200 NA
ATOM     35  C   UNL A   1     -25.026   6.479  26.963  0.00  0.00    +0.139 C 
ATOM     36  O   UNL A   1     -25.143   3.966  28.243  0.00  0.00    -0.268 OA
ENDBRANCH   2  33
BRANCH  24  37
ATOM     37  C   UNL A   1     -24.855  -1.012  30.143  0.00  0.00    +0.042 C 
BRANCH  37  38
ATOM     38  C   UNL A   1     -24.973  -2.505  29.788  0.00  0.00    -0.021 C 
ATOM     39  C   UNL A   1     -23.906  -3.173  29.146  0.00  0.00    -0.004 C 
ATOM     40  C   UNL A   1     -23.989  -4.549  28.853  0.00  0.00    -0.000 C 
ATOM     41  C   UNL A   1     -25.137  -5.280  29.205  0.00  0.00    -0.000 C 
ATOM     42  C   UNL A   1     -26.232  -4.611  29.784  0.00  0.00    -0.000 C 
ATOM     43  C   UNL A   1     -26.155  -3.232  30.065  0.00  0.00    -0.004 C 
ENDBRANCH  37  38
BRANCH  37  44
ATOM     44  C   UNL A   1     -25.387  -0.679  31.571  0.00  0.00    +0.077 C 
ATOM     45  C   UNL A   1     -25.189   0.773  32.028  0.00  0.00    +0.019 C 
ATOM     46  C   UNL A   1     -25.336   0.684  33.544  0.00  0.00    +0.020 C 
ATOM     47  C   UNL A   1     -24.829  -0.715  33.905  0.00  0.00    +0.089 C 
ATOM     48  N   UNL A   1     -24.758  -1.481  32.646  0.00  0.00    -0.219 NA
ENDBRANCH  37  44
ENDBRANCH  24  37
TORSDOF 4
