MODEL 4386
MODEL 1
REMARK VINA RESULT:    -6.581      0.000      0.000
REMARK INTER + INTRA:          -7.769
REMARK INTER:                  -7.350
REMARK INTRA:                  -0.419
REMARK UNBOUND:                -0.419
REMARK  Name = No_4386-gen_results/8p0m/2024-11-27-11-27-31/
REMARK  2 active torsions:
REMARK  status: ('A' for Active; 'I' for Inactive)
REMARK    1  A    between atoms: C_3  and  C_4
REMARK    2  A    between atoms: C_6  and  C_13
REMARK                            x       y       z     vdW  Elec       q    Type
REMARK                         _______ _______ _______ _____ _____    ______ ____
ROOT
ATOM      1  C   UNL A   1     -29.147 -10.280  32.768  0.00  0.00    +0.007 A 
ATOM      2  C   UNL A   1     -29.758 -10.024  31.757  0.00  0.00    +0.000 A 
ATOM      3  C   UNL A   1     -29.569 -10.766  30.596  0.00  0.00    +0.000 A 
ATOM      4  C   UNL A   1     -28.053 -11.263  32.741  0.00  0.00    +0.080 A 
ATOM      5  C   UNL A   1     -27.852 -12.086  31.660  0.00  0.00    +0.007 A 
ATOM      6  C   UNL A   1     -28.580 -11.852  30.482  0.00  0.00    +0.000 A 
ENDROOT
BRANCH   3   7
ATOM      7  C   UNL A   1     -30.250 -10.545  29.288  0.00  0.00    +0.000 A 
ATOM      8  C   UNL A   1     -31.056  -9.402  28.952  0.00  0.00    +0.000 A 
ATOM      9  C   UNL A   1     -31.562  -9.296  27.675  0.00  0.00    +0.000 A 
ATOM     10  C   UNL A   1     -31.002  -9.850  26.620  0.00  0.00    +0.000 A 
ATOM     11  C   UNL A   1     -29.811 -11.280  28.113  0.00  0.00    +0.000 A 
ATOM     12  C   UNL A   1     -30.220 -10.963  26.834  0.00  0.00    +0.000 A 
ENDBRANCH   3   7
BRANCH   4  13
ATOM     13  C   UNL A   1     -27.206 -11.556  33.938  0.00  0.00    +0.388 C 
ATOM     14  O   UNL A   1     -26.892 -10.701  34.750  0.00  0.00    -0.241 OA
ATOM     15  O   UNL A   1     -26.827 -12.764  34.138  0.00  0.00    -0.241 OA
ENDBRANCH   4  13
TORSDOF 2
ENDMDL
ENDMDL
