MODEL 4387
MODEL 1
REMARK VINA RESULT:    -4.512      0.000      0.000
REMARK INTER + INTRA:          -5.198
REMARK INTER:                  -5.039
REMARK INTRA:                  -0.159
REMARK UNBOUND:                -0.159
REMARK  Name = No_4387-gen_results/8p0m/2024-11-27-11-27-31/
REMARK  2 active torsions:
REMARK  status: ('A' for Active; 'I' for Inactive)
REMARK    1  A    between atoms: C_2  and  C_3
REMARK    2  A    between atoms: C_4  and  C_5
REMARK                            x       y       z     vdW  Elec       q    Type
REMARK                         _______ _______ _______ _____ _____    ______ ____
ROOT
ATOM      1  C   UNL A   1      -9.380  -9.231  19.763  0.00  0.00    -0.002 C 
ATOM      2  C   UNL A   1      -9.985  -9.694  18.530  0.00  0.00    +0.012 C 
ENDROOT
BRANCH   1   4
ATOM      3  C   UNL A   1      -7.111  -9.236  20.115  0.00  0.00    -0.026 C 
ATOM      4  C   UNL A   1      -8.178  -9.800  20.185  0.00  0.00    -0.005 C 
ATOM      5  C   UNL A   1      -7.024  -7.886  19.645  0.00  0.00    +0.031 C 
ENDBRANCH   1   4
BRANCH   2   6
ATOM      6  C   UNL A   1      -9.278 -10.744  17.900  0.00  0.00    +0.220 C 
ATOM      7  F   UNL A   1      -8.569 -10.358  16.852  0.00  0.00    -0.229 F 
ENDBRANCH   2   6
TORSDOF 2
ENDMDL
ENDMDL
