MODEL 4388
MODEL 1
REMARK VINA RESULT:    -5.279      0.000      0.000
REMARK INTER + INTRA:          -6.749
REMARK INTER:                  -6.513
REMARK INTRA:                  -0.235
REMARK UNBOUND:                -0.235
REMARK  Name = No_4388-gen_results/8p0m/2024-11-27-11-27-31/
REMARK  4 active torsions:
REMARK  status: ('A' for Active; 'I' for Inactive)
REMARK    1  A    between atoms: C_2  and  P_7
REMARK    2  A    between atoms: P_7  and  O_8
REMARK    3  A    between atoms: O_8  and  C_11
REMARK    4  A    between atoms: C_11  and  C_12
REMARK                            x       y       z     vdW  Elec       q    Type
REMARK                         _______ _______ _______ _____ _____    ______ ____
ROOT
ATOM      1  P   UNL A   1     -24.935  -0.794  29.173  0.00  0.00    +0.392 P 
ATOM      2  O   UNL A   1     -26.053  -0.249  28.428  0.00  0.00    -0.136 OA
ATOM      3  O   UNL A   1     -24.379  -0.413  30.453  0.00  0.00    -0.251 OA
ENDROOT
BRANCH   1   5
ATOM      4  C   UNL A   1     -26.046  -3.157  29.729  0.00  0.00    +0.007 A 
ATOM      5  C   UNL A   1     -25.089  -2.605  29.236  0.00  0.00    +0.082 A 
ATOM      6  C   UNL A   1     -24.047  -3.260  28.664  0.00  0.00    +0.007 A 
ATOM      7  C   UNL A   1     -24.075  -4.668  28.640  0.00  0.00    +0.000 A 
ATOM      8  C   UNL A   1     -26.185  -4.589  29.654  0.00  0.00    +0.000 A 
ATOM      9  C   UNL A   1     -25.152  -5.295  29.116  0.00  0.00    +0.000 A 
ENDBRANCH   1   5
BRANCH   1  10
ATOM     10  O   UNL A   1     -23.775  -0.527  28.358  0.00  0.00    -0.287 OA
BRANCH  10  11
ATOM     11  C   UNL A   1     -22.928   0.588  28.375  0.00  0.00    +0.187 C 
BRANCH  11  12
ATOM     12  C   UNL A   1     -21.526   0.207  28.694  0.00  0.00    +0.214 C 
ATOM     13  O   UNL A   1     -21.287  -1.035  28.873  0.00  0.00    -0.218 OA
ENDBRANCH  11  12
ENDBRANCH  10  11
ENDBRANCH   1  10
TORSDOF 4
ENDMDL
ENDMDL
