REMARK  Name = No_4388-gen_results/8p0m/2024-11-27-11-27-31/
REMARK  4 active torsions:
REMARK  status: ('A' for Active; 'I' for Inactive)
REMARK    1  A    between atoms: C_2  and  P_7
REMARK    2  A    between atoms: P_7  and  O_8
REMARK    3  A    between atoms: O_8  and  C_11
REMARK    4  A    between atoms: C_11  and  C_12
REMARK                            x       y       z     vdW  Elec       q    Type
REMARK                         _______ _______ _______ _____ _____    ______ ____
ROOT
ATOM      1  P   UNL A   1     -25.654  -0.733  27.637  0.00  0.00    +0.392 P 
ATOM      2  O   UNL A   1     -25.276  -2.044  28.128  0.00  0.00    -0.136 OA
ATOM      3  O   UNL A   1     -25.884  -0.261  26.289  0.00  0.00    -0.251 OA
ENDROOT
BRANCH   1   5
ATOM      4  C   UNL A   1     -28.016  -0.814  28.878  0.00  0.00    +0.007 A 
ATOM      5  C   UNL A   1     -27.064  -0.119  28.608  0.00  0.00    +0.082 A 
ATOM      6  C   UNL A   1     -26.929   1.171  29.008  0.00  0.00    +0.007 A 
ATOM      7  C   UNL A   1     -27.956   1.741  29.784  0.00  0.00    +0.000 A 
ATOM      8  C   UNL A   1     -29.057  -0.327  29.747  0.00  0.00    +0.000 A 
ATOM      9  C   UNL A   1     -28.983   0.972  30.152  0.00  0.00    +0.000 A 
ENDBRANCH   1   5
BRANCH   1  10
ATOM     10  O   UNL A   1     -24.545   0.127  27.969  0.00  0.00    -0.287 OA
BRANCH  10  11
ATOM     11  C   UNL A   1     -24.060   1.242  27.274  0.00  0.00    +0.187 C 
BRANCH  11  12
ATOM     12  C   UNL A   1     -22.747   1.692  27.807  0.00  0.00    +0.214 C 
ATOM     13  O   UNL A   1     -22.626   1.758  29.077  0.00  0.00    -0.218 OA
ENDBRANCH  11  12
ENDBRANCH  10  11
ENDBRANCH   1  10
TORSDOF 4
