MODEL 4389
MODEL 1
REMARK VINA RESULT:    -4.476      0.000      0.000
REMARK INTER + INTRA:          -5.225
REMARK INTER:                  -5.000
REMARK INTRA:                  -0.226
REMARK UNBOUND:                -0.226
REMARK  Name = No_4389-gen_results/8p0m/2024-11-27-11-27-31/
REMARK  2 active torsions:
REMARK  status: ('A' for Active; 'I' for Inactive)
REMARK    1  A    between atoms: C_2  and  C_8
REMARK    2  A    between atoms: C_3  and  C_12
REMARK                            x       y       z     vdW  Elec       q    Type
REMARK                         _______ _______ _______ _____ _____    ______ ____
ROOT
ATOM      1  S   UNL A   1     -24.576  -0.312  27.870  0.00  0.00    -0.130 S 
ATOM      2  C   UNL A   1     -23.795   0.463  27.431  0.00  0.00    +0.128 C 
ATOM      3  C   UNL A   1     -23.653  -1.080  29.151  0.00  0.00    +0.078 C 
ATOM      4  C   UNL A   1     -22.802  -0.223  29.667  0.00  0.00    +0.144 C 
ATOM      5  F   UNL A   1     -21.969  -0.736  30.612  0.00  0.00    -0.239 F 
ATOM      6  C   UNL A   1     -22.116   0.437  28.500  0.00  0.00    +0.053 C 
ATOM      7  C   UNL A   1     -23.538   0.844  30.524  0.00  0.00    +0.036 C 
ENDROOT
BRANCH   2   8
ATOM      8  C   UNL A   1     -24.019   1.980  27.426  0.00  0.00    +0.251 C 
ATOM      9  O   UNL A   1     -23.497   2.816  26.819  0.00  0.00    -0.272 OA
ATOM     10  N   UNL A   1     -25.240   2.399  27.937  0.00  0.00    -0.203 NA
ATOM     11  C   UNL A   1     -25.624   3.830  28.030  0.00  0.00    +0.139 C 
ENDBRANCH   2   8
BRANCH   3  12
ATOM     12  C   UNL A   1     -23.878  -2.405  29.659  0.00  0.00    +0.013 C 
ATOM     13  C   UNL A   1     -24.137  -3.405  28.921  0.00  0.00    +0.001 C 
ENDBRANCH   3  12
TORSDOF 2
ENDMDL
ENDMDL
