MODEL 4390
MODEL 1
REMARK VINA RESULT:    -7.941      0.000      0.000
REMARK INTER + INTRA:         -13.005
REMARK INTER:                 -10.262
REMARK INTRA:                  -2.743
REMARK UNBOUND:                -2.743
REMARK  Name = No_4390-gen_results/8p0m/2024-11-27-11-27-31/
REMARK  5 active torsions:
REMARK  status: ('A' for Active; 'I' for Inactive)
REMARK    1  A    between atoms: C_2  and  C_33
REMARK    2  A    between atoms: C_3  and  C_7
REMARK    3  A    between atoms: C_6  and  C_18
REMARK    4  A    between atoms: N_9  and  C_11
REMARK    5  A    between atoms: C_11  and  C_13
REMARK                            x       y       z     vdW  Elec       q    Type
REMARK                         _______ _______ _______ _____ _____    ______ ____
ROOT
ATOM      1  C   UNL A   1     -24.717   1.174  25.655  0.00  0.00    +0.014 A 
ATOM      2  C   UNL A   1     -23.859   1.186  26.267  0.00  0.00    +0.080 A 
ATOM      3  C   UNL A   1     -25.767   0.298  26.010  0.00  0.00    +0.082 A 
ATOM      4  C   UNL A   1     -25.685  -0.532  27.110  0.00  0.00    +0.005 A 
ATOM      5  C   UNL A   1     -23.524   0.416  27.481  0.00  0.00    +0.004 A 
ATOM      6  C   UNL A   1     -24.503  -0.437  27.855  0.00  0.00    -0.005 A 
ENDROOT
BRANCH   6   7
ATOM      7  C   UNL A   1     -24.324  -1.324  29.079  0.00  0.00    +0.086 C 
ATOM      8  N   UNL A   1     -24.735  -2.474  29.194  0.00  0.00    -0.236 NA
ATOM      9  C   UNL A   1     -25.640  -2.891  29.633  0.00  0.00    +0.229 C 
ATOM     10  C   UNL A   1     -25.954  -4.301  29.687  0.00  0.00    +0.061 C 
ATOM     11  C   UNL A   1     -23.962  -3.487  28.455  0.00  0.00    +0.076 C 
ATOM     12  C   UNL A   1     -24.156  -4.806  28.488  0.00  0.00    +0.018 C 
ATOM     13  C   UNL A   1     -25.243  -5.228  29.178  0.00  0.00    +0.007 C 
ATOM     14  C   UNL A   1     -22.874  -1.112  29.623  0.00  0.00    +0.025 C 
ATOM     15  C   UNL A   1     -25.188  -0.521  30.263  0.00  0.00    -0.005 C 
ATOM     16  C   UNL A   1     -26.411  -0.531  30.506  0.00  0.00    +0.031 C 
ATOM     17  C   UNL A   1     -27.175   0.191  31.429  0.00  0.00    +0.003 C 
ATOM     18  C   UNL A   1     -28.464  -0.074  31.394  0.00  0.00    +0.003 C 
ATOM     19  C   UNL A   1     -29.075  -0.831  30.501  0.00  0.00    +0.037 C 
ATOM     20  C   UNL A   1     -27.432  -1.308  29.730  0.00  0.00    +0.140 C 
ATOM     21  O   UNL A   1     -26.789  -2.299  30.087  0.00  0.00    -0.464 OA
ENDBRANCH   6   7
BRANCH   3  22
ATOM     22  C   UNL A   1     -27.056   0.210  25.245  0.00  0.00    +0.319 C 
ATOM     23  N   UNL A   1     -27.351  -0.650  24.451  0.00  0.00    -0.061 NA
ATOM     24  N   UNL A   1     -27.986   1.258  25.420  0.00  0.00    -0.183 N 
ATOM     25  C   UNL A   1     -28.587  -0.204  23.905  0.00  0.00    +0.314 C 
ATOM     26  C   UNL A   1     -28.948   0.920  24.540  0.00  0.00    +0.261 C 
BRANCH  24  27
ATOM     27  C   UNL A   1     -27.872   2.329  26.290  0.00  0.00    +0.255 C 
ATOM     28  C   UNL A   1     -27.546   3.611  25.956  0.00  0.00    +0.060 C 
BRANCH  27  29
ATOM     29  C   UNL A   1     -28.351   1.961  27.770  0.00  0.00    +0.437 C 
ATOM     30  F   UNL A   1     -28.905   0.838  27.768  0.00  0.00    -0.166 F 
ATOM     31  F   UNL A   1     -29.283   2.837  28.221  0.00  0.00    -0.166 F 
ATOM     32  F   UNL A   1     -27.309   1.971  28.590  0.00  0.00    -0.166 F 
ENDBRANCH  27  29
ENDBRANCH  24  27
ENDBRANCH   3  22
BRANCH   2  33
ATOM     33  C   UNL A   1     -22.587   2.130  25.980  0.00  0.00    +0.388 C 
ATOM     34  O   UNL A   1     -22.381   2.658  25.131  0.00  0.00    -0.241 OA
ATOM     35  O   UNL A   1     -21.602   1.937  26.960  0.00  0.00    -0.241 OA
ENDBRANCH   2  33
TORSDOF 5
ENDMDL
ENDMDL
