REMARK  Name = outputs/IAG933/test6/raw/output_4390_IAG933_linker_design_.xyz
REMARK  15 active torsions:
REMARK  status: ('A' for Active; 'I' for Inactive)
REMARK    1  A    between atoms: C_1  and  C_2
REMARK    2  A    between atoms: C_1  and  C_8
REMARK    3  A    between atoms: C_1  and  N_40
REMARK    4  A    between atoms: C_13  and  N_30
REMARK    5  A    between atoms: C_14  and  C_15
REMARK    6  A    between atoms: C_21  and  O_22
REMARK    7  A    between atoms: O_22  and  C_23
REMARK    8  A    between atoms: C_23  and  C_24
REMARK    9  A    between atoms: O_29  and  C_32
REMARK   10  A    between atoms: C_33  and  C_35
REMARK   11  A    between atoms: C_33  and  C_36
REMARK   12  A    between atoms: C_35  and  C_42
REMARK   13  A    between atoms: C_36  and  C_43
REMARK   14  A    between atoms: N_40  and  C_42
REMARK   15  A    between atoms: N_40  and  C_44
REMARK                            x       y       z     vdW  Elec       q    Type
REMARK                         _______ _______ _______ _____ _____    ______ ____
ROOT
ATOM      1  C   UNL A   1     -23.052   0.090  28.820  0.00  0.00    +0.163 C 
ATOM      2  N   UNL A   1     -24.421   1.260  27.116  0.00  0.00    -0.121 N 
ATOM      3  C   UNL A   1     -23.279   1.669  26.398  0.00  0.00    +0.293 C 
ATOM      4  C   UNL A   1     -21.099   1.050  27.751  0.00  0.00    +0.025 C 
ATOM      5  N   UNL A   1     -22.212  -0.166  29.546  0.00  0.00    -0.203 NA
ATOM      6  C   UNL A   1     -21.822   1.584  26.716  0.00  0.00    +0.083 C 
ATOM      7  C   UNL A   1     -21.911   0.418  28.908  0.00  0.00    +0.093 C 
ATOM      8  C   UNL A   1     -24.420   0.448  28.324  0.00  0.00    +0.299 C 
ENDROOT
BRANCH   2   9
ATOM      9  C   UNL A   1     -25.688   1.614  26.461  0.00  0.00    +0.184 C 
ATOM     10  C   UNL A   1     -26.250   2.920  26.395  0.00  0.00    +0.114 C 
ATOM     11  C   UNL A   1     -27.438   3.091  25.645  0.00  0.00    +0.110 C 
ATOM     12  N   UNL A   1     -28.075   2.089  25.003  0.00  0.00    -0.208 NA
ATOM     13  C   UNL A   1     -27.543   0.849  25.079  0.00  0.00    +0.257 C 
ATOM     14  C   UNL A   1     -26.354   0.576  25.777  0.00  0.00    +0.230 C 
ATOM     15  F   UNL A   1     -25.860  -0.681  25.795  0.00  0.00    -0.196 F 
BRANCH  10  16
ATOM     16  C   UNL A   1     -25.642   4.093  27.123  0.00  0.00    +0.270 C 
ATOM     17  N   UNL A   1     -25.614   5.252  26.449  0.00  0.00    -0.200 NA
ATOM     18  C   UNL A   1     -25.026   6.479  26.963  0.00  0.00    +0.139 C 
ATOM     19  O   UNL A   1     -25.143   3.966  28.243  0.00  0.00    -0.268 OA
ENDBRANCH  10  16
BRANCH  13  20
ATOM     20  O   UNL A   1     -28.193  -0.208  24.477  0.00  0.00    -0.456 OA
BRANCH  20  21
ATOM     21  C   UNL A   1     -29.460   0.005  23.866  0.00  0.00    +0.243 C 
BRANCH  21  22
ATOM     22  C   UNL A   1     -30.065  -1.377  23.573  0.00  0.00    +0.229 C 
ATOM     23  O   UNL A   1     -30.729  -1.878  24.721  0.00  0.00    -0.216 OA
ENDBRANCH  21  22
ENDBRANCH  20  21
ENDBRANCH  13  20
ENDBRANCH   2   9
BRANCH   3  24
ATOM     24  O   UNL A   1     -23.456   2.390  25.171  0.00  0.00    -0.442 OA
ATOM     25  C   UNL A   1     -23.690   1.377  24.125  0.00  0.00    +0.256 C 
ENDBRANCH   3  24
BRANCH   8  26
ATOM     26  N   UNL A   1     -25.450  -0.192  29.089  0.00  0.00    -0.192 N 
BRANCH  26  27
ATOM     27  C   UNL A   1     -24.855  -1.012  30.143  0.00  0.00    +0.198 C 
BRANCH  27  28
ATOM     28  C   UNL A   1     -24.973  -2.505  29.788  0.00  0.00    +0.021 C 
ATOM     29  C   UNL A   1     -23.906  -3.173  29.146  0.00  0.00    -0.000 C 
ATOM     30  C   UNL A   1     -23.989  -4.549  28.853  0.00  0.00    -0.000 C 
ATOM     31  C   UNL A   1     -25.137  -5.280  29.205  0.00  0.00    -0.000 C 
ATOM     32  C   UNL A   1     -26.232  -4.611  29.784  0.00  0.00    -0.000 C 
ATOM     33  C   UNL A   1     -26.155  -3.232  30.065  0.00  0.00    -0.000 C 
ENDBRANCH  27  28
BRANCH  27  34
ATOM     34  C   UNL A   1     -25.387  -0.679  31.571  0.00  0.00    +0.120 C 
ATOM     35  C   UNL A   1     -25.189   0.773  32.028  0.00  0.00    +0.023 C 
ATOM     36  C   UNL A   1     -25.336   0.684  33.544  0.00  0.00    +0.020 C 
ATOM     37  C   UNL A   1     -24.829  -0.715  33.905  0.00  0.00    +0.089 C 
ATOM     38  N   UNL A   1     -24.758  -1.481  32.646  0.00  0.00    -0.215 NA
ENDBRANCH  27  34
ENDBRANCH  26  27
BRANCH  26  39
ATOM     39  C   UNL A   1     -26.960  -0.140  28.883  0.00  0.00    +0.202 C 
BRANCH  39  40
ATOM     40  C   UNL A   1     -28.564   0.067  28.939  0.00  0.00    +0.051 C 
BRANCH  40  41
ATOM     41  C   UNL A   1     -29.249   1.509  28.597  0.00  0.00    +0.007 C 
BRANCH  41  42
ATOM     42  C   UNL A   1     -29.117   2.578  29.752  0.00  0.00    +0.036 C 
BRANCH  42  44
ATOM     43  O   UNL A   1     -27.050   3.467  30.559  0.00  0.00    -0.220 OA
ATOM     44  C   UNL A   1     -27.975   2.380  30.745  0.00  0.00    +0.182 C 
ENDBRANCH  42  44
ENDBRANCH  41  42
ENDBRANCH  40  41
ENDBRANCH  39  40
ENDBRANCH  26  39
ENDBRANCH   8  26
TORSDOF 15
