MODEL 4391
MODEL 1
REMARK VINA RESULT:    -5.953      0.000      0.000
REMARK INTER + INTRA:          -6.906
REMARK INTER:                  -6.649
REMARK INTRA:                  -0.257
REMARK UNBOUND:                -0.257
REMARK  Name = No_4391-gen_results/8p0m/2024-11-27-11-27-31/
REMARK  2 active torsions:
REMARK  status: ('A' for Active; 'I' for Inactive)
REMARK    1  A    between atoms: C_2  and  C_5
REMARK    2  A    between atoms: C_3  and  C_9
REMARK                            x       y       z     vdW  Elec       q    Type
REMARK                         _______ _______ _______ _____ _____    ______ ____
ROOT
ATOM      1  C   UNL A   1     -28.260 -11.840  31.198  0.00  0.00    +0.010 A 
ATOM      2  C   UNL A   1     -28.237 -11.494  32.193  0.00  0.00    +0.080 A 
ATOM      3  C   UNL A   1     -29.218 -11.129  30.352  0.00  0.00    +0.072 A 
ATOM      4  C   UNL A   1     -29.988 -10.097  30.830  0.00  0.00    +0.004 A 
ATOM      5  C   UNL A   1     -29.817  -9.732  32.178  0.00  0.00    +0.000 A 
ATOM      6  C   UNL A   1     -28.858 -10.401  32.942  0.00  0.00    +0.007 A 
ENDROOT
BRANCH   3   7
ATOM      7  C   UNL A   1     -29.405 -11.456  28.878  0.00  0.00    +0.419 C 
ATOM      8  F   UNL A   1     -28.569 -11.826  28.276  0.00  0.00    -0.166 F 
ATOM      9  F   UNL A   1     -30.091 -10.504  28.205  0.00  0.00    -0.166 F 
ATOM     10  F   UNL A   1     -30.361 -12.551  28.788  0.00  0.00    -0.166 F 
ENDBRANCH   3   7
BRANCH   2  11
ATOM     11  C   UNL A   1     -27.213 -12.170  33.154  0.00  0.00    +0.388 C 
ATOM     12  O   UNL A   1     -26.421 -13.049  32.592  0.00  0.00    -0.241 OA
ATOM     13  O   UNL A   1     -27.389 -12.308  34.331  0.00  0.00    -0.241 OA
ENDBRANCH   2  11
TORSDOF 2
ENDMDL
ENDMDL
