MODEL 4392
MODEL 1
REMARK VINA RESULT:    -6.226      0.000      0.000
REMARK INTER + INTRA:          -6.847
REMARK INTER:                  -6.590
REMARK INTRA:                  -0.257
REMARK UNBOUND:                -0.257
REMARK  Name = No_4392-gen_results/8p0m/2024-11-27-11-27-31/
REMARK  1 active torsions:
REMARK  status: ('A' for Active; 'I' for Inactive)
REMARK    1  A    between atoms: C_4  and  C_7
REMARK                            x       y       z     vdW  Elec       q    Type
REMARK                         _______ _______ _______ _____ _____    ______ ____
ROOT
ATOM      1  C   UNL A   1     -26.330  -4.435  29.757  0.00  0.00    +0.030 A 
ATOM      2  C   UNL A   1     -25.662  -5.182  29.431  0.00  0.00    +0.002 A 
ATOM      3  C   UNL A   1     -25.870  -3.043  29.639  0.00  0.00    +0.140 A 
ATOM      4  C   UNL A   1     -24.641  -2.738  28.982  0.00  0.00    +0.029 A 
ATOM      5  C   UNL A   1     -23.906  -3.815  28.554  0.00  0.00    +0.002 A 
ATOM      6  C   UNL A   1     -24.364  -5.074  28.712  0.00  0.00    +0.000 A 
ATOM      7  F   UNL A   1     -26.571  -1.979  30.047  0.00  0.00    -0.204 F 
ENDROOT
BRANCH   4   8
ATOM      8  C   UNL A   1     -24.184  -1.380  28.840  0.00  0.00    +0.021 A 
ATOM      9  C   UNL A   1     -24.776  -0.649  27.790  0.00  0.00    +0.003 A 
ATOM     10  C   UNL A   1     -24.088   0.429  27.175  0.00  0.00    +0.021 A 
ATOM     11  C   UNL A   1     -22.865   0.825  27.812  0.00  0.00    +0.099 A 
ATOM     12  C   UNL A   1     -22.889  -0.971  29.292  0.00  0.00    +0.099 A 
ATOM     13  N   UNL A   1     -22.272   0.085  28.674  0.00  0.00    -0.242 NA
ENDBRANCH   4   8
TORSDOF 1
ENDMDL
ENDMDL
