REMARK  Name = outputs/IAG933/test6/raw/output_4393_IAG933_linker_design_.xyz
REMARK  14 active torsions:
REMARK  status: ('A' for Active; 'I' for Inactive)
REMARK    1  A    between atoms: C_1  and  C_2
REMARK    2  A    between atoms: C_1  and  C_8
REMARK    3  A    between atoms: C_1  and  O_41
REMARK    4  A    between atoms: C_14  and  C_15
REMARK    5  A    between atoms: C_15  and  O_18
REMARK    6  A    between atoms: O_18  and  C_38
REMARK    7  A    between atoms: C_21  and  O_22
REMARK    8  A    between atoms: O_22  and  C_23
REMARK    9  A    between atoms: C_23  and  C_24
REMARK   10  A    between atoms: C_30  and  O_31
REMARK   11  A    between atoms: O_31  and  C_38
REMARK   12  A    between atoms: C_33  and  O_37
REMARK   13  A    between atoms: C_34  and  C_38
REMARK   14  A    between atoms: C_35  and  O_41
REMARK                            x       y       z     vdW  Elec       q    Type
REMARK                         _______ _______ _______ _____ _____    ______ ____
ROOT
ATOM      1  C   UNL A   1     -22.972   1.806  28.200  0.00  0.00    +0.173 C 
ATOM      2  C   UNL A   1     -21.543  -0.232  29.228  0.00  0.00    +0.066 C 
ATOM      3  C   UNL A   1     -21.876   1.387  27.534  0.00  0.00    +0.169 C 
ATOM      4  C   UNL A   1     -22.849  -0.039  29.591  0.00  0.00    +0.115 C 
ATOM      5  C   UNL A   1     -20.994   0.523  28.150  0.00  0.00    +0.042 C 
ATOM      6  C   UNL A   1     -23.445   1.016  29.048  0.00  0.00    +0.038 C 
ENDROOT
BRANCH   3   8
ATOM      7 CL   UNL A   1     -22.703   2.708  25.160  0.00  0.00    +0.062 Cl
ATOM      8  O   UNL A   1     -21.803   1.727  26.183  0.00  0.00    -0.264 OA
ENDBRANCH   3   8
BRANCH   1   9
ATOM      9  O   UNL A   1     -23.724   2.774  28.034  0.00  0.00    -0.307 OA
BRANCH   9  10
ATOM     10  C   UNL A   1     -24.808   3.071  29.054  0.00  0.00    +0.397 C 
BRANCH  10  12
ATOM     11  O   UNL A   1     -25.777   4.496  30.864  0.00  0.00    -0.239 OA
ATOM     12  C   UNL A   1     -26.119   3.662  30.089  0.00  0.00    +0.434 C 
ATOM     13  O   UNL A   1     -27.196   3.226  29.825  0.00  0.00    -0.239 OA
ENDBRANCH  10  12
BRANCH  10  14
ATOM     14  O   UNL A   1     -25.143   3.966  28.243  0.00  0.00    -0.428 OA
BRANCH  14  15
ATOM     15  C   UNL A   1     -25.642   4.093  27.123  0.00  0.00    +0.225 C 
ATOM     16  N   UNL A   1     -25.614   5.252  26.449  0.00  0.00    -0.236 NA
ATOM     17  C   UNL A   1     -25.026   6.479  26.963  0.00  0.00    +0.155 C 
BRANCH  15  19
ATOM     18  C   UNL A   1     -25.688   1.614  26.461  0.00  0.00    +0.041 C 
ATOM     19  C   UNL A   1     -26.250   2.920  26.395  0.00  0.00    +0.074 C 
ATOM     20  C   UNL A   1     -27.438   3.091  25.645  0.00  0.00    +0.107 C 
ATOM     21  N   UNL A   1     -28.075   2.089  25.003  0.00  0.00    -0.208 NA
ATOM     22  C   UNL A   1     -27.543   0.849  25.079  0.00  0.00    +0.253 C 
ATOM     23  C   UNL A   1     -26.354   0.576  25.777  0.00  0.00    +0.193 C 
ATOM     24  F   UNL A   1     -25.860  -0.681  25.795  0.00  0.00    -0.199 F 
BRANCH  22  25
ATOM     25  O   UNL A   1     -28.193  -0.208  24.477  0.00  0.00    -0.456 OA
BRANCH  25  26
ATOM     26  C   UNL A   1     -29.460   0.005  23.866  0.00  0.00    +0.243 C 
BRANCH  26  27
ATOM     27  C   UNL A   1     -30.065  -1.377  23.573  0.00  0.00    +0.229 C 
ATOM     28  O   UNL A   1     -30.729  -1.878  24.721  0.00  0.00    -0.216 OA
ENDBRANCH  26  27
ENDBRANCH  25  26
ENDBRANCH  22  25
ENDBRANCH  15  19
ENDBRANCH  14  15
ENDBRANCH  10  14
ENDBRANCH   9  10
ENDBRANCH   1   9
BRANCH   4  29
ATOM     29  O   UNL A   1     -23.491  -0.816  30.471  0.00  0.00    -0.478 OA
BRANCH  29  30
ATOM     30  C   UNL A   1     -24.855  -1.012  30.143  0.00  0.00    +0.203 C 
BRANCH  30  31
ATOM     31  C   UNL A   1     -24.973  -2.505  29.788  0.00  0.00    +0.019 C 
ATOM     32  C   UNL A   1     -23.906  -3.173  29.146  0.00  0.00    -0.001 C 
ATOM     33  C   UNL A   1     -23.989  -4.549  28.853  0.00  0.00    -0.000 C 
ATOM     34  C   UNL A   1     -25.137  -5.280  29.205  0.00  0.00    -0.000 C 
ATOM     35  C   UNL A   1     -26.232  -4.611  29.784  0.00  0.00    -0.000 C 
ATOM     36  C   UNL A   1     -26.155  -3.232  30.065  0.00  0.00    -0.001 C 
ENDBRANCH  30  31
BRANCH  30  37
ATOM     37  C   UNL A   1     -25.387  -0.679  31.571  0.00  0.00    +0.117 C 
ATOM     38  C   UNL A   1     -25.189   0.773  32.028  0.00  0.00    +0.023 C 
ATOM     39  C   UNL A   1     -25.336   0.684  33.544  0.00  0.00    +0.020 C 
ATOM     40  C   UNL A   1     -24.829  -0.715  33.905  0.00  0.00    +0.089 C 
ATOM     41  N   UNL A   1     -24.758  -1.481  32.646  0.00  0.00    -0.215 NA
ENDBRANCH  30  37
ENDBRANCH  29  30
ENDBRANCH   4  29
TORSDOF 14
