REMARK  Name = outputs/IAG933/test6/raw/output_4394_IAG933_linker_design_.xyz
REMARK  12 active torsions:
REMARK  status: ('A' for Active; 'I' for Inactive)
REMARK    1  A    between atoms: C_1  and  C_2
REMARK    2  A    between atoms: C_1  and  C_8
REMARK    3  A    between atoms: C_9  and  N_44
REMARK    4  A    between atoms: C_13  and  N_35
REMARK    5  A    between atoms: C_14  and  C_15
REMARK    6  A    between atoms: C_21  and  O_22
REMARK    7  A    between atoms: O_22  and  C_23
REMARK    8  A    between atoms: C_23  and  C_24
REMARK    9  A    between atoms: C_30  and  C_36
REMARK   10  A    between atoms: C_36  and  N_44
REMARK   11  A    between atoms: C_38  and  N_45
REMARK   12  A    between atoms: C_40  and  S_42
REMARK                            x       y       z     vdW  Elec       q    Type
REMARK                         _______ _______ _______ _____ _____    ______ ____
ROOT
ATOM      1  O   UNL A   1     -23.161   2.777  31.525  0.00  0.00    -0.251 OA
ATOM      2  C   UNL A   1     -24.038   2.214  31.023  0.00  0.00    +0.324 C 
ATOM      3  N   UNL A   1     -25.380   2.178  31.502  0.00  0.00    -0.259 N 
ATOM      4  N   UNL A   1     -23.414   1.588  29.803  0.00  0.00    -0.188 NA
ENDROOT
BRANCH   3   6
ATOM      5  C   UNL A   1     -25.387  -0.679  31.571  0.00  0.00    +0.095 C 
ATOM      6  C   UNL A   1     -25.189   0.773  32.028  0.00  0.00    +0.095 C 
ATOM      7  C   UNL A   1     -25.336   0.684  33.544  0.00  0.00    +0.040 C 
ATOM      8  C   UNL A   1     -24.829  -0.715  33.905  0.00  0.00    +0.090 C 
ATOM      9  N   UNL A   1     -24.758  -1.481  32.646  0.00  0.00    -0.217 NA
BRANCH   5  10
ATOM     10  C   UNL A   1     -24.855  -1.012  30.143  0.00  0.00    +0.045 C 
BRANCH  10  11
ATOM     11  C   UNL A   1     -24.973  -2.505  29.788  0.00  0.00    -0.021 C 
ATOM     12  C   UNL A   1     -23.906  -3.173  29.146  0.00  0.00    -0.004 C 
ATOM     13  C   UNL A   1     -23.989  -4.549  28.853  0.00  0.00    -0.000 C 
ATOM     14  C   UNL A   1     -25.137  -5.280  29.205  0.00  0.00    -0.000 C 
ATOM     15  C   UNL A   1     -26.232  -4.611  29.784  0.00  0.00    -0.000 C 
ATOM     16  C   UNL A   1     -26.155  -3.232  30.065  0.00  0.00    -0.004 C 
ENDBRANCH  10  11
ENDBRANCH   5  10
ENDBRANCH   3   6
BRANCH   4  20
ATOM     17  C   UNL A   1     -22.792   1.597  27.118  0.00  0.00    +0.096 C 
ATOM     18  C   UNL A   1     -21.380   1.968  27.412  0.00  0.00    +0.045 C 
ATOM     19  N   UNL A   1     -24.528   1.491  26.866  0.00  0.00    -0.304 N 
ATOM     20  C   UNL A   1     -22.581   0.772  28.383  0.00  0.00    +0.117 C 
ATOM     21  C   UNL A   1     -23.246   1.807  25.881  0.00  0.00    +0.111 C 
BRANCH  19  22
ATOM     22  C   UNL A   1     -25.688   1.614  26.461  0.00  0.00    +0.086 C 
ATOM     23  C   UNL A   1     -26.250   2.920  26.395  0.00  0.00    +0.090 C 
ATOM     24  C   UNL A   1     -27.438   3.091  25.645  0.00  0.00    +0.108 C 
ATOM     25  N   UNL A   1     -28.075   2.089  25.003  0.00  0.00    -0.208 NA
ATOM     26  C   UNL A   1     -27.543   0.849  25.079  0.00  0.00    +0.255 C 
ATOM     27  C   UNL A   1     -26.354   0.576  25.777  0.00  0.00    +0.206 C 
ATOM     28  F   UNL A   1     -25.860  -0.681  25.795  0.00  0.00    -0.198 F 
BRANCH  23  29
ATOM     29  C   UNL A   1     -25.642   4.093  27.123  0.00  0.00    +0.268 C 
ATOM     30  N   UNL A   1     -25.614   5.252  26.449  0.00  0.00    -0.200 NA
ATOM     31  C   UNL A   1     -25.026   6.479  26.963  0.00  0.00    +0.139 C 
ATOM     32  O   UNL A   1     -25.143   3.966  28.243  0.00  0.00    -0.268 OA
ENDBRANCH  23  29
BRANCH  26  33
ATOM     33  O   UNL A   1     -28.193  -0.208  24.477  0.00  0.00    -0.456 OA
BRANCH  33  34
ATOM     34  C   UNL A   1     -29.460   0.005  23.866  0.00  0.00    +0.243 C 
BRANCH  34  35
ATOM     35  C   UNL A   1     -30.065  -1.377  23.573  0.00  0.00    +0.229 C 
ATOM     36  O   UNL A   1     -30.729  -1.878  24.721  0.00  0.00    -0.216 OA
ENDBRANCH  34  35
ENDBRANCH  33  34
ENDBRANCH  26  33
ENDBRANCH  19  22
ENDBRANCH   4  20
BRANCH   3  37
ATOM     37  C   UNL A   1     -25.759   3.380  32.456  0.00  0.00    +0.122 C 
BRANCH  37  38
ATOM     38  C   UNL A   1     -25.313   4.869  32.455  0.00  0.00    -0.002 C 
ATOM     39  C   UNL A   1     -24.207   7.441  31.931  0.00  0.00    +0.006 C 
ATOM     40  C   UNL A   1     -25.926   5.788  31.623  0.00  0.00    -0.003 C 
ATOM     41  C   UNL A   1     -25.361   7.024  31.286  0.00  0.00    +0.000 C 
ATOM     42  C   UNL A   1     -23.643   6.634  32.919  0.00  0.00    +0.025 C 
ATOM     43  C   UNL A   1     -24.264   5.396  33.217  0.00  0.00    +0.004 C 
BRANCH  42  45
ATOM     44  C   UNL A   1     -21.757   7.377  32.005  0.00  0.00    +0.074 C 
ATOM     45  S   UNL A   1     -22.058   6.925  33.632  0.00  0.00    -0.113 S 
ENDBRANCH  42  45
ENDBRANCH  37  38
ENDBRANCH   3  37
TORSDOF 12
