MODEL 4394
MODEL 1
REMARK VINA RESULT:    -7.851      0.000      0.000
REMARK INTER + INTRA:          -9.817
REMARK INTER:                  -9.228
REMARK INTRA:                  -0.589
REMARK UNBOUND:                -0.589
REMARK  Name = No_4394-gen_results/8p0m/2024-11-27-11-27-31/
REMARK  3 active torsions:
REMARK  status: ('A' for Active; 'I' for Inactive)
REMARK    1  A    between atoms: C_3  and  O_15
REMARK    2  A    between atoms: C_4  and  C_8
REMARK    3  A    between atoms: O_15  and  C_16
REMARK                            x       y       z     vdW  Elec       q    Type
REMARK                         _______ _______ _______ _____ _____    ______ ____
ROOT
ATOM      1  C   UNL A   1     -24.452  -0.473  31.869  0.00  0.00    +0.045 A 
ATOM      2  C   UNL A   1     -24.872   0.371  32.340  0.00  0.00    +0.044 A 
ATOM      3  C   UNL A   1     -24.069  -0.284  30.418  0.00  0.00    +0.146 A 
ATOM      4  C   UNL A   1     -24.154   1.001  29.842  0.00  0.00    +0.035 A 
ATOM      5  C   UNL A   1     -25.036   1.800  31.988  0.00  0.00    +0.041 A 
ATOM      6  C   UNL A   1     -24.687   2.014  30.662  0.00  0.00    +0.010 A 
ATOM      7 BR   UNL A   1     -25.386  -0.080  34.185  0.00  0.00    -0.048 Br
ATOM      8 BR   UNL A   1     -25.671   3.123  33.116  0.00  0.00    -0.049 Br
ENDROOT
BRANCH   4   9
ATOM      9  C   UNL A   1     -23.783   1.235  28.461  0.00  0.00    +0.004 A 
ATOM     10  C   UNL A   1     -22.939   1.692  28.033  0.00  0.00    +0.000 A 
ATOM     11  C   UNL A   1     -22.635   2.017  26.605  0.00  0.00    +0.001 A 
ATOM     12  C   UNL A   1     -23.554   1.460  25.748  0.00  0.00    +0.011 A 
ATOM     13  C   UNL A   1     -24.729   0.701  27.434  0.00  0.00    +0.011 A 
ATOM     14  C   UNL A   1     -24.625   0.862  26.162  0.00  0.00    +0.058 A 
ATOM     15 CL   UNL A   1     -25.798   0.228  25.083  0.00  0.00    -0.082 Cl
ENDBRANCH   4   9
BRANCH   3  16
ATOM     16  O   UNL A   1     -23.606  -1.278  29.719  0.00  0.00    -0.453 OA
BRANCH  16  17
ATOM     17  C   UNL A   1     -24.360  -2.412  29.423  0.00  0.00    +0.147 A 
ATOM     18  C   UNL A   1     -23.869  -3.422  28.846  0.00  0.00    +0.067 A 
ATOM     19  C   UNL A   1     -25.690  -2.415  29.944  0.00  0.00    +0.038 A 
ATOM     20  C   UNL A   1     -24.230  -4.379  28.774  0.00  0.00    +0.143 A 
ATOM     21  C   UNL A   1     -26.367  -3.612  29.872  0.00  0.00    +0.005 A 
ATOM     22  C   UNL A   1     -25.674  -4.634  29.173  0.00  0.00    +0.030 A 
ATOM     23  F   UNL A   1     -23.782  -5.535  28.046  0.00  0.00    -0.204 F 
ENDBRANCH  16  17
ENDBRANCH   3  16
TORSDOF 3
ENDMDL
ENDMDL
