REMARK  Name = No_4395-gen_results/8p0m/2024-11-27-11-27-31/
REMARK  1 active torsions:
REMARK  status: ('A' for Active; 'I' for Inactive)
REMARK    1  A    between atoms: N_14  and  C_15
REMARK                            x       y       z     vdW  Elec       q    Type
REMARK                         _______ _______ _______ _____ _____    ______ ____
ROOT
ATOM      1  C   UNL A   1     -28.016  -0.814  28.878  0.00  0.00    +0.015 A 
ATOM      2  C   UNL A   1     -28.469  -0.785  29.829  0.00  0.00    +0.001 A 
ATOM      3  C   UNL A   1     -26.546  -0.876  28.850  0.00  0.00    +0.052 A 
ATOM      4  C   UNL A   1     -25.804  -1.032  30.057  0.00  0.00    -0.004 A 
ATOM      5  C   UNL A   1     -26.537  -1.039  31.217  0.00  0.00    -0.003 A 
ATOM      6  C   UNL A   1     -27.884  -0.953  31.186  0.00  0.00    -0.000 A 
ATOM      7  C   UNL A   1     -24.366  -1.113  30.048  0.00  0.00    +0.055 C 
ATOM      8  C   UNL A   1     -23.625  -0.943  29.023  0.00  0.00    -0.004 A 
ATOM      9  C   UNL A   1     -22.378  -0.335  29.068  0.00  0.00    -0.003 A 
ATOM     10  C   UNL A   1     -21.688   0.095  27.934  0.00  0.00    -0.000 A 
ATOM     11  C   UNL A   1     -22.475   1.014  27.130  0.00  0.00    +0.001 A 
ATOM     12  C   UNL A   1     -23.901   0.819  27.094  0.00  0.00    +0.015 A 
ATOM     13  C   UNL A   1     -24.447  -0.208  27.925  0.00  0.00    +0.052 A 
ATOM     14  N   UNL A   1     -25.786  -0.473  27.762  0.00  0.00    -0.269 N 
ENDROOT
BRANCH  14  15
ATOM     15  C   UNL A   1     -26.359  -0.228  26.518  0.00  0.00    +0.039 C 
ATOM     16  C   UNL A   1     -25.854  -0.551  25.428  0.00  0.00    +0.012 C 
ATOM     17  C   UNL A   1     -26.437  -0.300  24.152  0.00  0.00    +0.015 C 
ATOM     18  C   UNL A   1     -27.789   0.246  24.353  0.00  0.00    +0.072 C 
ATOM     19  C   UNL A   1     -27.589   0.594  26.206  0.00  0.00    +0.086 C 
ATOM     20  N   UNL A   1     -28.163   0.778  25.242  0.00  0.00    -0.132 NA
ENDBRANCH  14  15
TORSDOF 1
