REMARK  Name = No_4396-gen_results/8p0m/2024-11-27-11-27-31/
REMARK  5 active torsions:
REMARK  status: ('A' for Active; 'I' for Inactive)
REMARK    1  A    between atoms: C_1  and  C_2
REMARK    2  A    between atoms: C_1  and  C_8
REMARK    3  A    between atoms: C_8  and  C_9
REMARK    4  A    between atoms: C_11  and  C_12
REMARK    5  A    between atoms: C_12  and  C_13
REMARK                            x       y       z     vdW  Elec       q    Type
REMARK                         _______ _______ _______ _____ _____    ______ ____
ROOT
ATOM      1  C   UNL A   1     -28.660  -0.460  30.201  0.00  0.00    +0.022 C 
ATOM      2  C   UNL A   1     -29.005   1.073  30.202  0.00  0.00    +0.004 C 
ATOM      3  C   UNL A   1     -27.495  -0.670  31.290  0.00  0.00    +0.004 C 
ATOM      4  C   UNL A   1     -28.444   1.933  30.916  0.00  0.00    +0.000 C 
ATOM      5  C   UNL A   1     -26.963   0.337  32.129  0.00  0.00    +0.000 C 
ATOM      6  C   UNL A   1     -27.446   1.660  31.928  0.00  0.00    +0.000 C 
ENDROOT
BRANCH   1   7
ATOM      7  C   UNL A   1     -29.750  -1.249  30.677  0.00  0.00    -0.025 C 
ATOM      8  C   UNL A   1     -30.079  -2.243  29.940  0.00  0.00    +0.043 C 
BRANCH   8   9
ATOM      9  C   UNL A   1     -31.249  -2.975  30.483  0.00  0.00    +0.367 C 
ATOM     10  F   UNL A   1     -30.951  -3.366  31.757  0.00  0.00    -0.190 F 
ATOM     11  F   UNL A   1     -32.289  -2.106  30.619  0.00  0.00    -0.190 F 
BRANCH   9  12
ATOM     12  C   UNL A   1     -31.670  -4.123  29.733  0.00  0.00    +0.459 C 
ATOM     13  F   UNL A   1     -30.762  -4.671  29.330  0.00  0.00    -0.165 F 
ATOM     14  F   UNL A   1     -32.361  -4.966  30.546  0.00  0.00    -0.165 F 
ATOM     15  F   UNL A   1     -32.503  -3.723  28.745  0.00  0.00    -0.165 F 
ENDBRANCH   9  12
ENDBRANCH   8   9
ENDBRANCH   1   7
BRANCH   1  16
ATOM     16  C   UNL A   1     -28.016  -0.814  28.878  0.00  0.00    +0.030 C 
BRANCH  16  17
ATOM     17  C   UNL A   1     -27.064  -0.119  28.608  0.00  0.00    -0.022 A 
ATOM     18  C   UNL A   1     -25.792  -0.430  29.076  0.00  0.00    -0.003 A 
ATOM     19  C   UNL A   1     -24.546   0.349  28.823  0.00  0.00    +0.011 A 
ATOM     20  C   UNL A   1     -24.659   1.420  27.888  0.00  0.00    +0.058 A 
ATOM     21  C   UNL A   1     -25.947   1.681  27.379  0.00  0.00    +0.011 A 
ATOM     22  C   UNL A   1     -27.044   0.974  27.687  0.00  0.00    -0.003 A 
ATOM     23 CL   UNL A   1     -23.258   2.274  27.544  0.00  0.00    -0.082 Cl
ENDBRANCH  16  17
ENDBRANCH   1  16
TORSDOF 5
