MODEL 4397
MODEL 1
REMARK VINA RESULT:    -6.210      0.000      0.000
REMARK INTER + INTRA:          -7.999
REMARK INTER:                  -7.300
REMARK INTRA:                  -0.699
REMARK UNBOUND:                -0.699
REMARK  Name = No_4397-gen_results/8p0m/2024-11-27-11-27-31/
REMARK  3 active torsions:
REMARK  status: ('A' for Active; 'I' for Inactive)
REMARK    1  A    between atoms: C_2  and  C_3
REMARK    2  A    between atoms: N_4  and  C_10
REMARK    3  A    between atoms: C_11  and  C_12
REMARK                            x       y       z     vdW  Elec       q    Type
REMARK                         _______ _______ _______ _____ _____    ______ ____
ROOT
ATOM      1  O   UNL A   1     -27.345   0.047  26.608  0.00  0.00    -0.270 OA
ATOM      2  C   UNL A   1     -26.508   0.153  27.394  0.00  0.00    +0.253 C 
ATOM      3  N   UNL A   1     -26.648  -0.314  28.769  0.00  0.00    -0.257 N 
ATOM      4  C   UNL A   1     -28.033  -0.306  29.154  0.00  0.00    +0.120 C 
ENDROOT
BRANCH   2   5
ATOM      5  C   UNL A   1     -25.402   0.946  27.166  0.00  0.00    +0.054 A 
ATOM      6  C   UNL A   1     -24.224   0.500  26.808  0.00  0.00    +0.004 A 
ATOM      7  C   UNL A   1     -25.594   2.392  27.187  0.00  0.00    +0.004 A 
ATOM      8  C   UNL A   1     -23.088   1.399  26.615  0.00  0.00    +0.000 A 
ATOM      9  C   UNL A   1     -24.559   3.310  26.808  0.00  0.00    +0.000 A 
ATOM     10  C   UNL A   1     -23.312   2.748  26.527  0.00  0.00    +0.000 A 
ENDBRANCH   2   5
BRANCH   3  11
ATOM     11  C   UNL A   1     -25.705  -0.222  29.812  0.00  0.00    +0.032 C 
ATOM     12  C   UNL A   1     -24.876  -1.207  29.972  0.00  0.00    +0.011 C 
ATOM     13  C   UNL A   1     -25.839   0.904  30.650  0.00  0.00    +0.048 C 
BRANCH  12  14
ATOM     14  C   UNL A   1     -25.018  -2.546  29.680  0.00  0.00    +0.001 A 
ATOM     15  C   UNL A   1     -26.117  -3.186  30.025  0.00  0.00    +0.000 A 
ATOM     16  C   UNL A   1     -26.163  -4.584  29.654  0.00  0.00    +0.000 A 
ATOM     17  C   UNL A   1     -25.124  -5.180  29.025  0.00  0.00    +0.000 A 
ATOM     18  C   UNL A   1     -24.087  -4.397  28.597  0.00  0.00    +0.000 A 
ATOM     19  C   UNL A   1     -23.938  -3.096  28.920  0.00  0.00    +0.000 A 
ENDBRANCH  12  14
ENDBRANCH   3  11
TORSDOF 3
ENDMDL
ENDMDL
