MODEL 4398
MODEL 1
REMARK VINA RESULT:    -7.663      0.000      0.000
REMARK INTER + INTRA:          -8.449
REMARK INTER:                  -8.111
REMARK INTRA:                  -0.338
REMARK UNBOUND:                -0.338
REMARK  Name = No_4398-gen_results/8p0m/2024-11-27-11-27-31/
REMARK  1 active torsions:
REMARK  status: ('A' for Active; 'I' for Inactive)
REMARK    1  A    between atoms: C_11  and  C_21
REMARK                            x       y       z     vdW  Elec       q    Type
REMARK                         _______ _______ _______ _____ _____    ______ ____
ROOT
ATOM      1  C   UNL A   1      -8.065   3.145  34.162  0.00  0.00    +0.119 A 
ATOM      2  C   UNL A   1      -9.092   3.024  34.364  0.00  0.00    +0.103 A 
ATOM      3  N   UNL A   1      -7.687   4.347  33.519  0.00  0.00    -0.211 NA
ATOM      4  C   UNL A   1      -8.757   5.199  33.409  0.00  0.00    +0.221 A 
ATOM      5  N   UNL A   1      -9.504   1.709  35.063  0.00  0.00    -0.277 N 
ATOM      6  N   UNL A   1      -9.937   5.060  33.764  0.00  0.00    -0.196 NA
ATOM      7  C   UNL A   1     -10.152   3.857  34.342  0.00  0.00    +0.167 A 
ATOM      8  C   UNL A   1      -9.047   0.756  35.298  0.00  0.00    +0.155 C 
ATOM      9 CL   UNL A   1      -7.640   0.414  34.534  0.00  0.00    -0.093 Cl
ATOM     10  C   UNL A   1      -9.482  -0.236  36.246  0.00  0.00    +0.041 C 
ATOM     11  C   UNL A   1     -10.469   0.062  36.958  0.00  0.00    +0.029 C 
ATOM     12  C   UNL A   1     -11.236   1.260  36.736  0.00  0.00    +0.047 C 
ATOM     13  C   UNL A   1     -10.904   2.025  35.739  0.00  0.00    +0.170 C 
ATOM     14  N   UNL A   1     -11.245   3.381  35.054  0.00  0.00    -0.200 NA
ATOM     15  N   UNL A   1      -8.496   6.518  32.787  0.00  0.00    -0.278 N 
ATOM     16  C   UNL A   1      -7.343   7.167  32.913  0.00  0.00    +0.094 C 
ATOM     17  C   UNL A   1      -9.469   7.048  31.926  0.00  0.00    +0.094 C 
ATOM     18  C   UNL A   1      -9.235   7.023  30.474  0.00  0.00    +0.022 C 
ATOM     19  C   UNL A   1      -7.848   7.514  30.175  0.00  0.00    +0.004 C 
ATOM     20  C   UNL A   1      -6.879   7.334  31.318  0.00  0.00    +0.022 C 
ENDROOT
BRANCH  11  21
ATOM     21  C   UNL A   1     -11.083  -0.873  37.930  0.00  0.00    -0.022 A 
ATOM     22  C   UNL A   1     -11.542  -1.973  37.687  0.00  0.00    -0.004 A 
ATOM     23  C   UNL A   1     -12.164  -2.852  38.679  0.00  0.00    -0.000 A 
ATOM     24  C   UNL A   1     -12.176  -2.326  39.969  0.00  0.00    -0.000 A 
ATOM     25  C   UNL A   1     -11.687  -1.119  40.256  0.00  0.00    -0.000 A 
ATOM     26  C   UNL A   1     -11.125  -0.362  39.295  0.00  0.00    -0.004 A 
ENDBRANCH  11  21
TORSDOF 1
ENDMDL
ENDMDL
