MODEL 4399
MODEL 1
REMARK VINA RESULT:    -7.356      0.000      0.000
REMARK INTER + INTRA:         -12.511
REMARK INTER:                 -10.796
REMARK INTRA:                  -1.715
REMARK UNBOUND:                -1.715
REMARK  Name = No_4399-gen_results/8p0m/2024-11-27-11-27-31/
REMARK  8 active torsions:
REMARK  status: ('A' for Active; 'I' for Inactive)
REMARK    1  A    between atoms: C_4  and  C_18
REMARK    2  A    between atoms: C_5  and  C_11
REMARK    3  A    between atoms: C_9  and  C_15
REMARK    4  A    between atoms: N_21  and  C_22
REMARK    5  A    between atoms: C_22  and  C_24
REMARK    6  A    between atoms: C_22  and  C_32
REMARK    7  A    between atoms: C_26  and  C_28
REMARK    8  A    between atoms: C_33  and  C_34
REMARK                            x       y       z     vdW  Elec       q    Type
REMARK                         _______ _______ _______ _____ _____    ______ ____
ROOT
ATOM      1  C   UNL A   1     -25.441   0.341  30.078  0.00  0.00    +0.039 C 
ATOM      2  C   UNL A   1     -25.509   0.938  28.821  0.00  0.00    +0.077 C 
ATOM      3  C   UNL A   1     -24.257   0.367  30.843  0.00  0.00    +0.006 C 
ATOM      4  N   UNL A   1     -24.876   0.599  27.877  0.00  0.00    -0.261 NA
ATOM      5  C   UNL A   1     -23.661  -0.207  27.983  0.00  0.00    +0.084 C 
ATOM      6  C   UNL A   1     -22.620   0.175  28.774  0.00  0.00    +0.119 C 
ATOM      7  C   UNL A   1     -23.060   0.793  30.364  0.00  0.00    +0.013 C 
ENDROOT
BRANCH   1  11
ATOM      8  C   UNL A   1     -27.946  -3.800  30.365  0.00  0.00    +0.000 A 
ATOM      9  C   UNL A   1     -27.741  -2.638  30.632  0.00  0.00    -0.000 A 
ATOM     10  C   UNL A   1     -26.776  -1.878  30.201  0.00  0.00    -0.004 A 
ATOM     11  C   UNL A   1     -26.561  -0.451  30.548  0.00  0.00    -0.014 A 
ATOM     12  C   UNL A   1     -27.535   0.146  31.398  0.00  0.00    +0.086 A 
ATOM     13  C   UNL A   1     -28.608  -0.658  31.795  0.00  0.00    +0.007 A 
ATOM     14  C   UNL A   1     -28.747  -1.958  31.433  0.00  0.00    +0.000 A 
ATOM     15  C   UNL A   1     -26.831  -4.536  29.969  0.00  0.00    +0.007 A 
ATOM     16  C   UNL A   1     -25.685  -3.879  29.525  0.00  0.00    +0.080 A 
ATOM     17  C   UNL A   1     -25.586  -2.524  29.751  0.00  0.00    +0.006 A 
BRANCH  12  18
ATOM     18  C   UNL A   1     -27.577   1.555  31.713  0.00  0.00    +0.410 C 
ATOM     19  N   UNL A   1     -27.101   2.181  32.582  0.00  0.00    -0.053 NA
ATOM     20  N   UNL A   1     -28.259   2.401  30.757  0.00  0.00    +0.216 NA
ATOM     21  C   UNL A   1     -26.454   1.378  33.585  0.00  0.00    +0.321 C 
ENDBRANCH  12  18
BRANCH  16  22
ATOM     22  C   UNL A   1     -24.585  -4.641  28.873  0.00  0.00    +0.388 C 
ATOM     23  O   UNL A   1     -23.559  -4.195  28.678  0.00  0.00    -0.241 OA
ATOM     24  O   UNL A   1     -24.861  -5.932  28.867  0.00  0.00    -0.241 OA
ENDBRANCH  16  22
ENDBRANCH   1  11
BRANCH   6  25
ATOM     25  C   UNL A   1     -21.267  -0.069  28.651  0.00  0.00    +0.366 C 
ATOM     26  O   UNL A   1     -20.917  -1.125  28.924  0.00  0.00    -0.246 OA
ATOM     27  O   UNL A   1     -20.532   0.743  28.077  0.00  0.00    -0.246 OA
ENDBRANCH   6  25
BRANCH   4  28
ATOM     28  C   UNL A   1     -25.049   1.025  26.651  0.00  0.00    +0.185 C 
BRANCH  28  29
ATOM     29  C   UNL A   1     -24.746   2.096  26.102  0.00  0.00    +0.383 C 
ATOM     30  O   UNL A   1     -25.692   2.917  26.051  0.00  0.00    -0.244 OA
ATOM     31  O   UNL A   1     -23.546   2.517  25.857  0.00  0.00    -0.244 OA
ENDBRANCH  28  29
BRANCH  28  32
ATOM     32  C   UNL A   1     -26.609   0.786  26.184  0.00  0.00    +0.001 C 
ATOM     33  C   UNL A   1     -26.872   0.189  25.004  0.00  0.00    -0.003 C 
BRANCH  33  34
ATOM     34  C   UNL A   1     -28.222  -0.015  24.686  0.00  0.00    -0.000 C 
ATOM     35  C   UNL A   1     -28.532  -0.312  23.756  0.00  0.00    -0.000 C 
ENDBRANCH  33  34
ENDBRANCH  28  32
ENDBRANCH   4  28
TORSDOF 8
ENDMDL
ENDMDL
