MODEL 439
MODEL 1
REMARK VINA RESULT:    -6.211      0.000      0.000
REMARK INTER + INTRA:          -7.428
REMARK INTER:                  -6.937
REMARK INTRA:                  -0.490
REMARK UNBOUND:                -0.490
REMARK  Name = No_439-gen_results/8p0m/2024-11-27-11-27-31/
REMARK  2 active torsions:
REMARK  status: ('A' for Active; 'I' for Inactive)
REMARK    1  A    between atoms: C_3  and  C_7
REMARK    2  A    between atoms: C_8  and  C_9
REMARK                            x       y       z     vdW  Elec       q    Type
REMARK                         _______ _______ _______ _____ _____    ______ ____
ROOT
ATOM      1  C   UNL A   1     -25.164  -1.979  29.545  0.00  0.00    -0.001 A 
ATOM      2  C   UNL A   1     -25.161  -3.249  29.253  0.00  0.00    -0.003 A 
ATOM      3  C   UNL A   1     -26.362  -4.054  29.727  0.00  0.00    +0.095 A 
ATOM      4  N   UNL A   1     -27.479  -3.408  30.044  0.00  0.00    -0.243 NA
ATOM      5  C   UNL A   1     -26.368  -1.393  30.101  0.00  0.00    +0.020 A 
ATOM      6  C   UNL A   1     -27.512  -2.243  30.458  0.00  0.00    +0.099 A 
ENDROOT
BRANCH   1   9
ATOM      7  C   UNL A   1     -21.997  -0.127  29.128  0.00  0.00    +0.042 A 
ATOM      8  C   UNL A   1     -22.817  -0.890  29.582  0.00  0.00    +0.003 A 
ATOM      9  C   UNL A   1     -24.095  -1.056  29.048  0.00  0.00    -0.000 A 
ATOM     10  C   UNL A   1     -24.502  -0.236  27.924  0.00  0.00    +0.003 A 
ATOM     11  C   UNL A   1     -23.532   0.644  27.445  0.00  0.00    +0.042 A 
ATOM     12  C   UNL A   1     -22.349   0.744  28.018  0.00  0.00    +0.196 A 
ATOM     13  O   UNL A   1     -21.453   1.657  27.542  0.00  0.00    -0.287 OA
ENDBRANCH   1   9
BRANCH   2  14
ATOM     14  C   UNL A   1     -24.169  -3.952  28.575  0.00  0.00    +0.028 C 
ATOM     15  C   UNL A   1     -24.190  -5.301  28.590  0.00  0.00    +0.005 C 
ENDBRANCH   2  14
TORSDOF 2
ENDMDL
ENDMDL
