MODEL 43
MODEL 1
REMARK VINA RESULT:    -6.839      0.000      0.000
REMARK INTER + INTRA:         -11.899
REMARK INTER:                  -9.238
REMARK INTRA:                  -2.661
REMARK UNBOUND:                -2.661
REMARK  Name = No_43-gen_results/8p0m/2024-11-27-11-27-31/
REMARK  6 active torsions:
REMARK  status: ('A' for Active; 'I' for Inactive)
REMARK    1  A    between atoms: C_2  and  P_12
REMARK    2  A    between atoms: C_4  and  C_19
REMARK    3  A    between atoms: P_12  and  O_13
REMARK    4  A    between atoms: C_19  and  C_20
REMARK    5  A    between atoms: C_20  and  O_22
REMARK    6  A    between atoms: O_22  and  C_23
REMARK                            x       y       z     vdW  Elec       q    Type
REMARK                         _______ _______ _______ _____ _____    ______ ____
ROOT
ATOM      1  C   UNL A   1     -25.145  -0.804  28.399  0.00  0.00    -0.015 C 
ATOM      2  C   UNL A   1     -25.733  -1.667  28.543  0.00  0.00    +0.086 C 
ATOM      3  C   UNL A   1     -23.841  -0.819  28.998  0.00  0.00    +0.027 C 
ATOM      4  C   UNL A   1     -22.854   0.237  28.694  0.00  0.00    +0.011 C 
ATOM      5  C   UNL A   1     -22.898   0.874  27.440  0.00  0.00    +0.023 C 
ATOM      6  C   UNL A   1     -23.992   0.625  26.586  0.00  0.00    -0.023 A 
ATOM      7  C   UNL A   1     -23.956   1.035  25.211  0.00  0.00    -0.004 A 
ATOM      8  C   UNL A   1     -25.009  -0.313  27.037  0.00  0.00    -0.008 A 
ATOM      9  C   UNL A   1     -25.029   0.667  24.364  0.00  0.00    -0.000 A 
ATOM     10  C   UNL A   1     -26.054  -0.511  26.044  0.00  0.00    -0.001 A 
ATOM     11  C   UNL A   1     -26.072  -0.098  24.765  0.00  0.00    -0.000 A 
ATOM     12  C   UNL A   1     -21.418  -0.131  28.961  0.00  0.00    +0.001 C 
ATOM     13  C   UNL A   1     -22.129   2.014  27.266  0.00  0.00    +0.005 C 
ENDROOT
BRANCH   2  14
ATOM     14  P   UNL A   1     -25.832  -2.770  29.646  0.00  0.00    +0.407 P 
ATOM     15  O   UNL A   1     -27.249  -3.350  29.800  0.00  0.00    -0.249 OA
ATOM     16  O   UNL A   1     -25.535  -2.217  31.137  0.00  0.00    -0.135 OA
BRANCH  14  17
ATOM     17  O   UNL A   1     -24.839  -3.790  29.715  0.00  0.00    -0.191 OA
ATOM     18 CL   UNL A   1     -25.061  -5.271  29.289  0.00  0.00    +0.070 Cl
ENDBRANCH  14  17
ENDBRANCH   2  14
BRANCH   4  19
ATOM     19  C   UNL A   1     -23.087   1.385  29.808  0.00  0.00    +0.044 C 
BRANCH  19  20
ATOM     20  C   UNL A   1     -24.395   1.546  30.274  0.00  0.00    +0.166 C 
ATOM     21  C   UNL A   1     -24.454   1.558  31.561  0.00  0.00    +0.047 C 
BRANCH  20  22
ATOM     22  O   UNL A   1     -24.884   2.794  29.706  0.00  0.00    -0.479 OA
BRANCH  22  23
ATOM     23  C   UNL A   1     -25.600   2.831  28.640  0.00  0.00    +0.138 A 
ATOM     24  C   UNL A   1     -26.759   2.393  28.690  0.00  0.00    +0.037 A 
ATOM     25  C   UNL A   1     -27.694   2.656  27.611  0.00  0.00    +0.003 A 
ATOM     26  C   UNL A   1     -27.127   3.302  26.585  0.00  0.00    +0.000 A 
ATOM     27  C   UNL A   1     -25.864   3.804  26.514  0.00  0.00    +0.003 A 
ATOM     28  C   UNL A   1     -25.221   3.974  27.787  0.00  0.00    +0.037 A 
ENDBRANCH  22  23
ENDBRANCH  20  22
ENDBRANCH  19  20
ENDBRANCH   4  19
TORSDOF 6
ENDMDL
ENDMDL
