REMARK  Name = No_44-gen_results/8p0m/2024-11-27-11-27-31/
REMARK  3 active torsions:
REMARK  status: ('A' for Active; 'I' for Inactive)
REMARK    1  A    between atoms: C_2  and  C_14
REMARK    2  A    between atoms: C_4  and  C_7
REMARK    3  A    between atoms: C_21  and  C_22
REMARK                            x       y       z     vdW  Elec       q    Type
REMARK                         _______ _______ _______ _____ _____    ______ ____
ROOT
ATOM      1  C   UNL A   1     -28.016  -0.814  28.878  0.00  0.00    +0.005 A 
ATOM      2  C   UNL A   1     -28.469  -0.785  29.829  0.00  0.00    +0.054 A 
ATOM      3  C   UNL A   1     -26.504  -0.778  28.877  0.00  0.00    +0.002 A 
ATOM      4  C   UNL A   1     -25.810  -0.853  30.103  0.00  0.00    +0.018 A 
ATOM      5  C   UNL A   1     -27.991  -0.892  31.226  0.00  0.00    +0.005 A 
ATOM      6  C   UNL A   1     -26.604  -0.868  31.265  0.00  0.00    +0.002 A 
ENDROOT
BRANCH   2   7
ATOM      7  C   UNL A   1     -30.093  -0.800  29.845  0.00  0.00    +0.249 C 
ATOM      8  O   UNL A   1     -30.497  -0.339  28.882  0.00  0.00    -0.270 OA
ATOM      9  N   UNL A   1     -30.807  -1.296  30.868  0.00  0.00    -0.268 N 
ATOM     10  C   UNL A   1     -32.249  -1.286  30.791  0.00  0.00    +0.094 C 
ATOM     11  C   UNL A   1     -32.810  -2.078  31.523  0.00  0.00    +0.022 C 
ATOM     12  C   UNL A   1     -32.178  -2.789  32.606  0.00  0.00    +0.004 C 
ATOM     13  C   UNL A   1     -30.770  -2.814  32.660  0.00  0.00    +0.032 C 
ATOM     14  C   UNL A   1     -30.105  -2.180  31.756  0.00  0.00    +0.179 C 
BRANCH  14  15
ATOM     15  C   UNL A   1     -28.672  -1.977  31.977  0.00  0.00    +0.383 C 
ATOM     16  O   UNL A   1     -28.136  -2.476  32.974  0.00  0.00    -0.244 OA
ATOM     17  O   UNL A   1     -28.077  -2.718  31.509  0.00  0.00    -0.244 OA
ENDBRANCH  14  15
ENDBRANCH   2   7
BRANCH   4  18
ATOM     18  C   UNL A   1     -24.389  -0.805  30.164  0.00  0.00    +0.083 A 
ATOM     19  N   UNL A   1     -23.769  -1.134  31.045  0.00  0.00    -0.244 NA
ATOM     20  C   UNL A   1     -23.616  -0.341  28.998  0.00  0.00    +0.037 A 
ATOM     21  C   UNL A   1     -22.217  -0.327  29.288  0.00  0.00    +0.092 A 
ATOM     22  C   UNL A   1     -22.462  -0.859  31.222  0.00  0.00    +0.100 A 
ATOM     23  N   UNL A   1     -21.398   0.137  28.128  0.00  0.00    -0.128 NA
ATOM     24  C   UNL A   1     -21.617  -0.545  30.414  0.00  0.00    +0.039 A 
ENDBRANCH   4  18
TORSDOF 3
