MODEL 4401
MODEL 1
REMARK VINA RESULT:    -4.991      0.000      0.000
REMARK INTER + INTRA:          -5.634
REMARK INTER:                  -5.574
REMARK INTRA:                  -0.060
REMARK UNBOUND:                -0.060
REMARK  Name = No_4401-gen_results/8p0m/2024-11-27-11-27-31/
REMARK  2 active torsions:
REMARK  status: ('A' for Active; 'I' for Inactive)
REMARK    1  A    between atoms: N_1  and  C_8
REMARK    2  A    between atoms: C_5  and  C_11
REMARK                            x       y       z     vdW  Elec       q    Type
REMARK                         _______ _______ _______ _____ _____    ______ ____
ROOT
ATOM      1  N   UNL A   1     -28.627 -12.717  33.244  0.00  0.00    -0.148 NA
ATOM      2  C   UNL A   1     -28.860 -12.518  32.050  0.00  0.00    +0.032 C 
ATOM      3  C   UNL A   1     -29.525 -13.348  31.223  0.00  0.00    +0.039 C 
ATOM      4  C   UNL A   1     -29.807 -13.145  29.802  0.00  0.00    +0.013 C 
ATOM      5  C   UNL A   1     -29.377 -11.915  29.258  0.00  0.00    +0.066 C 
ATOM      6  C   UNL A   1     -29.092 -11.155  29.864  0.00  0.00    +0.013 C 
ATOM      7  C   UNL A   1     -28.726 -11.318  31.276  0.00  0.00    +0.039 C 
ENDROOT
BRANCH   1   8
ATOM      8  C   UNL A   1     -27.356 -12.352  33.583  0.00  0.00    +0.467 C 
ATOM      9  O   UNL A   1     -26.472 -12.658  33.220  0.00  0.00    -0.220 OA
ATOM     10  O   UNL A   1     -27.415 -11.293  34.612  0.00  0.00    -0.220 OA
ENDBRANCH   1   8
BRANCH   5  11
ATOM     11  C   UNL A   1     -29.469 -11.781  27.827  0.00  0.00    +0.207 C 
ATOM     12  O   UNL A   1     -28.677 -12.468  27.038  0.00  0.00    -0.288 OA
ENDBRANCH   5  11
TORSDOF 2
ENDMDL
ENDMDL
