MODEL 4402
MODEL 1
REMARK VINA RESULT:    -6.934      0.000      0.000
REMARK INTER + INTRA:          -9.721
REMARK INTER:                  -8.961
REMARK INTRA:                  -0.759
REMARK UNBOUND:                -0.759
REMARK  Name = No_4402-gen_results/8p0m/2024-11-27-11-27-31/
REMARK  5 active torsions:
REMARK  status: ('A' for Active; 'I' for Inactive)
REMARK    1  A    between atoms: C_3  and  C_8
REMARK    2  A    between atoms: C_6  and  O_7
REMARK    3  A    between atoms: O_7  and  C_14
REMARK    4  A    between atoms: C_14  and  C_15
REMARK    5  A    between atoms: N_17  and  C_18
REMARK                            x       y       z     vdW  Elec       q    Type
REMARK                         _______ _______ _______ _____ _____    ______ ____
ROOT
ATOM      1  C   UNL A   1      -6.729  -1.894  34.462  0.00  0.00    +0.037 A 
ATOM      2  C   UNL A   1      -5.562  -2.194  34.364  0.00  0.00    +0.003 A 
ATOM      3  C   UNL A   1      -4.560  -1.244  34.527  0.00  0.00    +0.000 A 
ATOM      4  C   UNL A   1      -4.882   0.138  34.772  0.00  0.00    +0.003 A 
ATOM      5  C   UNL A   1      -6.256   0.402  34.847  0.00  0.00    +0.037 A 
ATOM      6  C   UNL A   1      -7.164  -0.530  34.669  0.00  0.00    +0.139 A 
ENDROOT
BRANCH   3   7
ATOM      7  C   UNL A   1      -3.074  -1.496  34.440  0.00  0.00    +0.000 A 
ATOM      8  C   UNL A   1      -2.534  -1.924  33.312  0.00  0.00    +0.000 A 
ATOM      9  C   UNL A   1      -1.126  -2.235  33.257  0.00  0.00    +0.000 A 
ATOM     10  C   UNL A   1      -0.320  -2.206  34.410  0.00  0.00    +0.000 A 
ATOM     11  C   UNL A   1      -2.264  -1.493  35.617  0.00  0.00    +0.000 A 
ATOM     12  C   UNL A   1      -0.870  -1.822  35.553  0.00  0.00    +0.000 A 
ENDBRANCH   3   7
BRANCH   6  13
ATOM     13  O   UNL A   1      -8.479  -0.182  34.720  0.00  0.00    -0.466 OA
BRANCH  13  14
ATOM     14  C   UNL A   1      -8.917   0.800  35.530  0.00  0.00    +0.291 C 
BRANCH  14  15
ATOM     15  C   UNL A   1      -9.883   0.404  36.307  0.00  0.00    +0.290 C 
ATOM     16  O   UNL A   1     -10.934   0.921  36.323  0.00  0.00    -0.269 OA
ATOM     17  N   UNL A   1      -9.843  -0.844  36.887  0.00  0.00    -0.176 NA
BRANCH  17  18
ATOM     18  C   UNL A   1     -10.816  -1.380  37.789  0.00  0.00    +0.073 A 
ATOM     19  C   UNL A   1     -11.386  -2.247  37.792  0.00  0.00    +0.017 A 
ATOM     20  C   UNL A   1     -12.378  -2.705  38.760  0.00  0.00    +0.001 A 
ATOM     21  C   UNL A   1     -10.289  -1.017  39.181  0.00  0.00    +0.017 A 
ATOM     22  C   UNL A   1     -11.181  -1.375  40.241  0.00  0.00    +0.001 A 
ATOM     23  C   UNL A   1     -12.127  -2.287  40.032  0.00  0.00    +0.000 A 
ENDBRANCH  17  18
ENDBRANCH  14  15
ENDBRANCH  13  14
ENDBRANCH   6  13
TORSDOF 5
ENDMDL
ENDMDL
