MODEL 4403
MODEL 1
REMARK VINA RESULT:    -4.075      0.000      0.000
REMARK INTER + INTRA:          -4.402
REMARK INTER:                  -4.313
REMARK INTRA:                  -0.089
REMARK UNBOUND:                -0.089
REMARK  Name = No_4403-gen_results/8p0m/2024-11-27-11-27-31/
REMARK  1 active torsions:
REMARK  status: ('A' for Active; 'I' for Inactive)
REMARK    1  A    between atoms: C_2  and  C_3
REMARK                            x       y       z     vdW  Elec       q    Type
REMARK                         _______ _______ _______ _____ _____    ______ ____
ROOT
ATOM      1  O   UNL A   1      -7.318 -10.392  20.502  0.00  0.00    -0.254 OA
ATOM      2  C   UNL A   1      -7.948  -9.593  19.961  0.00  0.00    +0.333 C 
ATOM      3  F   UNL A   1      -7.066  -8.474  19.930  0.00  0.00    -0.159 F 
ENDROOT
BRANCH   2   4
ATOM      4  C   UNL A   1      -8.979  -9.341  19.733  0.00  0.00    +0.069 C 
ATOM      5  C   UNL A   1      -9.916  -9.714  18.632  0.00  0.00    -0.020 C 
ATOM      6  C   UNL A   1      -9.065 -10.192  17.498  0.00  0.00    +0.031 C 
ENDBRANCH   2   4
TORSDOF 1
ENDMDL
ENDMDL
