REMARK  Name = No_4404-gen_results/8p0m/2024-11-27-11-27-31/
REMARK  6 active torsions:
REMARK  status: ('A' for Active; 'I' for Inactive)
REMARK    1  A    between atoms: C_2  and  C_7
REMARK    2  A    between atoms: C_3  and  C_11
REMARK    3  A    between atoms: C_4  and  C_19
REMARK    4  A    between atoms: C_11  and  C_12
REMARK    5  A    between atoms: C_17  and  C_24
REMARK    6  A    between atoms: C_19  and  N_20
REMARK                            x       y       z     vdW  Elec       q    Type
REMARK                         _______ _______ _______ _____ _____    ______ ____
ROOT
ATOM      1  C   UNL A   1     -28.016  -0.814  28.878  0.00  0.00    -0.002 A 
ATOM      2  C   UNL A   1     -28.469  -0.785  29.829  0.00  0.00    +0.053 A 
ATOM      3  C   UNL A   1     -26.504  -0.778  28.877  0.00  0.00    -0.020 A 
ATOM      4  C   UNL A   1     -25.810  -0.853  30.103  0.00  0.00    -0.001 A 
ATOM      5  C   UNL A   1     -27.991  -0.892  31.226  0.00  0.00    +0.002 A 
ATOM      6  C   UNL A   1     -26.604  -0.868  31.265  0.00  0.00    -0.003 A 
ENDROOT
BRANCH   2   7
ATOM      7  C   UNL A   1     -30.074  -0.836  29.861  0.00  0.00    +0.350 C 
ATOM      8 CL   UNL A   1     -30.813  -0.018  28.867  0.00  0.00    -0.042 Cl
ATOM      9  F   UNL A   1     -30.521  -0.670  31.137  0.00  0.00    -0.182 F 
ATOM     10  F   UNL A   1     -30.343  -2.199  29.662  0.00  0.00    -0.182 F 
ENDBRANCH   2   7
BRANCH   4  11
ATOM     11  C   UNL A   1     -24.417  -0.818  30.209  0.00  0.00    +0.138 C 
ATOM     12 BR   UNL A   1     -23.503  -2.274  29.579  0.00  0.00    -0.059 Br
BRANCH  11  13
ATOM     13  N   UNL A   1     -23.916  -0.206  31.253  0.00  0.00    -0.259 NA
ATOM     14  C   UNL A   1     -24.107  -0.169  32.403  0.00  0.00    +0.090 C 
ATOM     15  C   UNL A   1     -23.030   0.924  30.651  0.00  0.00    +0.090 C 
ENDBRANCH  11  13
ENDBRANCH   4  11
BRANCH   3  16
ATOM     16  C   UNL A   1     -25.656  -0.706  27.669  0.00  0.00    +0.048 C 
BRANCH  16  17
ATOM     17  C   UNL A   1     -25.919   0.368  26.759  0.00  0.00    -0.035 C 
ATOM     18  C   UNL A   1     -24.951   0.790  25.968  0.00  0.00    -0.008 C 
ATOM     19  C   UNL A   1     -24.132   1.737  25.966  0.00  0.00    -0.001 C 
ATOM     20  C   UNL A   1     -24.213   2.865  26.531  0.00  0.00    -0.000 C 
ATOM     21  C   UNL A   1     -25.514   3.073  27.243  0.00  0.00    -0.004 C 
ATOM     22  C   UNL A   1     -26.439   2.346  27.736  0.00  0.00    -0.018 C 
ATOM     23  C   UNL A   1     -26.746   1.291  27.281  0.00  0.00    +0.049 C 
BRANCH  22  24
ATOM     24  C   UNL A   1     -27.453   3.160  28.577  0.00  0.00    -0.004 A 
ATOM     25  C   UNL A   1     -28.684   3.390  28.141  0.00  0.00    -0.000 A 
ATOM     26  C   UNL A   1     -29.651   3.829  29.020  0.00  0.00    -0.000 A 
ATOM     27  C   UNL A   1     -29.349   4.098  30.373  0.00  0.00    -0.000 A 
ATOM     28  C   UNL A   1     -27.091   3.358  29.987  0.00  0.00    -0.000 A 
ATOM     29  C   UNL A   1     -28.030   3.854  30.878  0.00  0.00    -0.000 A 
ENDBRANCH  22  24
ENDBRANCH  16  17
ENDBRANCH   3  16
TORSDOF 6
