MODEL 4404
MODEL 1
REMARK VINA RESULT:    -7.294      0.000      0.000
REMARK INTER + INTRA:         -12.510
REMARK INTER:                  -9.852
REMARK INTRA:                  -2.658
REMARK UNBOUND:                -2.658
REMARK  Name = No_4404-gen_results/8p0m/2024-11-27-11-27-31/
REMARK  6 active torsions:
REMARK  status: ('A' for Active; 'I' for Inactive)
REMARK    1  A    between atoms: C_2  and  C_7
REMARK    2  A    between atoms: C_3  and  C_11
REMARK    3  A    between atoms: C_4  and  C_19
REMARK    4  A    between atoms: C_11  and  C_12
REMARK    5  A    between atoms: C_17  and  C_24
REMARK    6  A    between atoms: C_19  and  N_20
REMARK                            x       y       z     vdW  Elec       q    Type
REMARK                         _______ _______ _______ _____ _____    ______ ____
ROOT
ATOM      1  C   UNL A   1     -23.242   0.720  27.773  0.00  0.00    -0.002 A 
ATOM      2  C   UNL A   1     -24.014   0.943  27.092  0.00  0.00    +0.053 A 
ATOM      3  C   UNL A   1     -23.479  -0.487  28.653  0.00  0.00    -0.020 A 
ATOM      4  C   UNL A   1     -24.608  -1.300  28.421  0.00  0.00    -0.001 A 
ATOM      5  C   UNL A   1     -25.246   0.259  26.637  0.00  0.00    +0.002 A 
ATOM      6  C   UNL A   1     -25.494  -0.860  27.419  0.00  0.00    -0.003 A 
ENDROOT
BRANCH   2   7
ATOM      7  C   UNL A   1     -23.784   2.212  26.135  0.00  0.00    +0.350 C 
ATOM      8 CL   UNL A   1     -22.647   2.163  25.182  0.00  0.00    -0.042 Cl
ATOM      9  F   UNL A   1     -23.828   3.361  26.865  0.00  0.00    -0.182 F 
ATOM     10  F   UNL A   1     -24.998   2.296  25.436  0.00  0.00    -0.182 F 
ENDBRANCH   2   7
BRANCH   4  11
ATOM     11  C   UNL A   1     -24.921  -2.429  29.183  0.00  0.00    +0.138 C 
ATOM     12 BR   UNL A   1     -24.177  -4.016  28.652  0.00  0.00    -0.059 Br
BRANCH  11  13
ATOM     13  N   UNL A   1     -26.120  -2.479  29.707  0.00  0.00    -0.259 NA
ATOM     14  C   UNL A   1     -26.840  -1.761  30.279  0.00  0.00    +0.090 C 
ATOM     15  C   UNL A   1     -26.461  -3.998  29.751  0.00  0.00    +0.090 C 
ENDBRANCH  11  13
ENDBRANCH   4  11
BRANCH   3  16
ATOM     16  C   UNL A   1     -22.589  -0.931  29.745  0.00  0.00    +0.048 C 
BRANCH  16  17
ATOM     17  C   UNL A   1     -22.680  -0.216  30.983  0.00  0.00    -0.035 C 
ATOM     18  C   UNL A   1     -22.653  -0.890  32.117  0.00  0.00    -0.008 C 
ATOM     19  C   UNL A   1     -23.497  -1.304  32.943  0.00  0.00    -0.001 C 
ATOM     20  C   UNL A   1     -24.659  -0.868  33.186  0.00  0.00    -0.000 C 
ATOM     21  C   UNL A   1     -25.007   0.351  32.389  0.00  0.00    -0.004 C 
ATOM     22  C   UNL A   1     -24.627   0.900  31.303  0.00  0.00    -0.018 C 
ATOM     23  C   UNL A   1     -23.508   0.841  30.904  0.00  0.00    +0.049 C 
BRANCH  22  24
ATOM     24  C   UNL A   1     -25.552   2.062  30.866  0.00  0.00    -0.004 A 
ATOM     25  C   UNL A   1     -25.385   2.679  29.705  0.00  0.00    -0.000 A 
ATOM     26  C   UNL A   1     -26.390   3.476  29.201  0.00  0.00    -0.000 A 
ATOM     27  C   UNL A   1     -27.583   3.702  29.923  0.00  0.00    -0.000 A 
ATOM     28  C   UNL A   1     -26.796   2.204  31.636  0.00  0.00    -0.000 A 
ATOM     29  C   UNL A   1     -27.798   3.046  31.179  0.00  0.00    -0.000 A 
ENDBRANCH  22  24
ENDBRANCH  16  17
ENDBRANCH   3  16
TORSDOF 6
ENDMDL
ENDMDL
