MODEL 4405
MODEL 1
REMARK VINA RESULT:    -6.798      0.000      0.000
REMARK INTER + INTRA:          -8.036
REMARK INTER:                  -7.593
REMARK INTRA:                  -0.443
REMARK UNBOUND:                -0.443
REMARK  Name = No_4405-gen_results/8p0m/2024-11-27-11-27-31/
REMARK  2 active torsions:
REMARK  status: ('A' for Active; 'I' for Inactive)
REMARK    1  A    between atoms: C_1  and  C_2
REMARK    2  A    between atoms: C_6  and  C_7
REMARK                            x       y       z     vdW  Elec       q    Type
REMARK                         _______ _______ _______ _____ _____    ______ ____
ROOT
ATOM      1  C   UNL A   1     -23.959  -1.598  28.592  0.00  0.00    +0.023 C 
ATOM      2  C   UNL A   1     -22.712  -1.430  29.168  0.00  0.00    +0.004 C 
ATOM      3  C   UNL A   1     -21.889  -0.247  29.094  0.00  0.00    +0.001 C 
ATOM      4  C   UNL A   1     -22.370   0.867  28.365  0.00  0.00    +0.006 C 
ATOM      5  C   UNL A   1     -23.642   0.759  27.746  0.00  0.00    +0.044 C 
ATOM      6  C   UNL A   1     -24.398  -0.375  27.908  0.00  0.00    +0.010 C 
ENDROOT
BRANCH   1   7
ATOM      7  C   UNL A   1     -24.662  -2.574  28.724  0.00  0.00    -0.022 A 
ATOM      8  C   UNL A   1     -24.018  -3.943  28.707  0.00  0.00    -0.004 A 
ATOM      9  C   UNL A   1     -24.762  -5.078  28.994  0.00  0.00    -0.000 A 
ATOM     10  C   UNL A   1     -25.985  -4.931  29.546  0.00  0.00    -0.000 A 
ATOM     11  C   UNL A   1     -26.483  -3.725  29.856  0.00  0.00    -0.000 A 
ATOM     12  C   UNL A   1     -25.821  -2.594  29.529  0.00  0.00    -0.004 A 
ENDBRANCH   1   7
BRANCH   5  13
ATOM     13  C   UNL A   1     -24.160   1.922  27.062  0.00  0.00    +0.095 C 
ATOM     14  N   UNL A   1     -23.968   3.118  27.537  0.00  0.00    -0.151 NA
ENDBRANCH   5  13
TORSDOF 2
ENDMDL
ENDMDL
