REMARK  Name = outputs/IAG933/test6/raw/output_4405_IAG933_linker_design_.xyz
REMARK  12 active torsions:
REMARK  status: ('A' for Active; 'I' for Inactive)
REMARK    1  A    between atoms: C_1  and  C_2
REMARK    2  A    between atoms: C_1  and  C_8
REMARK    3  A    between atoms: C_1  and  N_41
REMARK    4  A    between atoms: C_13  and  C_44
REMARK    5  A    between atoms: C_14  and  C_15
REMARK    6  A    between atoms: C_21  and  O_22
REMARK    7  A    between atoms: O_22  and  C_23
REMARK    8  A    between atoms: C_23  and  C_24
REMARK    9  A    between atoms: C_28  and  N_41
REMARK   10  A    between atoms: C_29  and  N_40
REMARK   11  A    between atoms: C_29  and  C_43
REMARK   12  A    between atoms: O_34  and  C_43
REMARK                            x       y       z     vdW  Elec       q    Type
REMARK                         _______ _______ _______ _____ _____    ______ ____
ROOT
ATOM      1  C   UNL A   1     -24.160   0.719  28.351  0.00  0.00    +0.100 C 
ATOM      2  C   UNL A   1     -23.506   1.624  25.957  0.00  0.00    +0.289 C 
ATOM      3  O   UNL A   1     -22.431  -0.090  29.961  0.00  0.00    -0.285 OA
ATOM      4  O   UNL A   1     -22.330   2.251  26.065  0.00  0.00    -0.426 OA
ATOM      5  F   UNL A   1     -23.781   1.274  24.661  0.00  0.00    -0.163 F 
ATOM      6  C   UNL A   1     -22.757   0.636  28.843  0.00  0.00    +0.213 C 
ATOM      7  C   UNL A   1     -21.582   1.255  28.254  0.00  0.00    +0.084 C 
ATOM      8  C   UNL A   1     -21.502   2.090  27.098  0.00  0.00    +0.185 C 
ATOM      9  C   UNL A   1     -24.409   1.299  27.019  0.00  0.00    +0.083 C 
ENDROOT
BRANCH   9  10
ATOM     10  C   UNL A   1     -25.688   1.614  26.461  0.00  0.00    +0.045 C 
ATOM     11  C   UNL A   1     -26.250   2.920  26.395  0.00  0.00    +0.077 C 
ATOM     12  C   UNL A   1     -27.438   3.091  25.645  0.00  0.00    +0.107 C 
ATOM     13  N   UNL A   1     -28.075   2.089  25.003  0.00  0.00    -0.208 NA
ATOM     14  C   UNL A   1     -27.543   0.849  25.079  0.00  0.00    +0.253 C 
ATOM     15  C   UNL A   1     -26.354   0.576  25.777  0.00  0.00    +0.193 C 
ATOM     16  F   UNL A   1     -25.860  -0.681  25.795  0.00  0.00    -0.199 F 
BRANCH  11  17
ATOM     17  C   UNL A   1     -25.642   4.093  27.123  0.00  0.00    +0.266 C 
ATOM     18  N   UNL A   1     -25.614   5.252  26.449  0.00  0.00    -0.200 NA
ATOM     19  C   UNL A   1     -25.026   6.479  26.963  0.00  0.00    +0.139 C 
ATOM     20  O   UNL A   1     -25.143   3.966  28.243  0.00  0.00    -0.268 OA
ENDBRANCH  11  17
BRANCH  14  21
ATOM     21  O   UNL A   1     -28.193  -0.208  24.477  0.00  0.00    -0.456 OA
BRANCH  21  22
ATOM     22  C   UNL A   1     -29.460   0.005  23.866  0.00  0.00    +0.243 C 
BRANCH  22  23
ATOM     23  C   UNL A   1     -30.065  -1.377  23.573  0.00  0.00    +0.229 C 
ATOM     24  O   UNL A   1     -30.729  -1.878  24.721  0.00  0.00    -0.216 OA
ENDBRANCH  22  23
ENDBRANCH  21  22
ENDBRANCH  14  21
ENDBRANCH   9  10
BRANCH   1  28
ATOM     25  O   UNL A   1     -27.065  -0.482  28.474  0.00  0.00    -0.250 OA
ATOM     26  C   UNL A   1     -26.449   0.438  28.959  0.00  0.00    +0.327 C 
ATOM     27  N   UNL A   1     -26.983   1.673  29.248  0.00  0.00    -0.185 NA
ATOM     28  N   UNL A   1     -25.175   0.129  29.186  0.00  0.00    -0.235 N 
BRANCH  28  29
ATOM     29  C   UNL A   1     -24.855  -1.012  30.143  0.00  0.00    +0.120 C 
BRANCH  29  30
ATOM     30  C   UNL A   1     -24.973  -2.505  29.788  0.00  0.00    -0.003 C 
ATOM     31  C   UNL A   1     -23.906  -3.173  29.146  0.00  0.00    -0.003 C 
ATOM     32  C   UNL A   1     -23.989  -4.549  28.853  0.00  0.00    -0.000 C 
ATOM     33  C   UNL A   1     -25.137  -5.280  29.205  0.00  0.00    -0.000 C 
ATOM     34  C   UNL A   1     -26.232  -4.611  29.784  0.00  0.00    -0.000 C 
ATOM     35  C   UNL A   1     -26.155  -3.232  30.065  0.00  0.00    -0.003 C 
ENDBRANCH  29  30
BRANCH  29  36
ATOM     36  C   UNL A   1     -25.387  -0.679  31.571  0.00  0.00    +0.096 C 
ATOM     37  C   UNL A   1     -25.189   0.773  32.028  0.00  0.00    +0.021 C 
ATOM     38  C   UNL A   1     -25.336   0.684  33.544  0.00  0.00    +0.020 C 
ATOM     39  C   UNL A   1     -24.829  -0.715  33.905  0.00  0.00    +0.089 C 
ATOM     40  N   UNL A   1     -24.758  -1.481  32.646  0.00  0.00    -0.217 NA
ENDBRANCH  29  36
ENDBRANCH  28  29
BRANCH  27  41
ATOM     41  C   UNL A   1     -28.430   1.857  29.609  0.00  0.00    +0.149 C 
BRANCH  41  42
ATOM     42  C   UNL A   1     -28.598   2.784  30.854  0.00  0.00    +0.166 C 
BRANCH  42  43
ATOM     43  O   UNL A   1     -27.301   3.277  31.212  0.00  0.00    -0.349 OA
ATOM     44  C   UNL A   1     -27.201   4.709  31.031  0.00  0.00    +0.174 C 
ENDBRANCH  42  43
ENDBRANCH  41  42
ENDBRANCH  27  41
ENDBRANCH   1  28
TORSDOF 12
