REMARK  Name = outputs/IAG933/test6/raw/output_4406_IAG933_linker_design_.xyz
REMARK  14 active torsions:
REMARK  status: ('A' for Active; 'I' for Inactive)
REMARK    1  A    between atoms: C_1  and  C_2
REMARK    2  A    between atoms: C_1  and  C_8
REMARK    3  A    between atoms: C_1  and  C_38
REMARK    4  A    between atoms: C_13  and  C_28
REMARK    5  A    between atoms: C_14  and  C_15
REMARK    6  A    between atoms: C_21  and  O_22
REMARK    7  A    between atoms: O_22  and  C_23
REMARK    8  A    between atoms: C_23  and  C_24
REMARK    9  A    between atoms: C_31  and  C_38
REMARK   10  A    between atoms: C_34  and  N_37
REMARK   11  A    between atoms: C_34  and  C_41
REMARK   12  A    between atoms: C_35  and  C_40
REMARK   13  A    between atoms: C_35  and  C_41
REMARK   14  A    between atoms: C_40  and  O_42
REMARK                            x       y       z     vdW  Elec       q    Type
REMARK                         _______ _______ _______ _____ _____    ______ ____
ROOT
ATOM      1  C   UNL A   1     -24.366   1.339  27.141  0.00  0.00    +0.024 C 
ATOM      2  N   UNL A   1     -22.861   0.551  28.891  0.00  0.00    -0.179 NA
ATOM      3  C   UNL A   1     -22.975   1.602  26.691  0.00  0.00    +0.170 C 
ATOM      4  C   UNL A   1     -24.224   0.637  28.378  0.00  0.00    +0.089 C 
ATOM      5 CL   UNL A   1     -22.540   2.063  25.092  0.00  0.00    -0.096 Cl
ATOM      6  S   UNL A   1     -21.746   1.367  27.912  0.00  0.00    -0.007 S 
ENDROOT
BRANCH   1   7
ATOM      7  C   UNL A   1     -25.688   1.614  26.461  0.00  0.00    +0.037 C 
ATOM      8  C   UNL A   1     -26.250   2.920  26.395  0.00  0.00    +0.076 C 
ATOM      9  C   UNL A   1     -27.438   3.091  25.645  0.00  0.00    +0.107 C 
ATOM     10  N   UNL A   1     -28.075   2.089  25.003  0.00  0.00    -0.208 NA
ATOM     11  C   UNL A   1     -27.543   0.849  25.079  0.00  0.00    +0.253 C 
ATOM     12  C   UNL A   1     -26.354   0.576  25.777  0.00  0.00    +0.193 C 
ATOM     13  F   UNL A   1     -25.860  -0.681  25.795  0.00  0.00    -0.199 F 
BRANCH   8  14
ATOM     14  C   UNL A   1     -25.642   4.093  27.123  0.00  0.00    +0.266 C 
ATOM     15  N   UNL A   1     -25.614   5.252  26.449  0.00  0.00    -0.200 NA
ATOM     16  C   UNL A   1     -25.026   6.479  26.963  0.00  0.00    +0.139 C 
ATOM     17  O   UNL A   1     -25.143   3.966  28.243  0.00  0.00    -0.268 OA
ENDBRANCH   8  14
BRANCH  11  18
ATOM     18  O   UNL A   1     -28.193  -0.208  24.477  0.00  0.00    -0.456 OA
BRANCH  18  19
ATOM     19  C   UNL A   1     -29.460   0.005  23.866  0.00  0.00    +0.243 C 
BRANCH  19  20
ATOM     20  C   UNL A   1     -30.065  -1.377  23.573  0.00  0.00    +0.229 C 
ATOM     21  O   UNL A   1     -30.729  -1.878  24.721  0.00  0.00    -0.216 OA
ENDBRANCH  19  20
ENDBRANCH  18  19
ENDBRANCH  11  18
ENDBRANCH   1   7
BRANCH   4  23
ATOM     22  N   UNL A   1     -26.638   0.050  28.520  0.00  0.00    -0.270 NA
ATOM     23  C   UNL A   1     -25.315  -0.109  28.954  0.00  0.00    +0.074 C 
BRANCH  23  24
ATOM     24  C   UNL A   1     -24.855  -1.012  30.143  0.00  0.00    +0.079 C 
BRANCH  24  25
ATOM     25  C   UNL A   1     -24.973  -2.505  29.788  0.00  0.00    -0.015 C 
ATOM     26  C   UNL A   1     -23.906  -3.173  29.146  0.00  0.00    -0.004 C 
ATOM     27  C   UNL A   1     -23.989  -4.549  28.853  0.00  0.00    -0.000 C 
ATOM     28  C   UNL A   1     -25.137  -5.280  29.205  0.00  0.00    -0.000 C 
ATOM     29  C   UNL A   1     -26.232  -4.611  29.784  0.00  0.00    -0.000 C 
ATOM     30  C   UNL A   1     -26.155  -3.232  30.065  0.00  0.00    -0.004 C 
ENDBRANCH  24  25
BRANCH  24  31
ATOM     31  C   UNL A   1     -25.387  -0.679  31.571  0.00  0.00    +0.082 C 
ATOM     32  C   UNL A   1     -25.189   0.773  32.028  0.00  0.00    +0.020 C 
ATOM     33  C   UNL A   1     -25.336   0.684  33.544  0.00  0.00    +0.020 C 
ATOM     34  C   UNL A   1     -24.829  -0.715  33.905  0.00  0.00    +0.089 C 
ATOM     35  N   UNL A   1     -24.758  -1.481  32.646  0.00  0.00    -0.219 NA
ENDBRANCH  24  31
ENDBRANCH  23  24
BRANCH  22  36
ATOM     36  C   UNL A   1     -27.887  -0.828  29.249  0.00  0.00    +0.158 C 
BRANCH  36  38
ATOM     37  O   UNL A   1     -30.191  -0.983  28.029  0.00  0.00    -0.221 OA
ATOM     38  C   UNL A   1     -28.973  -0.296  28.372  0.00  0.00    +0.179 C 
BRANCH  38  39
ATOM     39  C   UNL A   1     -29.003   1.015  28.081  0.00  0.00    +0.067 C 
BRANCH  39  40
ATOM     40  C   UNL A   1     -28.763   1.899  29.352  0.00  0.00    +0.145 C 
BRANCH  40  42
ATOM     41  C   UNL A   1     -30.250   0.655  30.774  0.00  0.00    +0.174 C 
ATOM     42  O   UNL A   1     -28.871   1.096  30.610  0.00  0.00    -0.351 OA
ENDBRANCH  40  42
ENDBRANCH  39  40
ENDBRANCH  38  39
ENDBRANCH  36  38
ENDBRANCH  22  36
ENDBRANCH   4  23
TORSDOF 14
