MODEL 4408
MODEL 1
REMARK VINA RESULT:    -5.361      0.000      0.000
REMARK INTER + INTRA:          -5.361
REMARK INTER:                  -5.361
REMARK INTRA:                   0.000
REMARK UNBOUND:                 0.000
REMARK  Name = No_4408-gen_results/8p0m/2024-11-27-11-27-31/
REMARK  0 active torsions:
REMARK  status: ('A' for Active; 'I' for Inactive)
REMARK                            x       y       z     vdW  Elec       q    Type
REMARK                         _______ _______ _______ _____ _____    ______ ____
ROOT
ATOM      1 CL   UNL A   1     -24.255  -2.369  30.347  0.00  0.00    -0.082 Cl
ATOM      2  C   UNL A   1     -23.622  -1.453  29.430  0.00  0.00    +0.058 A 
ATOM      3  C   UNL A   1     -24.238  -1.091  28.241  0.00  0.00    +0.011 A 
ATOM      4  C   UNL A   1     -23.992   0.142  27.669  0.00  0.00    +0.001 A 
ATOM      5  C   UNL A   1     -24.629   0.614  26.414  0.00  0.00    +0.000 A 
ATOM      6  C   UNL A   1     -22.260  -0.870  29.546  0.00  0.00    +0.011 A 
ATOM      7  C   UNL A   1     -21.824   0.225  28.878  0.00  0.00    +0.001 A 
ATOM      8  C   UNL A   1     -22.648   0.791  27.833  0.00  0.00    +0.000 A 
ATOM      9  C   UNL A   1     -24.202   1.749  25.725  0.00  0.00    +0.000 A 
ATOM     10  C   UNL A   1     -22.962   2.306  26.051  0.00  0.00    +0.000 A 
ATOM     11  C   UNL A   1     -22.223   1.856  27.018  0.00  0.00    +0.000 A 
ENDROOT
TORSDOF 0
ENDMDL
ENDMDL
