REMARK  Name = outputs/IAG933/test6/raw/output_4408_IAG933_linker_design_.xyz
REMARK  13 active torsions:
REMARK  status: ('A' for Active; 'I' for Inactive)
REMARK    1  A    between atoms: C_1  and  C_2
REMARK    2  A    between atoms: C_1  and  C_8
REMARK    3  A    between atoms: C_1  and  C_28
REMARK    4  A    between atoms: C_13  and  C_30
REMARK    5  A    between atoms: C_14  and  C_15
REMARK    6  A    between atoms: C_21  and  O_22
REMARK    7  A    between atoms: O_22  and  C_23
REMARK    8  A    between atoms: C_23  and  C_24
REMARK    9  A    between atoms: C_28  and  C_30
REMARK   10  A    between atoms: C_28  and  C_41
REMARK   11  A    between atoms: C_30  and  C_36
REMARK   12  A    between atoms: C_39  and  N_42
REMARK   13  A    between atoms: C_39  and  N_45
REMARK                            x       y       z     vdW  Elec       q    Type
REMARK                         _______ _______ _______ _____ _____    ______ ____
ROOT
ATOM      1  C   UNL A   1     -24.973   0.022  28.752  0.00  0.00    +0.088 C 
ENDROOT
BRANCH   1   3
ATOM      2  O   UNL A   1     -27.232  -0.782  28.578  0.00  0.00    -0.273 OA
ATOM      3  C   UNL A   1     -26.433   0.098  28.802  0.00  0.00    +0.243 C 
ATOM      4  N   UNL A   1     -26.868   1.275  29.515  0.00  0.00    -0.187 NA
BRANCH   4   5
ATOM      5  C   UNL A   1     -27.887   1.412  30.646  0.00  0.00    +0.192 C 
BRANCH   5  10
ATOM      6  O   UNL A   1     -29.228   5.756  30.130  0.00  0.00    -0.219 OA
ATOM      7  C   UNL A   1     -28.881   2.407  32.348  0.00  0.00    +0.221 C 
ATOM      8  C   UNL A   1     -30.110   4.208  31.605  0.00  0.00    +0.178 C 
ATOM      9  O   UNL A   1     -29.934   3.206  32.584  0.00  0.00    -0.335 OA
ATOM     10  N   UNL A   1     -28.457   2.372  30.992  0.00  0.00    -0.226 NA
ATOM     11  C   UNL A   1     -28.513   3.461  29.918  0.00  0.00    +0.111 C 
ATOM     12  C   UNL A   1     -28.893   4.624  30.818  0.00  0.00    +0.197 C 
ENDBRANCH   5  10
ENDBRANCH   4   5
ENDBRANCH   1   3
BRANCH   1  13
ATOM     13  C   UNL A   1     -24.855  -1.012  30.143  0.00  0.00    +0.047 C 
BRANCH  13  14
ATOM     14  C   UNL A   1     -24.973  -2.505  29.788  0.00  0.00    -0.021 C 
ATOM     15  C   UNL A   1     -23.906  -3.173  29.146  0.00  0.00    -0.004 C 
ATOM     16  C   UNL A   1     -23.989  -4.549  28.853  0.00  0.00    -0.000 C 
ATOM     17  C   UNL A   1     -25.137  -5.280  29.205  0.00  0.00    -0.000 C 
ATOM     18  C   UNL A   1     -26.232  -4.611  29.784  0.00  0.00    -0.000 C 
ATOM     19  C   UNL A   1     -26.155  -3.232  30.065  0.00  0.00    -0.004 C 
ENDBRANCH  13  14
BRANCH  13  20
ATOM     20  C   UNL A   1     -25.387  -0.679  31.571  0.00  0.00    +0.077 C 
ATOM     21  C   UNL A   1     -25.189   0.773  32.028  0.00  0.00    +0.019 C 
ATOM     22  C   UNL A   1     -25.336   0.684  33.544  0.00  0.00    +0.020 C 
ATOM     23  C   UNL A   1     -24.829  -0.715  33.905  0.00  0.00    +0.089 C 
ATOM     24  N   UNL A   1     -24.758  -1.481  32.646  0.00  0.00    -0.219 NA
ENDBRANCH  13  20
ENDBRANCH   1  13
BRANCH   1  25
ATOM     25  C   UNL A   1     -24.761   1.133  27.441  0.00  0.00    +0.050 C 
BRANCH  25  26
ATOM     26  C   UNL A   1     -25.688   1.614  26.461  0.00  0.00    +0.075 C 
ATOM     27  C   UNL A   1     -26.250   2.920  26.395  0.00  0.00    +0.055 C 
ATOM     28  C   UNL A   1     -27.438   3.091  25.645  0.00  0.00    +0.102 C 
ATOM     29  N   UNL A   1     -28.075   2.089  25.003  0.00  0.00    -0.212 NA
ATOM     30  C   UNL A   1     -27.543   0.849  25.079  0.00  0.00    +0.234 C 
ATOM     31  C   UNL A   1     -26.354   0.576  25.777  0.00  0.00    +0.240 C 
ATOM     32  F   UNL A   1     -25.860  -0.681  25.795  0.00  0.00    -0.227 F 
BRANCH  27  33
ATOM     33  C   UNL A   1     -25.642   4.093  27.123  0.00  0.00    +0.262 C 
ATOM     34  N   UNL A   1     -25.614   5.252  26.449  0.00  0.00    -0.200 NA
ATOM     35  C   UNL A   1     -25.026   6.479  26.963  0.00  0.00    +0.139 C 
ATOM     36  O   UNL A   1     -25.143   3.966  28.243  0.00  0.00    -0.269 OA
ENDBRANCH  27  33
BRANCH  30  37
ATOM     37  O   UNL A   1     -28.193  -0.208  24.477  0.00  0.00    -0.459 OA
BRANCH  37  38
ATOM     38  C   UNL A   1     -29.460   0.005  23.866  0.00  0.00    +0.242 C 
BRANCH  38  39
ATOM     39  C   UNL A   1     -30.065  -1.377  23.573  0.00  0.00    +0.229 C 
ATOM     40  O   UNL A   1     -30.729  -1.878  24.721  0.00  0.00    -0.216 OA
ENDBRANCH  38  39
ENDBRANCH  37  38
ENDBRANCH  30  37
ENDBRANCH  25  26
BRANCH  25  44
ATOM     41  O   UNL A   1     -21.698   2.260  25.916  0.00  0.00    -0.251 OA
ATOM     42  C   UNL A   1     -23.032   2.245  25.856  0.00  0.00    +0.245 C 
ATOM     43  C   UNL A   1     -22.364   1.304  27.869  0.00  0.00    +0.459 C 
ATOM     44  C   UNL A   1     -23.494   1.612  27.106  0.00  0.00    +0.116 C 
ATOM     45  N   UNL A   1     -21.274   1.695  27.149  0.00  0.00    +0.169 NA
ATOM     46  N   UNL A   1     -22.387   0.776  29.163  0.00  0.00    +0.220 NA
ENDBRANCH  25  44
ENDBRANCH   1  25
TORSDOF 13
