REMARK  Name = No_4409-gen_results/8p0m/2024-11-27-11-27-31/
REMARK  6 active torsions:
REMARK  status: ('A' for Active; 'I' for Inactive)
REMARK    1  A    between atoms: C_2  and  C_8
REMARK    2  A    between atoms: C_8  and  N_9
REMARK    3  A    between atoms: C_10  and  C_11
REMARK    4  A    between atoms: C_11  and  C_14
REMARK    5  A    between atoms: C_15  and  C_16
REMARK    6  A    between atoms: C_17  and  C_18
REMARK                            x       y       z     vdW  Elec       q    Type
REMARK                         _______ _______ _______ _____ _____    ______ ____
ROOT
ATOM      1  N   UNL A   1     -30.755   0.084  30.468  0.00  0.00    -0.184 NA
ATOM      2  C   UNL A   1     -31.949   0.157  30.596  0.00  0.00    +0.034 C 
ATOM      3  C   UNL A   1     -32.452  -0.921  31.273  0.00  0.00    +0.045 C 
ENDROOT
BRANCH   1   4
ATOM      4  C   UNL A   1     -30.095  -0.841  29.850  0.00  0.00    +0.268 C 
ATOM      5  O   UNL A   1     -30.564  -1.828  29.354  0.00  0.00    -0.268 OA
BRANCH   4   7
ATOM      6  C   UNL A   1     -28.016  -0.814  28.878  0.00  0.00    +0.007 A 
ATOM      7  C   UNL A   1     -28.469  -0.785  29.829  0.00  0.00    +0.056 A 
ATOM      8  C   UNL A   1     -26.504  -0.778  28.877  0.00  0.00    +0.030 A 
ATOM      9  C   UNL A   1     -25.810  -0.853  30.103  0.00  0.00    +0.140 A 
ATOM     10  C   UNL A   1     -27.991  -0.892  31.226  0.00  0.00    +0.007 A 
ATOM     11  C   UNL A   1     -26.604  -0.868  31.265  0.00  0.00    +0.030 A 
ATOM     12  F   UNL A   1     -24.553  -0.787  30.141  0.00  0.00    -0.204 F 
ENDBRANCH   4   7
ENDBRANCH   1   4
BRANCH   2  13
ATOM     13  C   UNL A   1     -32.637   1.298  31.215  0.00  0.00    +0.065 C 
BRANCH  13  14
ATOM     14  C   UNL A   1     -32.227   2.565  30.813  0.00  0.00    -0.020 C 
ATOM     15  C   UNL A   1     -31.331   2.807  30.057  0.00  0.00    -0.004 C 
BRANCH  15  16
ATOM     16  C   UNL A   1     -31.111   3.797  29.485  0.00  0.00    -0.000 C 
ATOM     17  C   UNL A   1     -29.951   4.079  28.567  0.00  0.00    -0.000 C 
BRANCH  17  18
ATOM     18  C   UNL A   1     -29.086   2.991  28.426  0.00  0.00    -0.000 C 
ATOM     19  C   UNL A   1     -29.279   1.882  29.161  0.00  0.00    -0.000 C 
ENDBRANCH  17  18
ENDBRANCH  15  16
ENDBRANCH  13  14
ENDBRANCH   2  13
TORSDOF 6
