MODEL 4409
MODEL 1
REMARK VINA RESULT:    -6.406      0.000      0.000
REMARK INTER + INTRA:          -9.813
REMARK INTER:                  -8.653
REMARK INTRA:                  -1.160
REMARK UNBOUND:                -1.160
REMARK  Name = No_4409-gen_results/8p0m/2024-11-27-11-27-31/
REMARK  6 active torsions:
REMARK  status: ('A' for Active; 'I' for Inactive)
REMARK    1  A    between atoms: C_2  and  C_8
REMARK    2  A    between atoms: C_8  and  N_9
REMARK    3  A    between atoms: C_10  and  C_11
REMARK    4  A    between atoms: C_11  and  C_14
REMARK    5  A    between atoms: C_15  and  C_16
REMARK    6  A    between atoms: C_17  and  C_18
REMARK                            x       y       z     vdW  Elec       q    Type
REMARK                         _______ _______ _______ _____ _____    ______ ____
ROOT
ATOM      1  N   UNL A   1     -22.864   0.078  28.935  0.00  0.00    -0.184 NA
ATOM      2  C   UNL A   1     -21.799   0.585  28.702  0.00  0.00    +0.034 C 
ATOM      3  C   UNL A   1     -20.816  -0.354  28.541  0.00  0.00    +0.045 C 
ENDROOT
BRANCH   1   4
ATOM      4  C   UNL A   1     -23.163  -0.671  29.946  0.00  0.00    +0.268 C 
ATOM      5  O   UNL A   1     -22.792  -0.510  31.076  0.00  0.00    -0.268 OA
BRANCH   4   7
ATOM      6  C   UNL A   1     -23.569  -2.743  29.045  0.00  0.00    +0.007 A 
ATOM      7  C   UNL A   1     -24.002  -2.044  29.704  0.00  0.00    +0.056 A 
ATOM      8  C   UNL A   1     -24.369  -4.006  28.817  0.00  0.00    +0.030 A 
ATOM      9  C   UNL A   1     -25.666  -4.110  29.363  0.00  0.00    +0.140 A 
ATOM     10  C   UNL A   1     -25.320  -1.896  30.361  0.00  0.00    +0.007 A 
ATOM     11  C   UNL A   1     -26.087  -3.036  30.169  0.00  0.00    +0.030 A 
ATOM     12  F   UNL A   1     -26.344  -5.162  29.225  0.00  0.00    -0.204 F 
ENDBRANCH   4   7
ENDBRANCH   1   4
BRANCH   2  13
ATOM     13  C   UNL A   1     -21.562   1.518  27.592  0.00  0.00    +0.065 C 
BRANCH  13  14
ATOM     14  C   UNL A   1     -22.671   2.208  27.112  0.00  0.00    -0.020 C 
ATOM     15  C   UNL A   1     -23.264   1.968  26.100  0.00  0.00    -0.004 C 
BRANCH  15  16
ATOM     16  C   UNL A   1     -24.327   2.321  25.781  0.00  0.00    -0.000 C 
ATOM     17  C   UNL A   1     -25.519   1.454  25.473  0.00  0.00    -0.000 C 
BRANCH  17  18
ATOM     18  C   UNL A   1     -25.255   0.089  25.609  0.00  0.00    -0.000 C 
ATOM     19  C   UNL A   1     -25.628  -0.557  26.728  0.00  0.00    -0.000 C 
ENDBRANCH  17  18
ENDBRANCH  15  16
ENDBRANCH  13  14
ENDBRANCH   2  13
TORSDOF 6
ENDMDL
ENDMDL
