MODEL 440
MODEL 1
REMARK VINA RESULT:    -5.684      0.000      0.000
REMARK INTER + INTRA:          -6.746
REMARK INTER:                  -6.349
REMARK INTRA:                  -0.397
REMARK UNBOUND:                -0.397
REMARK  Name = No_440-gen_results/8p0m/2024-11-27-11-27-31/
REMARK  2 active torsions:
REMARK  status: ('A' for Active; 'I' for Inactive)
REMARK    1  A    between atoms: C_3  and  C_7
REMARK    2  A    between atoms: C_8  and  C_9
REMARK                            x       y       z     vdW  Elec       q    Type
REMARK                         _______ _______ _______ _____ _____    ______ ____
ROOT
ATOM      1  C   UNL A   1     -23.694   0.328  28.275  0.00  0.00    -0.000 A 
ATOM      2  C   UNL A   1     -23.129   1.035  27.735  0.00  0.00    +0.000 A 
ATOM      3  C   UNL A   1     -22.876  -0.623  29.028  0.00  0.00    -0.000 A 
ATOM      4  C   UNL A   1     -21.504  -0.564  29.030  0.00  0.00    -0.000 A 
ATOM      5  C   UNL A   1     -21.708   1.334  27.558  0.00  0.00    +0.000 A 
ATOM      6  C   UNL A   1     -20.908   0.419  28.283  0.00  0.00    +0.000 A 
ENDROOT
BRANCH   3   7
ATOM      7  C   UNL A   1     -23.494  -1.675  29.886  0.00  0.00    -0.000 C 
ATOM      8  C   UNL A   1     -24.253  -2.615  29.199  0.00  0.00    -0.000 C 
BRANCH   8   9
ATOM      9  C   UNL A   1     -25.236  -2.971  29.113  0.00  0.00    -0.005 C 
ATOM     10  C   UNL A   1     -25.592  -4.432  29.294  0.00  0.00    -0.026 C 
ATOM     11  C   UNL A   1     -24.593  -5.238  29.043  0.00  0.00    +0.031 C 
ENDBRANCH   8   9
ENDBRANCH   3   7
TORSDOF 2
ENDMDL
ENDMDL
