MODEL 4410
MODEL 1
REMARK VINA RESULT:    -6.281      0.000      0.000
REMARK INTER + INTRA:         -11.428
REMARK INTER:                  -8.117
REMARK INTRA:                  -3.311
REMARK UNBOUND:                -3.311
REMARK  Name = No_4410-gen_results/8p0m/2024-11-27-11-27-31/
REMARK  5 active torsions:
REMARK  status: ('A' for Active; 'I' for Inactive)
REMARK    1  A    between atoms: C_3  and  C_4
REMARK    2  A    between atoms: C_4  and  C_8
REMARK    3  A    between atoms: C_7  and  C_14
REMARK    4  A    between atoms: C_14  and  C_15
REMARK    5  A    between atoms: C_15  and  C_16
REMARK                            x       y       z     vdW  Elec       q    Type
REMARK                         _______ _______ _______ _____ _____    ______ ____
ROOT
ATOM      1  C   UNL A   1     -26.616  -3.708  30.037  0.00  0.00    -0.004 A 
ATOM      2  C   UNL A   1     -26.203  -4.585  29.623  0.00  0.00    -0.000 A 
ATOM      3  C   UNL A   1     -25.704  -2.565  30.205  0.00  0.00    -0.022 A 
ATOM      4  C   UNL A   1     -24.897  -4.843  28.969  0.00  0.00    -0.000 A 
ATOM      5  C   UNL A   1     -23.979  -3.805  29.078  0.00  0.00    -0.005 A 
ATOM      6  C   UNL A   1     -24.337  -2.614  29.673  0.00  0.00    -0.025 A 
ENDROOT
BRANCH   3   7
ATOM      7  C   UNL A   1     -25.984  -1.308  30.880  0.00  0.00    +0.052 C 
BRANCH   7   8
ATOM      8  C   UNL A   1     -26.492  -0.227  30.151  0.00  0.00    -0.018 A 
ATOM      9  C   UNL A   1     -27.319  -0.357  29.180  0.00  0.00    -0.004 A 
ATOM     10  C   UNL A   1     -27.720   0.813  28.456  0.00  0.00    -0.000 A 
ATOM     11  C   UNL A   1     -27.139   1.984  28.842  0.00  0.00    -0.000 A 
ATOM     12  C   UNL A   1     -26.243   2.010  29.878  0.00  0.00    -0.000 A 
ATOM     13  C   UNL A   1     -25.868   0.987  30.568  0.00  0.00    -0.004 A 
ENDBRANCH   7   8
ENDBRANCH   3   7
BRANCH   6  14
ATOM     14  C   UNL A   1     -23.429  -1.549  29.750  0.00  0.00    +0.031 C 
BRANCH  14  15
ATOM     15  C   UNL A   1     -22.921  -0.968  28.682  0.00  0.00    +0.031 C 
BRANCH  15  16
ATOM     16  C   UNL A   1     -23.422   0.147  28.023  0.00  0.00    -0.022 A 
ATOM     17  C   UNL A   1     -22.907   1.511  28.193  0.00  0.00    -0.004 A 
ATOM     18  C   UNL A   1     -23.391   2.467  27.224  0.00  0.00    -0.000 A 
ATOM     19  C   UNL A   1     -24.364   2.090  26.254  0.00  0.00    -0.000 A 
ATOM     20  C   UNL A   1     -24.847   0.813  26.202  0.00  0.00    -0.000 A 
ATOM     21  C   UNL A   1     -24.363  -0.067  27.015  0.00  0.00    -0.004 A 
ENDBRANCH  15  16
ENDBRANCH  14  15
ENDBRANCH   6  14
TORSDOF 5
ENDMDL
ENDMDL
