REMARK  Name = No_4410-gen_results/8p0m/2024-11-27-11-27-31/
REMARK  5 active torsions:
REMARK  status: ('A' for Active; 'I' for Inactive)
REMARK    1  A    between atoms: C_3  and  C_4
REMARK    2  A    between atoms: C_4  and  C_8
REMARK    3  A    between atoms: C_7  and  C_14
REMARK    4  A    between atoms: C_14  and  C_15
REMARK    5  A    between atoms: C_15  and  C_16
REMARK                            x       y       z     vdW  Elec       q    Type
REMARK                         _______ _______ _______ _____ _____    ______ ____
ROOT
ATOM      1  C   UNL A   1     -28.016  -0.814  28.878  0.00  0.00    -0.004 A 
ATOM      2  C   UNL A   1     -28.469  -0.785  29.829  0.00  0.00    -0.000 A 
ATOM      3  C   UNL A   1     -26.546  -0.876  28.850  0.00  0.00    -0.022 A 
ATOM      4  C   UNL A   1     -27.918  -1.003  31.188  0.00  0.00    -0.000 A 
ATOM      5  C   UNL A   1     -26.531  -1.079  31.246  0.00  0.00    -0.005 A 
ATOM      6  C   UNL A   1     -25.780  -1.046  30.090  0.00  0.00    -0.025 A 
ENDROOT
BRANCH   3   7
ATOM      7  C   UNL A   1     -25.683  -0.777  27.683  0.00  0.00    +0.052 C 
BRANCH   7   8
ATOM      8  C   UNL A   1     -25.898   0.239  26.745  0.00  0.00    -0.018 A 
ATOM      9  C   UNL A   1     -26.825   1.118  26.857  0.00  0.00    -0.004 A 
ATOM     10  C   UNL A   1     -27.000   2.071  25.801  0.00  0.00    -0.000 A 
ATOM     11  C   UNL A   1     -26.178   1.929  24.723  0.00  0.00    -0.000 A 
ATOM     12  C   UNL A   1     -25.236   0.935  24.692  0.00  0.00    -0.000 A 
ATOM     13  C   UNL A   1     -25.030   0.069  25.625  0.00  0.00    -0.004 A 
ENDBRANCH   7   8
ENDBRANCH   3   7
BRANCH   6  14
ATOM     14  C   UNL A   1     -24.384  -1.163  30.138  0.00  0.00    +0.031 C 
BRANCH  14  15
ATOM     15  C   UNL A   1     -23.598  -0.162  30.479  0.00  0.00    +0.031 C 
BRANCH  15  16
ATOM     16  C   UNL A   1     -23.953   0.964  31.210  0.00  0.00    -0.022 A 
ATOM     17  C   UNL A   1     -23.285   2.266  31.105  0.00  0.00    -0.004 A 
ATOM     18  C   UNL A   1     -23.977   3.357  31.751  0.00  0.00    -0.000 A 
ATOM     19  C   UNL A   1     -25.166   3.122  32.500  0.00  0.00    -0.000 A 
ATOM     20  C   UNL A   1     -25.692   1.866  32.608  0.00  0.00    -0.000 A 
ATOM     21  C   UNL A   1     -25.122   0.898  31.970  0.00  0.00    -0.004 A 
ENDBRANCH  15  16
ENDBRANCH  14  15
ENDBRANCH   6  14
TORSDOF 5
