MODEL 4411
MODEL 1
REMARK VINA RESULT:    -6.549      0.000      0.000
REMARK INTER + INTRA:          -7.009
REMARK INTER:                  -6.932
REMARK INTRA:                  -0.077
REMARK UNBOUND:                -0.077
REMARK  Name = No_4411-gen_results/8p0m/2024-11-27-11-27-31/
REMARK  1 active torsions:
REMARK  status: ('A' for Active; 'I' for Inactive)
REMARK    1  A    between atoms: C_5  and  C_9
REMARK                            x       y       z     vdW  Elec       q    Type
REMARK                         _______ _______ _______ _____ _____    ______ ____
ROOT
ATOM      1  C   UNL A   1     -24.927  -2.705  29.634  0.00  0.00    +0.058 C 
ATOM      2  C   UNL A   1     -24.362  -1.744  29.167  0.00  0.00    +0.015 C 
ATOM      3  C   UNL A   1     -22.990  -1.608  29.043  0.00  0.00    +0.002 C 
ATOM      4  C   UNL A   1     -22.287  -0.441  28.565  0.00  0.00    +0.011 C 
ATOM      5  C   UNL A   1     -23.041   0.689  28.171  0.00  0.00    +0.103 C 
ATOM      6  C   UNL A   1     -24.455   0.614  28.270  0.00  0.00    +0.011 C 
ATOM      7  C   UNL A   1     -25.024  -0.521  28.761  0.00  0.00    +0.003 C 
ATOM      8  N   UNL A   1     -26.346  -2.701  29.767  0.00  0.00    -0.274 NA
ATOM      9  C   UNL A   1     -27.080  -3.811  30.051  0.00  0.00    +0.072 C 
ATOM     10  C   UNL A   1     -26.655  -4.936  29.665  0.00  0.00    +0.017 C 
ATOM     11  C   UNL A   1     -25.265  -5.089  29.423  0.00  0.00    +0.003 C 
ATOM     12  C   UNL A   1     -24.509  -3.994  29.187  0.00  0.00    +0.016 C 
ATOM     13  C   UNL A   1     -26.983  -1.371  29.940  0.00  0.00    +0.072 C 
ATOM     14  C   UNL A   1     -26.471  -0.430  29.163  0.00  0.00    +0.017 C 
ENDROOT
BRANCH   5  15
ATOM     15  C   UNL A   1     -22.417   1.884  27.649  0.00  0.00    +0.364 C 
ATOM     16  O   UNL A   1     -21.206   1.830  27.380  0.00  0.00    -0.246 OA
ATOM     17  O   UNL A   1     -23.115   2.936  27.404  0.00  0.00    -0.246 OA
ENDBRANCH   5  15
TORSDOF 1
ENDMDL
ENDMDL
