MODEL 4412
MODEL 1
REMARK VINA RESULT:    -6.937      0.000      0.000
REMARK INTER + INTRA:         -11.704
REMARK INTER:                  -9.775
REMARK INTRA:                  -1.928
REMARK UNBOUND:                -1.928
REMARK  Name = No_4412-gen_results/8p0m/2024-11-27-11-27-31/
REMARK  7 active torsions:
REMARK  status: ('A' for Active; 'I' for Inactive)
REMARK    1  A    between atoms: C_2  and  C_17
REMARK    2  A    between atoms: C_3  and  C_4
REMARK    3  A    between atoms: C_4  and  C_8
REMARK    4  A    between atoms: C_9  and  C_10
REMARK    5  A    between atoms: N_19  and  C_21
REMARK    6  A    between atoms: C_22  and  C_23
REMARK    7  A    between atoms: C_24  and  C_25
REMARK                            x       y       z     vdW  Elec       q    Type
REMARK                         _______ _______ _______ _____ _____    ______ ____
ROOT
ATOM      1  C   UNL A   1     -24.132  -0.448  27.805  0.00  0.00    +0.003 A 
ATOM      2  C   UNL A   1     -23.662  -0.997  28.572  0.00  0.00    +0.054 A 
ATOM      3  C   UNL A   1     -23.419   0.816  27.380  0.00  0.00    +0.010 A 
ATOM      4  C   UNL A   1     -22.324  -0.896  29.171  0.00  0.00    +0.007 A 
ATOM      5  C   UNL A   1     -21.600   0.220  28.811  0.00  0.00    +0.029 A 
ATOM      6  C   UNL A   1     -22.099   1.099  27.884  0.00  0.00    +0.137 A 
ATOM      7  F   UNL A   1     -21.375   2.060  27.511  0.00  0.00    -0.204 F 
ENDROOT
BRANCH   2   8
ATOM      8  C   UNL A   1     -24.422  -2.309  29.057  0.00  0.00    +0.253 C 
ATOM      9  O   UNL A   1     -23.872  -3.335  28.947  0.00  0.00    -0.270 OA
ATOM     10  N   UNL A   1     -25.652  -2.134  29.490  0.00  0.00    -0.252 N 
ATOM     11  C   UNL A   1     -26.470  -3.264  29.853  0.00  0.00    +0.120 C 
BRANCH  10  12
ATOM     12  C   UNL A   1     -26.312  -0.805  29.662  0.00  0.00    +0.068 C 
ATOM     13  C   UNL A   1     -26.353  -0.346  30.883  0.00  0.00    +0.016 C 
BRANCH  13  14
ATOM     14  C   UNL A   1     -25.624   0.715  31.238  0.00  0.00    +0.001 C 
ATOM     15  C   UNL A   1     -24.511   0.554  32.165  0.00  0.00    +0.000 C 
BRANCH  15  16
ATOM     16  C   UNL A   1     -24.256  -0.715  32.724  0.00  0.00    +0.000 C 
ATOM     17  C   UNL A   1     -23.038  -1.279  32.596  0.00  0.00    +0.000 C 
ENDBRANCH  15  16
ENDBRANCH  13  14
ENDBRANCH  10  12
ENDBRANCH   2   8
BRANCH   3  18
ATOM     18  C   UNL A   1     -23.920   1.812  26.466  0.00  0.00    +0.055 C 
BRANCH  18  19
ATOM     19  C   UNL A   1     -24.874   2.747  26.878  0.00  0.00    -0.021 C 
ATOM     20  C   UNL A   1     -26.170   2.575  26.637  0.00  0.00    -0.004 C 
BRANCH  20  21
ATOM     21  C   UNL A   1     -26.674   1.949  25.561  0.00  0.00    -0.000 A 
ATOM     22  C   UNL A   1     -27.054   0.555  25.549  0.00  0.00    -0.000 A 
ATOM     23  C   UNL A   1     -27.721   2.723  24.800  0.00  0.00    -0.000 A 
ATOM     24  C   UNL A   1     -28.219   2.124  23.600  0.00  0.00    -0.000 A 
ATOM     25  C   UNL A   1     -28.331   0.774  23.505  0.00  0.00    -0.000 A 
ATOM     26  C   UNL A   1     -27.668  -0.032  24.464  0.00  0.00    -0.000 A 
ENDBRANCH  20  21
ENDBRANCH  18  19
ENDBRANCH   3  18
TORSDOF 7
ENDMDL
ENDMDL
