MODEL 4413
MODEL 1
REMARK VINA RESULT:    -7.289      0.000      0.000
REMARK INTER + INTRA:         -11.115
REMARK INTER:                  -9.846
REMARK INTRA:                  -1.269
REMARK UNBOUND:                -1.269
REMARK  Name = No_4413-gen_results/8p0m/2024-11-27-11-27-31/
REMARK  6 active torsions:
REMARK  status: ('A' for Active; 'I' for Inactive)
REMARK    1  A    between atoms: C_18  and  C_29
REMARK    2  A    between atoms: C_21  and  C_24
REMARK    3  A    between atoms: C_24  and  N_25
REMARK    4  A    between atoms: N_25  and  C_26
REMARK    5  A    between atoms: N_30  and  C_31
REMARK    6  A    between atoms: N_30  and  C_32
REMARK                            x       y       z     vdW  Elec       q    Type
REMARK                         _______ _______ _______ _____ _____    ______ ____
ROOT
ATOM      1  N   UNL A   1     -25.426 -10.281   4.278  0.00  0.00    -0.182 NA
ATOM      2  C   UNL A   1     -25.452 -11.373   4.394  0.00  0.00    +0.344 C 
ATOM      3  C   UNL A   1     -26.037  -9.579   5.276  0.00  0.00    +0.144 C 
ATOM      4  C   UNL A   1     -26.535 -10.041   6.161  0.00  0.00    +0.015 A 
ATOM      5  N   UNL A   1     -25.967 -12.206   5.353  0.00  0.00    -0.161 NA
ATOM      6  C   UNL A   1     -26.599 -11.475   6.367  0.00  0.00    +0.073 A 
ATOM      7  O   UNL A   1     -24.791 -12.101   3.420  0.00  0.00    -0.249 OA
ATOM      8  C   UNL A   1     -27.238  -9.295   7.345  0.00  0.00    -0.001 A 
ATOM      9  C   UNL A   1     -27.719  -9.722   8.314  0.00  0.00    -0.000 A 
ATOM     10  C   UNL A   1     -27.798 -11.258   8.406  0.00  0.00    +0.001 A 
ATOM     11  C   UNL A   1     -27.189 -12.042   7.492  0.00  0.00    +0.015 A 
ATOM     12  C   UNL A   1     -27.232  -7.801   7.261  0.00  0.00    -0.000 A 
ATOM     13  C   UNL A   1     -27.783  -7.148   8.391  0.00  0.00    -0.000 A 
ATOM     14  C   UNL A   1     -28.322  -7.702   9.416  0.00  0.00    -0.000 A 
ATOM     15  C   UNL A   1     -28.347  -9.045   9.464  0.00  0.00    -0.000 A 
ATOM     16  C   UNL A   1     -27.214 -13.529   7.645  0.00  0.00    +0.001 A 
ATOM     17  C   UNL A   1     -28.221 -14.065   8.325  0.00  0.00    +0.004 A 
ATOM     18  C   UNL A   1     -28.286 -15.503   8.532  0.00  0.00    +0.054 A 
ATOM     19  C   UNL A   1     -29.359 -16.107   9.203  0.00  0.00    +0.004 A 
ATOM     20  C   UNL A   1     -30.325 -15.328   9.834  0.00  0.00    -0.003 A 
ATOM     21  C   UNL A   1     -30.239 -13.906   9.731  0.00  0.00    -0.005 A 
ATOM     22  C   UNL A   1     -29.213 -13.347   9.058  0.00  0.00    -0.003 A 
ATOM     23  C   UNL A   1     -28.979 -11.861   9.022  0.00  0.00    -0.000 A 
ENDROOT
BRANCH  18  24
ATOM     24  C   UNL A   1     -27.290 -16.367   7.876  0.00  0.00    +0.257 C 
ATOM     25  N   UNL A   1     -27.354 -17.023   7.084  0.00  0.00    -0.231 N 
ATOM     26  O   UNL A   1     -26.111 -16.305   8.600  0.00  0.00    -0.269 OA
BRANCH  25  27
ATOM     27  C   UNL A   1     -27.802 -16.622   5.849  0.00  0.00    +0.072 C 
ATOM     28  C   UNL A   1     -27.043 -15.896   4.819  0.00  0.00    +0.018 C 
ENDBRANCH  25  27
BRANCH  25  29
ATOM     29  C   UNL A   1     -27.157 -18.456   7.124  0.00  0.00    +0.072 C 
ATOM     30  C   UNL A   1     -28.172 -19.332   6.706  0.00  0.00    +0.018 C 
ENDBRANCH  25  29
ENDBRANCH  18  24
BRANCH  21  31
ATOM     31  C   UNL A   1     -31.237 -13.108  10.494  0.00  0.00    +0.119 C 
BRANCH  31  32
ATOM     32  N   UNL A   1     -31.019 -13.075  11.875  0.00  0.00    -0.166 NA
BRANCH  32  33
ATOM     33  C   UNL A   1     -30.290 -13.001  12.648  0.00  0.00    +0.330 C 
ATOM     34  F   UNL A   1     -30.534 -13.589  13.687  0.00  0.00    -0.196 F 
ATOM     35  N   UNL A   1     -29.439 -12.042  12.841  0.00  0.00    -0.077 NA
ENDBRANCH  32  33
ENDBRANCH  31  32
ENDBRANCH  21  31
TORSDOF 6
ENDMDL
ENDMDL
