MODEL 4414
MODEL 1
REMARK VINA RESULT:    -5.104      0.000      0.000
REMARK INTER + INTRA:          -5.104
REMARK INTER:                  -5.104
REMARK INTRA:                   0.000
REMARK UNBOUND:                 0.000
REMARK  Name = No_4414-gen_results/8p0m/2024-11-27-11-27-31/
REMARK  0 active torsions:
REMARK  status: ('A' for Active; 'I' for Inactive)
REMARK                            x       y       z     vdW  Elec       q    Type
REMARK                         _______ _______ _______ _____ _____    ______ ____
ROOT
ATOM      1  C   UNL A   1     -25.917  -2.120  30.357  0.00  0.00    +0.002 A 
ATOM      2  C   UNL A   1     -24.977  -1.443  30.008  0.00  0.00    +0.019 A 
ATOM      3  C   UNL A   1     -23.867  -1.912  29.327  0.00  0.00    +0.004 A 
ATOM      4  C   UNL A   1     -23.851  -3.296  28.986  0.00  0.00    +0.011 A 
ATOM      5  C   UNL A   1     -24.978  -3.987  29.256  0.00  0.00    +0.058 A 
ATOM      6  C   UNL A   1     -26.031  -3.413  29.841  0.00  0.00    +0.011 A 
ATOM      7 CL   UNL A   1     -24.970  -5.618  28.780  0.00  0.00    -0.082 Cl
ATOM      8  C   UNL A   1     -24.612   0.040  30.423  0.00  0.00    +0.099 A 
ATOM      9  N   UNL A   1     -23.583   0.614  30.207  0.00  0.00    -0.242 NA
ATOM     10  C   UNL A   1     -22.525   0.084  29.484  0.00  0.00    +0.099 A 
ATOM     11  C   UNL A   1     -22.588  -1.169  29.110  0.00  0.00    +0.021 A 
ENDROOT
TORSDOF 0
ENDMDL
ENDMDL
