REMARK  Name = outputs/IAG933/test6/raw/output_4415_IAG933_linker_design_.xyz
REMARK  9 active torsions:
REMARK  status: ('A' for Active; 'I' for Inactive)
REMARK    1  A    between atoms: C_1  and  C_2
REMARK    2  A    between atoms: C_13  and  C_30
REMARK    3  A    between atoms: C_14  and  C_15
REMARK    4  A    between atoms: C_21  and  O_22
REMARK    5  A    between atoms: O_22  and  C_23
REMARK    6  A    between atoms: C_23  and  C_24
REMARK    7  A    between atoms: N_36  and  C_44
REMARK    8  A    between atoms: C_38  and  C_40
REMARK    9  A    between atoms: C_40  and  C_44
REMARK                            x       y       z     vdW  Elec       q    Type
REMARK                         _______ _______ _______ _____ _____    ______ ____
ROOT
ATOM      1  C   UNL A   1     -24.855  -1.012  30.143  0.00  0.00    +0.155 C 
ATOM      2  C   UNL A   1     -25.387  -0.679  31.571  0.00  0.00    +0.113 C 
ATOM      3  C   UNL A   1     -25.189   0.773  32.028  0.00  0.00    +0.097 C 
ATOM      4  C   UNL A   1     -25.336   0.684  33.544  0.00  0.00    +0.029 C 
ATOM      5  C   UNL A   1     -24.829  -0.715  33.905  0.00  0.00    +0.089 C 
ATOM      6  N   UNL A   1     -24.758  -1.481  32.646  0.00  0.00    -0.216 NA
ATOM      7  C   UNL A   1     -24.384   0.998  28.558  0.00  0.00    +0.178 C 
ATOM      8  O   UNL A   1     -24.718  -0.384  28.864  0.00  0.00    -0.338 OA
ATOM      9  C   UNL A   1     -24.339   1.389  27.085  0.00  0.00    +0.086 C 
ATOM     10  C   UNL A   1     -22.250   1.687  27.866  0.00  0.00    +0.252 C 
ATOM     11  O   UNL A   1     -26.083   3.003  32.054  0.00  0.00    -0.275 OA
ATOM     12  C   UNL A   1     -25.547   1.941  29.241  0.00  0.00    +0.138 C 
ATOM     13  F   UNL A   1     -20.935   1.949  27.788  0.00  0.00    -0.216 F 
ATOM     14  N   UNL A   1     -26.695   1.725  30.233  0.00  0.00    -0.273 N 
ATOM     15  C   UNL A   1     -26.008   1.945  31.463  0.00  0.00    +0.227 C 
ATOM     16  C   UNL A   1     -23.146   2.122  26.728  0.00  0.00    +0.137 C 
ATOM     17  N   UNL A   1     -22.900   1.099  28.874  0.00  0.00    -0.161 NA
ATOM     18 CL   UNL A   1     -22.484   2.261  25.180  0.00  0.00    -0.110 Cl
ENDROOT
BRANCH   9  19
ATOM     19  C   UNL A   1     -25.688   1.614  26.461  0.00  0.00    +0.021 C 
ATOM     20  C   UNL A   1     -26.250   2.920  26.395  0.00  0.00    +0.073 C 
ATOM     21  C   UNL A   1     -27.438   3.091  25.645  0.00  0.00    +0.106 C 
ATOM     22  N   UNL A   1     -28.075   2.089  25.003  0.00  0.00    -0.208 NA
ATOM     23  C   UNL A   1     -27.543   0.849  25.079  0.00  0.00    +0.253 C 
ATOM     24  C   UNL A   1     -26.354   0.576  25.777  0.00  0.00    +0.189 C 
ATOM     25  F   UNL A   1     -25.860  -0.681  25.795  0.00  0.00    -0.200 F 
BRANCH  20  26
ATOM     26  C   UNL A   1     -25.642   4.093  27.123  0.00  0.00    +0.266 C 
ATOM     27  N   UNL A   1     -25.614   5.252  26.449  0.00  0.00    -0.200 NA
ATOM     28  C   UNL A   1     -25.026   6.479  26.963  0.00  0.00    +0.139 C 
ATOM     29  O   UNL A   1     -25.143   3.966  28.243  0.00  0.00    -0.268 OA
ENDBRANCH  20  26
BRANCH  23  30
ATOM     30  O   UNL A   1     -28.193  -0.208  24.477  0.00  0.00    -0.456 OA
BRANCH  30  31
ATOM     31  C   UNL A   1     -29.460   0.005  23.866  0.00  0.00    +0.243 C 
BRANCH  31  32
ATOM     32  C   UNL A   1     -30.065  -1.377  23.573  0.00  0.00    +0.229 C 
ATOM     33  O   UNL A   1     -30.729  -1.878  24.721  0.00  0.00    -0.216 OA
ENDBRANCH  31  32
ENDBRANCH  30  31
ENDBRANCH  23  30
ENDBRANCH   9  19
BRANCH   1  34
ATOM     34  C   UNL A   1     -24.973  -2.505  29.788  0.00  0.00    +0.006 C 
ATOM     35  C   UNL A   1     -23.906  -3.173  29.146  0.00  0.00    -0.002 C 
ATOM     36  C   UNL A   1     -23.989  -4.549  28.853  0.00  0.00    -0.000 C 
ATOM     37  C   UNL A   1     -25.137  -5.280  29.205  0.00  0.00    -0.000 C 
ATOM     38  C   UNL A   1     -26.232  -4.611  29.784  0.00  0.00    -0.000 C 
ATOM     39  C   UNL A   1     -26.155  -3.232  30.065  0.00  0.00    -0.002 C 
ENDBRANCH   1  34
BRANCH  14  40
ATOM     40  C   UNL A   1     -27.886   2.589  29.892  0.00  0.00    +0.129 C 
BRANCH  40  42
ATOM     41  O   UNL A   1     -29.021   0.552  29.495  0.00  0.00    -0.218 OA
ATOM     42  C   UNL A   1     -29.180   1.767  30.166  0.00  0.00    +0.204 C 
BRANCH  42  43
ATOM     43  C   UNL A   1     -30.128   2.524  31.051  0.00  0.00    +0.216 C 
ATOM     44  O   UNL A   1     -29.282   2.885  32.135  0.00  0.00    -0.217 OA
ENDBRANCH  42  43
ENDBRANCH  40  42
ENDBRANCH  14  40
TORSDOF 9
