MODEL 4415
MODEL 1
REMARK VINA RESULT:    -7.850      0.000      0.000
REMARK INTER + INTRA:         -11.836
REMARK INTER:                  -9.686
REMARK INTRA:                  -2.150
REMARK UNBOUND:                -2.150
REMARK  Name = No_4415-gen_results/8p0m/2024-11-27-11-27-31/
REMARK  4 active torsions:
REMARK  status: ('A' for Active; 'I' for Inactive)
REMARK    1  A    between atoms: C_3  and  C_7
REMARK    2  A    between atoms: C_7  and  C_8
REMARK    3  A    between atoms: C_7  and  C_14
REMARK    4  A    between atoms: C_14  and  C_16
REMARK                            x       y       z     vdW  Elec       q    Type
REMARK                         _______ _______ _______ _____ _____    ______ ____
ROOT
ATOM      1  C   UNL A   1     -23.584  -0.555  28.743  0.00  0.00    +0.049 C 
ENDROOT
BRANCH   1   4
ATOM      2  C   UNL A   1     -26.557  -2.321  29.851  0.00  0.00    +0.011 A 
ATOM      3  C   UNL A   1     -25.759  -1.480  29.508  0.00  0.00    -0.003 A 
ATOM      4  C   UNL A   1     -24.542  -1.659  29.082  0.00  0.00    -0.018 A 
ATOM      5  C   UNL A   1     -24.046  -2.997  29.008  0.00  0.00    -0.003 A 
ATOM      6  C   UNL A   1     -24.939  -3.971  29.306  0.00  0.00    +0.011 A 
ATOM      7  C   UNL A   1     -26.219  -3.679  29.699  0.00  0.00    +0.058 A 
ATOM      8 CL   UNL A   1     -27.420  -4.846  30.072  0.00  0.00    -0.082 Cl
ENDBRANCH   1   4
BRANCH   1   9
ATOM      9  C   UNL A   1     -23.442   0.088  27.899  0.00  0.00    -0.018 A 
ATOM     10  C   UNL A   1     -24.442   0.698  26.950  0.00  0.00    -0.004 A 
ATOM     11  C   UNL A   1     -24.034   1.540  25.905  0.00  0.00    -0.000 A 
ATOM     12  C   UNL A   1     -22.717   2.156  25.993  0.00  0.00    -0.000 A 
ATOM     13  C   UNL A   1     -21.848   1.883  26.997  0.00  0.00    -0.000 A 
ATOM     14  C   UNL A   1     -22.167   0.961  27.916  0.00  0.00    -0.004 A 
ENDBRANCH   1   9
BRANCH   1  15
ATOM     15  C   UNL A   1     -22.688  -0.237  30.056  0.00  0.00    +0.035 C 
BRANCH  15  16
ATOM     16  C   UNL A   1     -23.095   0.019  31.153  0.00  0.00    -0.021 A 
ATOM     17  C   UNL A   1     -24.051   1.085  31.395  0.00  0.00    -0.004 A 
ATOM     18  C   UNL A   1     -25.096   0.892  32.337  0.00  0.00    -0.000 A 
ATOM     19  C   UNL A   1     -24.932  -0.180  33.236  0.00  0.00    -0.000 A 
ATOM     20  C   UNL A   1     -23.906  -1.134  33.147  0.00  0.00    -0.000 A 
ATOM     21  C   UNL A   1     -23.061  -1.085  32.134  0.00  0.00    -0.004 A 
ENDBRANCH  15  16
ENDBRANCH   1  15
TORSDOF 4
ENDMDL
ENDMDL
