REMARK  Name = outputs/IAG933/test6/raw/output_4416_IAG933_linker_design_.xyz
REMARK  9 active torsions:
REMARK  status: ('A' for Active; 'I' for Inactive)
REMARK    1  A    between atoms: C_1  and  C_2
REMARK    2  A    between atoms: C_1  and  C_8
REMARK    3  A    between atoms: C_1  and  N_33
REMARK    4  A    between atoms: C_9  and  C_36
REMARK    5  A    between atoms: C_13  and  C_35
REMARK    6  A    between atoms: C_14  and  C_15
REMARK    7  A    between atoms: C_21  and  O_22
REMARK    8  A    between atoms: O_22  and  C_23
REMARK    9  A    between atoms: C_23  and  C_24
REMARK                            x       y       z     vdW  Elec       q    Type
REMARK                         _______ _______ _______ _____ _____    ______ ____
ROOT
ATOM      1  C   UNL A   1     -22.523   0.564  28.643  0.00  0.00    +0.218 C 
ATOM      2  N   UNL A   1     -23.631   2.035  26.602  0.00  0.00    -0.230 NA
ATOM      3  C   UNL A   1     -21.511   1.245  27.603  0.00  0.00    +0.165 C 
ATOM      4  C   UNL A   1     -23.420   1.417  29.512  0.00  0.00    +0.113 C 
ATOM      5  O   UNL A   1     -22.272  -0.521  29.380  0.00  0.00    -0.214 OA
ATOM      6  N   UNL A   1     -24.608   0.352  29.579  0.00  0.00    -0.265 NA
ATOM      7  F   UNL A   1     -20.426   1.290  27.794  0.00  0.00    -0.205 F 
ATOM      8  C   UNL A   1     -24.615   1.292  27.023  0.00  0.00    +0.133 C 
ATOM      9  C   UNL A   1     -22.180   1.935  26.519  0.00  0.00    +0.108 C 
ATOM     10  C   UNL A   1     -24.944   0.189  28.104  0.00  0.00    +0.099 C 
ENDROOT
BRANCH   8  11
ATOM     11  C   UNL A   1     -25.688   1.614  26.461  0.00  0.00    +0.037 C 
ATOM     12  C   UNL A   1     -26.250   2.920  26.395  0.00  0.00    +0.074 C 
ATOM     13  C   UNL A   1     -27.438   3.091  25.645  0.00  0.00    +0.106 C 
ATOM     14  N   UNL A   1     -28.075   2.089  25.003  0.00  0.00    -0.208 NA
ATOM     15  C   UNL A   1     -27.543   0.849  25.079  0.00  0.00    +0.253 C 
ATOM     16  C   UNL A   1     -26.354   0.576  25.777  0.00  0.00    +0.191 C 
ATOM     17  F   UNL A   1     -25.860  -0.681  25.795  0.00  0.00    -0.200 F 
BRANCH  12  18
ATOM     18  C   UNL A   1     -25.642   4.093  27.123  0.00  0.00    +0.266 C 
ATOM     19  N   UNL A   1     -25.614   5.252  26.449  0.00  0.00    -0.200 NA
ATOM     20  C   UNL A   1     -25.026   6.479  26.963  0.00  0.00    +0.139 C 
ATOM     21  O   UNL A   1     -25.143   3.966  28.243  0.00  0.00    -0.268 OA
ENDBRANCH  12  18
BRANCH  15  22
ATOM     22  O   UNL A   1     -28.193  -0.208  24.477  0.00  0.00    -0.456 OA
BRANCH  22  23
ATOM     23  C   UNL A   1     -29.460   0.005  23.866  0.00  0.00    +0.243 C 
BRANCH  23  24
ATOM     24  C   UNL A   1     -30.065  -1.377  23.573  0.00  0.00    +0.229 C 
ATOM     25  O   UNL A   1     -30.729  -1.878  24.721  0.00  0.00    -0.216 OA
ENDBRANCH  23  24
ENDBRANCH  22  23
ENDBRANCH  15  22
ENDBRANCH   8  11
BRANCH   6  26
ATOM     26  C   UNL A   1     -24.855  -1.012  30.143  0.00  0.00    +0.097 C 
BRANCH  26  27
ATOM     27  C   UNL A   1     -24.973  -2.505  29.788  0.00  0.00    -0.006 C 
ATOM     28  C   UNL A   1     -23.906  -3.173  29.146  0.00  0.00    -0.003 C 
ATOM     29  C   UNL A   1     -23.989  -4.549  28.853  0.00  0.00    -0.000 C 
ATOM     30  C   UNL A   1     -25.137  -5.280  29.205  0.00  0.00    -0.000 C 
ATOM     31  C   UNL A   1     -26.232  -4.611  29.784  0.00  0.00    -0.000 C 
ATOM     32  C   UNL A   1     -26.155  -3.232  30.065  0.00  0.00    -0.003 C 
ENDBRANCH  26  27
BRANCH  26  33
ATOM     33  C   UNL A   1     -25.387  -0.679  31.571  0.00  0.00    +0.098 C 
ATOM     34  C   UNL A   1     -25.189   0.773  32.028  0.00  0.00    +0.077 C 
ATOM     35  C   UNL A   1     -25.336   0.684  33.544  0.00  0.00    +0.028 C 
ATOM     36  C   UNL A   1     -24.829  -0.715  33.905  0.00  0.00    +0.089 C 
ATOM     37  N   UNL A   1     -24.758  -1.481  32.646  0.00  0.00    -0.217 NA
BRANCH  34  38
ATOM     38  C   UNL A   1     -25.140   2.247  31.759  0.00  0.00    +0.152 C 
ATOM     39  O   UNL A   1     -24.026   2.819  31.682  0.00  0.00    -0.296 OA
ATOM     40  C   UNL A   1     -26.297   3.143  32.136  0.00  0.00    +0.072 C 
ENDBRANCH  34  38
ENDBRANCH  26  33
ENDBRANCH   6  26
TORSDOF 9
