REMARK  Name = outputs/IAG933/test6/raw/output_4417_IAG933_linker_design_.xyz
REMARK  16 active torsions:
REMARK  status: ('A' for Active; 'I' for Inactive)
REMARK    1  A    between atoms: C_1  and  C_2
REMARK    2  A    between atoms: C_1  and  C_8
REMARK    3  A    between atoms: C_1  and  N_34
REMARK    4  A    between atoms: C_13  and  C_29
REMARK    5  A    between atoms: C_14  and  C_15
REMARK    6  A    between atoms: C_21  and  O_22
REMARK    7  A    between atoms: O_22  and  C_23
REMARK    8  A    between atoms: C_23  and  C_24
REMARK    9  A    between atoms: N_28  and  C_30
REMARK   10  A    between atoms: C_30  and  O_45
REMARK   11  A    between atoms: N_34  and  C_35
REMARK   12  A    between atoms: N_34  and  C_39
REMARK   13  A    between atoms: C_36  and  C_41
REMARK   14  A    between atoms: C_36  and  C_42
REMARK   15  A    between atoms: C_38  and  C_39
REMARK   16  A    between atoms: C_38  and  O_45
REMARK                            x       y       z     vdW  Elec       q    Type
REMARK                         _______ _______ _______ _____ _____    ______ ____
ROOT
ATOM      1  N   UNL A   1     -25.054  -0.123  29.051  0.00  0.00    -0.244 NA
ENDROOT
BRANCH   1   6
ATOM      2  C   UNL A   1     -24.559   1.380  27.338  0.00  0.00    +0.085 C 
ATOM      3 CL   UNL A   1     -22.830   2.326  25.318  0.00  0.00    -0.112 Cl
ATOM      4  C   UNL A   1     -23.115   1.479  26.808  0.00  0.00    +0.117 C 
ATOM      5  C   UNL A   1     -21.736   1.355  27.687  0.00  0.00    +0.160 C 
ATOM      6  C   UNL A   1     -23.902   0.573  28.485  0.00  0.00    +0.182 C 
ATOM      7  O   UNL A   1     -22.447   0.620  28.840  0.00  0.00    -0.339 OA
BRANCH   2   8
ATOM      8  C   UNL A   1     -25.688   1.614  26.461  0.00  0.00    +0.021 C 
ATOM      9  C   UNL A   1     -26.250   2.920  26.395  0.00  0.00    +0.073 C 
ATOM     10  C   UNL A   1     -27.438   3.091  25.645  0.00  0.00    +0.106 C 
ATOM     11  N   UNL A   1     -28.075   2.089  25.003  0.00  0.00    -0.208 NA
ATOM     12  C   UNL A   1     -27.543   0.849  25.079  0.00  0.00    +0.253 C 
ATOM     13  C   UNL A   1     -26.354   0.576  25.777  0.00  0.00    +0.189 C 
ATOM     14  F   UNL A   1     -25.860  -0.681  25.795  0.00  0.00    -0.200 F 
BRANCH   9  15
ATOM     15  C   UNL A   1     -25.642   4.093  27.123  0.00  0.00    +0.266 C 
ATOM     16  N   UNL A   1     -25.614   5.252  26.449  0.00  0.00    -0.200 NA
ATOM     17  C   UNL A   1     -25.026   6.479  26.963  0.00  0.00    +0.139 C 
ATOM     18  O   UNL A   1     -25.143   3.966  28.243  0.00  0.00    -0.268 OA
ENDBRANCH   9  15
BRANCH  12  19
ATOM     19  O   UNL A   1     -28.193  -0.208  24.477  0.00  0.00    -0.456 OA
BRANCH  19  20
ATOM     20  C   UNL A   1     -29.460   0.005  23.866  0.00  0.00    +0.243 C 
BRANCH  20  21
ATOM     21  C   UNL A   1     -30.065  -1.377  23.573  0.00  0.00    +0.229 C 
ATOM     22  O   UNL A   1     -30.729  -1.878  24.721  0.00  0.00    -0.216 OA
ENDBRANCH  20  21
ENDBRANCH  19  20
ENDBRANCH  12  19
ENDBRANCH   2   8
ENDBRANCH   1   6
BRANCH   1  23
ATOM     23  C   UNL A   1     -24.855  -1.012  30.143  0.00  0.00    +0.098 C 
BRANCH  23  24
ATOM     24  C   UNL A   1     -24.973  -2.505  29.788  0.00  0.00    -0.006 C 
ATOM     25  C   UNL A   1     -23.906  -3.173  29.146  0.00  0.00    -0.003 C 
ATOM     26  C   UNL A   1     -23.989  -4.549  28.853  0.00  0.00    -0.000 C 
ATOM     27  C   UNL A   1     -25.137  -5.280  29.205  0.00  0.00    -0.000 C 
ATOM     28  C   UNL A   1     -26.232  -4.611  29.784  0.00  0.00    -0.000 C 
ATOM     29  C   UNL A   1     -26.155  -3.232  30.065  0.00  0.00    -0.003 C 
ENDBRANCH  23  24
BRANCH  23  30
ATOM     30  C   UNL A   1     -25.387  -0.679  31.571  0.00  0.00    +0.092 C 
ATOM     31  C   UNL A   1     -25.189   0.773  32.028  0.00  0.00    +0.021 C 
ATOM     32  C   UNL A   1     -25.336   0.684  33.544  0.00  0.00    +0.020 C 
ATOM     33  C   UNL A   1     -24.829  -0.715  33.905  0.00  0.00    +0.089 C 
ATOM     34  N   UNL A   1     -24.758  -1.481  32.646  0.00  0.00    -0.218 NA
ENDBRANCH  23  30
ENDBRANCH   1  23
BRANCH   1  35
ATOM     35  C   UNL A   1     -26.248  -0.246  28.512  0.00  0.00    +0.107 C 
BRANCH  35  36
ATOM     36  C   UNL A   1     -27.394   0.411  29.323  0.00  0.00    +0.161 C 
BRANCH  36  37
ATOM     37  O   UNL A   1     -28.471  -0.456  29.661  0.00  0.00    -0.336 OA
BRANCH  37  38
ATOM     38  C   UNL A   1     -29.452   0.105  29.210  0.00  0.00    +0.220 C 
BRANCH  38  39
ATOM     39  N   UNL A   1     -30.598  -0.199  28.352  0.00  0.00    -0.248 NA
ATOM     40  C   UNL A   1     -32.438  -0.752  27.589  0.00  0.00    +0.034 C 
ATOM     41  C   UNL A   1     -31.168  -0.873  27.078  0.00  0.00    +0.076 C 
ATOM     42  C   UNL A   1     -31.906   0.340  28.479  0.00  0.00    +0.076 C 
BRANCH  40  43
ATOM     43  C   UNL A   1     -33.700  -0.092  26.914  0.00  0.00    +0.023 C 
BRANCH  43  45
ATOM     44  N   UNL A   1     -35.881  -0.679  26.178  0.00  0.00    -0.131 NA
ATOM     45  C   UNL A   1     -34.512  -1.144  26.204  0.00  0.00    +0.109 C 
ENDBRANCH  43  45
ENDBRANCH  40  43
ENDBRANCH  38  39
ENDBRANCH  37  38
ENDBRANCH  36  37
ENDBRANCH  35  36
ENDBRANCH   1  35
TORSDOF 16
