REMARK  Name = outputs/IAG933/test6/raw/output_4418_IAG933_linker_design_.xyz
REMARK  11 active torsions:
REMARK  status: ('A' for Active; 'I' for Inactive)
REMARK    1  A    between atoms: C_1  and  C_2
REMARK    2  A    between atoms: C_1  and  C_8
REMARK    3  A    between atoms: C_1  and  N_32
REMARK    4  A    between atoms: C_21  and  O_22
REMARK    5  A    between atoms: O_22  and  C_23
REMARK    6  A    between atoms: C_23  and  C_24
REMARK    7  A    between atoms: C_28  and  C_34
REMARK    8  A    between atoms: C_28  and  C_36
REMARK    9  A    between atoms: C_30  and  C_34
REMARK   10  A    between atoms: C_34  and  C_35
REMARK   11  A    between atoms: C_36  and  C_37
REMARK                            x       y       z     vdW  Elec       q    Type
REMARK                         _______ _______ _______ _____ _____    ______ ____
ROOT
ATOM      1  C   UNL A   1     -23.066   1.377  26.601  0.00  0.00    +0.130 C 
ENDROOT
BRANCH   1  14
ATOM      2  C   UNL A   1     -25.688   1.614  26.461  0.00  0.00    +0.034 C 
ATOM      3  C   UNL A   1     -26.250   2.920  26.395  0.00  0.00    +0.074 C 
ATOM      4  C   UNL A   1     -25.642   4.093  27.123  0.00  0.00    +0.253 C 
ATOM      5  N   UNL A   1     -25.614   5.252  26.449  0.00  0.00    -0.234 NA
ATOM      6  C   UNL A   1     -25.026   6.479  26.963  0.00  0.00    +0.155 C 
ATOM      7  O   UNL A   1     -25.143   3.966  28.243  0.00  0.00    -0.328 OA
ATOM      8  C   UNL A   1     -27.438   3.091  25.645  0.00  0.00    +0.107 C 
ATOM      9  N   UNL A   1     -28.075   2.089  25.003  0.00  0.00    -0.208 NA
ATOM     10  C   UNL A   1     -27.543   0.849  25.079  0.00  0.00    +0.253 C 
ATOM     11  C   UNL A   1     -26.354   0.576  25.777  0.00  0.00    +0.191 C 
ATOM     12  F   UNL A   1     -25.860  -0.681  25.795  0.00  0.00    -0.200 F 
ATOM     13  N   UNL A   1     -24.247   1.984  28.726  0.00  0.00    -0.064 NA
ATOM     14  C   UNL A   1     -24.501   1.339  27.372  0.00  0.00    +0.134 C 
ATOM     15  O   UNL A   1     -25.554   3.925  30.619  0.00  0.00    -0.044 OA
ATOM     16  O   UNL A   1     -26.684   2.052  29.385  0.00  0.00    -0.044 OA
ATOM     17  S   UNL A   1     -25.384   2.988  29.364  0.00  0.00    +0.108 S 
BRANCH  10  18
ATOM     18  O   UNL A   1     -28.193  -0.208  24.477  0.00  0.00    -0.456 OA
BRANCH  18  19
ATOM     19  C   UNL A   1     -29.460   0.005  23.866  0.00  0.00    +0.243 C 
BRANCH  19  20
ATOM     20  C   UNL A   1     -30.065  -1.377  23.573  0.00  0.00    +0.229 C 
ATOM     21  O   UNL A   1     -30.729  -1.878  24.721  0.00  0.00    -0.216 OA
ENDBRANCH  19  20
ENDBRANCH  18  19
ENDBRANCH  10  18
ENDBRANCH   1  14
BRANCH   1  23
ATOM     22  O   UNL A   1     -23.348   0.496  24.217  0.00  0.00    -0.246 OA
ATOM     23  C   UNL A   1     -22.914   1.379  25.014  0.00  0.00    +0.366 C 
ATOM     24  O   UNL A   1     -22.228   2.329  24.697  0.00  0.00    -0.246 OA
ENDBRANCH   1  23
BRANCH   1  25
ATOM     25  C   UNL A   1     -21.686   1.156  26.947  0.00  0.00    +0.039 C 
BRANCH  25  26
ATOM     26  C   UNL A   1     -21.429   0.299  28.131  0.00  0.00    +0.003 C 
ATOM     27  C   UNL A   1     -20.122  -0.001  28.305  0.00  0.00    -0.005 C 
BRANCH  26  29
ATOM     28  N   UNL A   1     -23.657  -0.364  29.722  0.00  0.00    -0.129 NA
ATOM     29  C   UNL A   1     -22.614  -0.407  29.081  0.00  0.00    +0.240 C 
ATOM     30  O   UNL A   1     -22.481  -0.173  30.317  0.00  0.00    -0.259 OA
BRANCH  28  31
ATOM     31  C   UNL A   1     -24.855  -1.012  30.143  0.00  0.00    +0.125 C 
BRANCH  31  32
ATOM     32  C   UNL A   1     -24.973  -2.505  29.788  0.00  0.00    -0.004 C 
ATOM     33  C   UNL A   1     -23.906  -3.173  29.146  0.00  0.00    -0.003 C 
ATOM     34  C   UNL A   1     -23.989  -4.549  28.853  0.00  0.00    -0.000 C 
ATOM     35  C   UNL A   1     -25.137  -5.280  29.205  0.00  0.00    -0.000 C 
ATOM     36  C   UNL A   1     -26.232  -4.611  29.784  0.00  0.00    -0.000 C 
ATOM     37  C   UNL A   1     -26.155  -3.232  30.065  0.00  0.00    -0.003 C 
ENDBRANCH  31  32
BRANCH  31  38
ATOM     38  C   UNL A   1     -25.387  -0.679  31.571  0.00  0.00    +0.094 C 
ATOM     39  C   UNL A   1     -25.189   0.773  32.028  0.00  0.00    +0.021 C 
ATOM     40  C   UNL A   1     -25.336   0.684  33.544  0.00  0.00    +0.020 C 
ATOM     41  C   UNL A   1     -24.829  -0.715  33.905  0.00  0.00    +0.089 C 
ATOM     42  N   UNL A   1     -24.758  -1.481  32.646  0.00  0.00    -0.218 NA
ENDBRANCH  31  38
ENDBRANCH  28  31
ENDBRANCH  26  29
ENDBRANCH  25  26
ENDBRANCH   1  25
TORSDOF 11
