MODEL 4418
MODEL 1
REMARK VINA RESULT:    -5.863      0.000      0.000
REMARK INTER + INTRA:          -6.286
REMARK INTER:                  -6.206
REMARK INTRA:                  -0.080
REMARK UNBOUND:                -0.080
REMARK  Name = No_4418-gen_results/8p0m/2024-11-27-11-27-31/
REMARK  1 active torsions:
REMARK  status: ('A' for Active; 'I' for Inactive)
REMARK    1  A    between atoms: C_5  and  C_12
REMARK                            x       y       z     vdW  Elec       q    Type
REMARK                         _______ _______ _______ _____ _____    ______ ____
ROOT
ATOM      1  C   UNL A   1     -31.137 -10.231  29.992  0.00  0.00    +0.152 C 
ATOM      2  C   UNL A   1     -30.230 -10.510  30.741  0.00  0.00    +0.002 A 
ATOM      3  C   UNL A   1     -29.389 -11.589  30.554  0.00  0.00    -0.002 A 
ATOM      4  C   UNL A   1     -28.338 -12.010  31.462  0.00  0.00    +0.004 A 
ATOM      5  C   UNL A   1     -28.122 -11.267  32.643  0.00  0.00    +0.057 A 
ATOM      6  C   UNL A   1     -29.002 -10.147  32.857  0.00  0.00    +0.004 A 
ATOM      7  C   UNL A   1     -30.016  -9.788  32.001  0.00  0.00    -0.002 A 
ATOM      8  N   UNL A   1     -30.778  -9.959  28.692  0.00  0.00    -0.264 NA
ATOM      9  C   UNL A   1     -30.196 -10.535  27.970  0.00  0.00    +0.093 C 
ATOM     10  C   UNL A   1     -29.434 -11.692  28.127  0.00  0.00    +0.020 C 
ATOM     11  C   UNL A   1     -29.330 -12.416  29.168  0.00  0.00    +0.001 C 
ENDROOT
BRANCH   5  12
ATOM     12  C   UNL A   1     -27.154 -11.621  33.634  0.00  0.00    +0.284 C 
ATOM     13  N   UNL A   1     -26.892 -10.724  34.564  0.00  0.00    -0.084 NA
ATOM     14  O   UNL A   1     -26.711 -12.822  33.761  0.00  0.00    -0.267 OA
ENDBRANCH   5  12
TORSDOF 1
ENDMDL
ENDMDL
