MODEL 4419
MODEL 1
REMARK VINA RESULT:    -4.767      0.000      0.000
REMARK INTER + INTRA:          -5.527
REMARK INTER:                  -5.325
REMARK INTRA:                  -0.202
REMARK UNBOUND:                -0.202
REMARK  Name = No_4419-gen_results/8p0m/2024-11-27-11-27-31/
REMARK  2 active torsions:
REMARK  status: ('A' for Active; 'I' for Inactive)
REMARK    1  A    between atoms: C_3  and  C_5
REMARK    2  A    between atoms: C_5  and  C_10
REMARK                            x       y       z     vdW  Elec       q    Type
REMARK                         _______ _______ _______ _____ _____    ______ ____
ROOT
ATOM      1  O   UNL A   1     -21.907  -0.399  29.428  0.00  0.00    -0.275 OA
ATOM      2  C   UNL A   1     -22.862  -0.542  28.798  0.00  0.00    +0.226 C 
ATOM      3  C   UNL A   1     -23.675  -1.242  28.644  0.00  0.00    +0.081 C 
ATOM      4  N   UNL A   1     -23.135   0.734  27.963  0.00  0.00    -0.278 N 
ATOM      5  C   UNL A   1     -22.320   1.693  27.768  0.00  0.00    +0.115 C 
ATOM      6  C   UNL A   1     -24.994  -1.111  27.767  0.00  0.00    +0.011 C 
ATOM      7  C   UNL A   1     -25.149  -0.065  26.959  0.00  0.00    +0.022 C 
ATOM      8  C   UNL A   1     -24.242   0.913  27.039  0.00  0.00    +0.093 C 
ENDROOT
BRANCH   3   9
ATOM      9  C   UNL A   1     -23.816  -2.503  29.313  0.00  0.00    +0.035 C 
BRANCH   9  10
ATOM     10  C   UNL A   1     -24.613  -3.335  29.307  0.00  0.00    -0.026 C 
ATOM     11  C   UNL A   1     -24.171  -4.638  28.646  0.00  0.00    -0.005 C 
ENDBRANCH   9  10
ENDBRANCH   3   9
TORSDOF 2
ENDMDL
ENDMDL
