MODEL 441
MODEL 1
REMARK VINA RESULT:    -6.829      0.000      0.000
REMARK INTER + INTRA:         -14.195
REMARK INTER:                 -10.422
REMARK INTRA:                  -3.774
REMARK UNBOUND:                -3.774
REMARK  Name = No_441-gen_results/8p0m/2024-11-27-11-27-31/
REMARK  9 active torsions:
REMARK  status: ('A' for Active; 'I' for Inactive)
REMARK    1  A    between atoms: C_2  and  C_8
REMARK    2  A    between atoms: N_9  and  C_11
REMARK    3  A    between atoms: N_9  and  C_12
REMARK    4  A    between atoms: C_12  and  C_14
REMARK    5  A    between atoms: C_17  and  C_20
REMARK    6  A    between atoms: C_20  and  C_21
REMARK    7  A    between atoms: C_20  and  C_23
REMARK    8  A    between atoms: C_23  and  C_24
REMARK    9  A    between atoms: C_27  and  C_28
REMARK                            x       y       z     vdW  Elec       q    Type
REMARK                         _______ _______ _______ _____ _____    ______ ____
ROOT
ATOM      1  C   UNL A   1     -11.468  -0.883  39.452  0.00  0.00    -0.002 A 
ATOM      2  C   UNL A   1     -11.427  -1.657  38.224  0.00  0.00    -0.003 A 
ATOM      3  C   UNL A   1     -10.570  -1.169  37.184  0.00  0.00    -0.004 A 
ATOM      4  C   UNL A   1      -9.940   0.129  37.260  0.00  0.00    -0.008 A 
ATOM      5  C   UNL A   1     -10.134   0.831  38.457  0.00  0.00    -0.004 A 
ATOM      6  C   UNL A   1     -10.862   0.366  39.471  0.00  0.00    -0.003 A 
ENDROOT
BRANCH   1   7
ATOM      7  C   UNL A   1     -12.159  -1.525  40.480  0.00  0.00    +0.120 C 
BRANCH   7   9
ATOM      8  C   UNL A   1     -12.414  -0.351  42.429  0.00  0.00    +0.249 C 
ATOM      9  N   UNL A   1     -11.725  -1.043  41.889  0.00  0.00    -0.272 N 
ATOM     10  O   UNL A   1     -11.903  -0.001  43.668  0.00  0.00    -0.270 OA
BRANCH   8  12
ATOM     11  C   UNL A   1     -13.750   1.553  41.671  0.00  0.00    +0.005 A 
ATOM     12  C   UNL A   1     -13.763   0.413  42.075  0.00  0.00    +0.054 A 
ATOM     13  C   UNL A   1     -14.901  -0.302  42.408  0.00  0.00    +0.005 A 
ATOM     14  C   UNL A   1     -16.155   0.354  42.229  0.00  0.00    +0.007 A 
ATOM     15  C   UNL A   1     -16.112   1.565  41.638  0.00  0.00    +0.035 A 
ATOM     16  C   UNL A   1     -14.958   2.130  41.274  0.00  0.00    +0.007 A 
ATOM     17 BR   UNL A   1     -17.857   2.354  41.487  0.00  0.00    -0.049 Br
ENDBRANCH   8  12
BRANCH   9  18
ATOM     18  C   UNL A   1     -10.493  -1.669  42.271  0.00  0.00    +0.094 C 
ATOM     19  C   UNL A   1     -10.521  -2.963  42.296  0.00  0.00    +0.023 C 
ENDBRANCH   9  18
ENDBRANCH   7   9
ENDBRANCH   1   7
BRANCH   4  20
ATOM     20  C   UNL A   1      -9.224   0.696  36.110  0.00  0.00    +0.118 C 
BRANCH  20  21
ATOM     21  C   UNL A   1      -8.241   0.232  35.709  0.00  0.00    +0.077 C 
ATOM     22  N   UNL A   1      -7.709  -0.304  34.921  0.00  0.00    -0.196 NA
ENDBRANCH  20  21
BRANCH  20  23
ATOM     23  C   UNL A   1      -9.919   1.871  35.598  0.00  0.00    +0.046 C 
BRANCH  23  24
ATOM     24  C   UNL A   1     -10.895   1.654  34.725  0.00  0.00    -0.021 A 
ATOM     25  C   UNL A   1     -10.804   1.085  33.596  0.00  0.00    -0.004 A 
ATOM     26  C   UNL A   1     -11.982   0.898  32.683  0.00  0.00    -0.000 A 
ATOM     27  C   UNL A   1     -12.195   2.296  34.956  0.00  0.00    -0.004 A 
ATOM     28  C   UNL A   1     -13.294   2.129  34.193  0.00  0.00    -0.000 A 
ATOM     29  C   UNL A   1     -13.144   1.424  32.989  0.00  0.00    -0.000 A 
BRANCH  27  30
ATOM     30  C   UNL A   1     -12.346   2.952  36.282  0.00  0.00    -0.000 A 
ATOM     31  C   UNL A   1     -13.096   2.198  37.275  0.00  0.00    -0.000 A 
ATOM     32  C   UNL A   1     -11.855   4.217  36.524  0.00  0.00    -0.000 A 
ATOM     33  C   UNL A   1     -13.766   2.651  37.912  0.00  0.00    -0.000 A 
ATOM     34  C   UNL A   1     -12.502   4.852  37.640  0.00  0.00    -0.000 A 
ATOM     35  C   UNL A   1     -13.378   4.087  38.400  0.00  0.00    -0.000 A 
ENDBRANCH  27  30
ENDBRANCH  23  24
ENDBRANCH  20  23
ENDBRANCH   4  20
TORSDOF 9
ENDMDL
ENDMDL
