REMARK  Name = outputs/IAG933/test6/raw/output_442_IAG933_linker_design_.xyz
REMARK  16 active torsions:
REMARK  status: ('A' for Active; 'I' for Inactive)
REMARK    1  A    between atoms: C_1  and  C_2
REMARK    2  A    between atoms: C_1  and  C_8
REMARK    3  A    between atoms: C_1  and  C_43
REMARK    4  A    between atoms: C_13  and  N_42
REMARK    5  A    between atoms: C_14  and  C_15
REMARK    6  A    between atoms: C_21  and  O_22
REMARK    7  A    between atoms: O_22  and  C_23
REMARK    8  A    between atoms: C_23  and  C_24
REMARK    9  A    between atoms: C_30  and  C_43
REMARK   10  A    between atoms: C_32  and  C_39
REMARK   11  A    between atoms: C_32  and  N_40
REMARK   12  A    between atoms: C_37  and  O_45
REMARK   13  A    between atoms: C_37  and  O_46
REMARK   14  A    between atoms: C_38  and  C_39
REMARK   15  A    between atoms: C_39  and  O_46
REMARK   16  A    between atoms: C_43  and  O_45
REMARK                            x       y       z     vdW  Elec       q    Type
REMARK                         _______ _______ _______ _____ _____    ______ ____
ROOT
ATOM      1  C   UNL A   1     -25.164  -0.113  29.132  0.00  0.00    +0.159 C 
ENDROOT
BRANCH   1   3
ATOM      2  C   UNL A   1     -23.185   2.001  26.274  0.00  0.00    +0.069 C 
ATOM      3  C   UNL A   1     -24.180   0.736  28.205  0.00  0.00    +0.060 C 
ATOM      4  C   UNL A   1     -22.592   0.825  28.463  0.00  0.00    +0.015 C 
ATOM      5  C   UNL A   1     -21.996   1.553  27.207  0.00  0.00    +0.017 C 
ATOM      6  N   UNL A   1     -24.434   1.479  27.009  0.00  0.00    -0.264 N 
BRANCH   6   7
ATOM      7  C   UNL A   1     -25.688   1.614  26.461  0.00  0.00    +0.094 C 
ATOM      8  C   UNL A   1     -26.250   2.920  26.395  0.00  0.00    +0.090 C 
ATOM      9  C   UNL A   1     -27.438   3.091  25.645  0.00  0.00    +0.108 C 
ATOM     10  N   UNL A   1     -28.075   2.089  25.003  0.00  0.00    -0.208 NA
ATOM     11  C   UNL A   1     -27.543   0.849  25.079  0.00  0.00    +0.255 C 
ATOM     12  C   UNL A   1     -26.354   0.576  25.777  0.00  0.00    +0.207 C 
ATOM     13  F   UNL A   1     -25.860  -0.681  25.795  0.00  0.00    -0.198 F 
BRANCH   8  14
ATOM     14  C   UNL A   1     -25.642   4.093  27.123  0.00  0.00    +0.268 C 
ATOM     15  N   UNL A   1     -25.614   5.252  26.449  0.00  0.00    -0.200 NA
ATOM     16  C   UNL A   1     -25.026   6.479  26.963  0.00  0.00    +0.139 C 
ATOM     17  O   UNL A   1     -25.143   3.966  28.243  0.00  0.00    -0.268 OA
ENDBRANCH   8  14
BRANCH  11  18
ATOM     18  O   UNL A   1     -28.193  -0.208  24.477  0.00  0.00    -0.456 OA
BRANCH  18  19
ATOM     19  C   UNL A   1     -29.460   0.005  23.866  0.00  0.00    +0.243 C 
BRANCH  19  20
ATOM     20  C   UNL A   1     -30.065  -1.377  23.573  0.00  0.00    +0.229 C 
ATOM     21  O   UNL A   1     -30.729  -1.878  24.721  0.00  0.00    -0.216 OA
ENDBRANCH  19  20
ENDBRANCH  18  19
ENDBRANCH  11  18
ENDBRANCH   6   7
ENDBRANCH   1   3
BRANCH   1  22
ATOM     22  C   UNL A   1     -24.855  -1.012  30.143  0.00  0.00    +0.071 C 
BRANCH  22  23
ATOM     23  C   UNL A   1     -24.973  -2.505  29.788  0.00  0.00    -0.018 C 
ATOM     24  C   UNL A   1     -23.906  -3.173  29.146  0.00  0.00    -0.004 C 
ATOM     25  C   UNL A   1     -23.989  -4.549  28.853  0.00  0.00    -0.000 C 
ATOM     26  C   UNL A   1     -25.137  -5.280  29.205  0.00  0.00    -0.000 C 
ATOM     27  C   UNL A   1     -26.232  -4.611  29.784  0.00  0.00    -0.000 C 
ATOM     28  C   UNL A   1     -26.155  -3.232  30.065  0.00  0.00    -0.004 C 
ENDBRANCH  22  23
BRANCH  22  29
ATOM     29  C   UNL A   1     -25.387  -0.679  31.571  0.00  0.00    +0.080 C 
ATOM     30  C   UNL A   1     -25.189   0.773  32.028  0.00  0.00    +0.019 C 
ATOM     31  C   UNL A   1     -25.336   0.684  33.544  0.00  0.00    +0.020 C 
ATOM     32  C   UNL A   1     -24.829  -0.715  33.905  0.00  0.00    +0.089 C 
ATOM     33  N   UNL A   1     -24.758  -1.481  32.646  0.00  0.00    -0.219 NA
ENDBRANCH  22  29
ENDBRANCH   1  22
BRANCH   1  34
ATOM     34  O   UNL A   1     -26.720  -0.354  28.976  0.00  0.00    -0.323 OA
BRANCH  34  35
ATOM     35  C   UNL A   1     -27.959  -0.882  29.325  0.00  0.00    +0.294 C 
BRANCH  35  36
ATOM     36  O   UNL A   1     -29.052  -0.244  28.995  0.00  0.00    -0.325 OA
BRANCH  36  37
ATOM     37  C   UNL A   1     -29.192   1.135  29.572  0.00  0.00    +0.167 C 
BRANCH  37  38
ATOM     38  C   UNL A   1     -28.494   1.346  30.936  0.00  0.00    +0.213 C 
ATOM     39  O   UNL A   1     -29.165   0.435  31.797  0.00  0.00    -0.218 OA
ENDBRANCH  37  38
BRANCH  37  40
ATOM     40  C   UNL A   1     -29.926   2.041  28.811  0.00  0.00    +0.105 C 
BRANCH  40  46
ATOM     41  C   UNL A   1     -31.912  -0.303  26.926  0.00  0.00    +0.016 C 
ATOM     42  C   UNL A   1     -32.734   0.468  25.902  0.00  0.00    +0.003 C 
ATOM     43  C   UNL A   1     -32.912   0.831  28.907  0.00  0.00    +0.017 C 
ATOM     44  C   UNL A   1     -31.640   0.461  28.253  0.00  0.00    +0.058 C 
ATOM     45  C   UNL A   1     -31.502   2.348  26.949  0.00  0.00    +0.072 C 
ATOM     46  N   UNL A   1     -30.851   1.659  27.879  0.00  0.00    -0.272 NA
ATOM     47  C   UNL A   1     -31.915   1.758  25.572  0.00  0.00    +0.017 C 
ENDBRANCH  40  46
ENDBRANCH  37  40
ENDBRANCH  36  37
ENDBRANCH  35  36
ENDBRANCH  34  35
ENDBRANCH   1  34
TORSDOF 16
