REMARK  Name = outputs/IAG933/test6/raw/output_4420_IAG933_linker_design_.xyz
REMARK  17 active torsions:
REMARK  status: ('A' for Active; 'I' for Inactive)
REMARK    1  A    between atoms: C_1  and  C_2
REMARK    2  A    between atoms: C_1  and  C_8
REMARK    3  A    between atoms: C_1  and  O_31
REMARK    4  A    between atoms: C_9  and  C_41
REMARK    5  A    between atoms: C_13  and  O_36
REMARK    6  A    between atoms: C_14  and  C_15
REMARK    7  A    between atoms: C_21  and  O_22
REMARK    8  A    between atoms: O_22  and  C_23
REMARK    9  A    between atoms: C_23  and  C_24
REMARK   10  A    between atoms: C_29  and  O_38
REMARK   11  A    between atoms: C_30  and  O_38
REMARK   12  A    between atoms: C_30  and  C_41
REMARK   13  A    between atoms: O_31  and  C_33
REMARK   14  A    between atoms: C_33  and  C_39
REMARK   15  A    between atoms: O_34  and  C_42
REMARK   16  A    between atoms: O_36  and  C_42
REMARK   17  A    between atoms: C_39  and  C_42
REMARK                            x       y       z     vdW  Elec       q    Type
REMARK                         _______ _______ _______ _____ _____    ______ ____
ROOT
ATOM      1  C   UNL A   1     -22.363   1.014  29.469  0.00  0.00    +0.165 C 
ENDROOT
BRANCH   1   3
ATOM      2 CL   UNL A   1     -20.727   1.903  27.331  0.00  0.00    -0.106 Cl
ATOM      3  C   UNL A   1     -22.298   1.360  27.950  0.00  0.00    +0.179 C 
BRANCH   3   4
ATOM      4  C   UNL A   1     -23.297   1.508  27.021  0.00  0.00    +0.306 C 
BRANCH   4   5
ATOM      5  O   UNL A   1     -23.140   2.264  25.967  0.00  0.00    -0.317 OA
ATOM      6  C   UNL A   1     -23.072   2.102  24.543  0.00  0.00    +0.178 C 
ENDBRANCH   4   5
BRANCH   4   7
ATOM      7  O   UNL A   1     -24.650   1.162  27.365  0.00  0.00    -0.449 OA
BRANCH   7   8
ATOM      8  C   UNL A   1     -25.688   1.614  26.461  0.00  0.00    +0.179 C 
ATOM      9  C   UNL A   1     -26.250   2.920  26.395  0.00  0.00    +0.111 C 
ATOM     10  C   UNL A   1     -27.438   3.091  25.645  0.00  0.00    +0.110 C 
ATOM     11  N   UNL A   1     -28.075   2.089  25.003  0.00  0.00    -0.208 NA
ATOM     12  C   UNL A   1     -27.543   0.849  25.079  0.00  0.00    +0.256 C 
ATOM     13  C   UNL A   1     -26.354   0.576  25.777  0.00  0.00    +0.227 C 
ATOM     14  F   UNL A   1     -25.860  -0.681  25.795  0.00  0.00    -0.196 F 
BRANCH   9  15
ATOM     15  C   UNL A   1     -25.642   4.093  27.123  0.00  0.00    +0.269 C 
ATOM     16  N   UNL A   1     -25.614   5.252  26.449  0.00  0.00    -0.200 NA
ATOM     17  C   UNL A   1     -25.026   6.479  26.963  0.00  0.00    +0.139 C 
ATOM     18  O   UNL A   1     -25.143   3.966  28.243  0.00  0.00    -0.268 OA
ENDBRANCH   9  15
BRANCH  12  19
ATOM     19  O   UNL A   1     -28.193  -0.208  24.477  0.00  0.00    -0.456 OA
BRANCH  19  20
ATOM     20  C   UNL A   1     -29.460   0.005  23.866  0.00  0.00    +0.243 C 
BRANCH  20  21
ATOM     21  C   UNL A   1     -30.065  -1.377  23.573  0.00  0.00    +0.229 C 
ATOM     22  O   UNL A   1     -30.729  -1.878  24.721  0.00  0.00    -0.216 OA
ENDBRANCH  20  21
ENDBRANCH  19  20
ENDBRANCH  12  19
ENDBRANCH   7   8
ENDBRANCH   4   7
ENDBRANCH   3   4
ENDBRANCH   1   3
BRANCH   1  23
ATOM     23  O   UNL A   1     -23.787   0.127  29.900  0.00  0.00    -0.349 OA
BRANCH  23  24
ATOM     24  C   UNL A   1     -24.855  -1.012  30.143  0.00  0.00    +0.153 C 
BRANCH  24  25
ATOM     25  C   UNL A   1     -24.973  -2.505  29.788  0.00  0.00    +0.006 C 
ATOM     26  C   UNL A   1     -23.906  -3.173  29.146  0.00  0.00    -0.002 C 
ATOM     27  C   UNL A   1     -23.989  -4.549  28.853  0.00  0.00    -0.000 C 
ATOM     28  C   UNL A   1     -25.137  -5.280  29.205  0.00  0.00    -0.000 C 
ATOM     29  C   UNL A   1     -26.232  -4.611  29.784  0.00  0.00    -0.000 C 
ATOM     30  C   UNL A   1     -26.155  -3.232  30.065  0.00  0.00    -0.002 C 
ENDBRANCH  24  25
BRANCH  24  31
ATOM     31  C   UNL A   1     -25.387  -0.679  31.571  0.00  0.00    +0.105 C 
ATOM     32  C   UNL A   1     -25.189   0.773  32.028  0.00  0.00    +0.031 C 
ATOM     33  C   UNL A   1     -25.336   0.684  33.544  0.00  0.00    +0.021 C 
ATOM     34  C   UNL A   1     -24.829  -0.715  33.905  0.00  0.00    +0.089 C 
ATOM     35  N   UNL A   1     -24.758  -1.481  32.646  0.00  0.00    -0.217 NA
BRANCH  32  36
ATOM     36  C   UNL A   1     -25.901   2.147  31.470  0.00  0.00    +0.111 C 
BRANCH  36  37
ATOM     37  C   UNL A   1     -24.996   3.033  31.461  0.00  0.00    +0.317 C 
ATOM     38  O   UNL A   1     -23.787   2.759  31.057  0.00  0.00    -0.250 OA
BRANCH  37  39
ATOM     39  O   UNL A   1     -25.081   4.216  32.164  0.00  0.00    -0.456 OA
BRANCH  39  41
ATOM     40  C   UNL A   1     -27.225   5.074  32.571  0.00  0.00    +0.044 C 
ATOM     41  C   UNL A   1     -25.790   5.327  32.184  0.00  0.00    +0.136 C 
ATOM     42  C   UNL A   1     -25.154   6.362  33.098  0.00  0.00    +0.044 C 
ATOM     43  C   UNL A   1     -25.826   5.965  30.824  0.00  0.00    +0.044 C 
ENDBRANCH  39  41
ENDBRANCH  37  39
ENDBRANCH  36  37
ENDBRANCH  32  36
ENDBRANCH  24  31
ENDBRANCH  23  24
ENDBRANCH   1  23
TORSDOF 17
