MODEL 4420
MODEL 1
REMARK VINA RESULT:    -6.473      0.000      0.000
REMARK INTER + INTRA:          -7.051
REMARK INTER:                  -6.852
REMARK INTRA:                  -0.199
REMARK UNBOUND:                -0.199
REMARK  Name = No_4420-gen_results/8p0m/2024-11-27-11-27-31/
REMARK  1 active torsions:
REMARK  status: ('A' for Active; 'I' for Inactive)
REMARK    1  A    between atoms: C_9  and  C_11
REMARK                            x       y       z     vdW  Elec       q    Type
REMARK                         _______ _______ _______ _____ _____    ______ ____
ROOT
ATOM      1  C   UNL A   1     -26.474  -3.331  30.006  0.00  0.00    -0.000 A 
ATOM      2  C   UNL A   1     -25.537  -2.571  29.927  0.00  0.00    -0.000 A 
ATOM      3  C   UNL A   1     -24.318  -2.986  29.403  0.00  0.00    -0.000 A 
ATOM      4  C   UNL A   1     -24.119  -4.348  28.979  0.00  0.00    -0.000 A 
ATOM      5  C   UNL A   1     -25.247  -5.165  29.127  0.00  0.00    -0.000 A 
ATOM      6  C   UNL A   1     -26.372  -4.728  29.645  0.00  0.00    -0.000 A 
ATOM      7  C   UNL A   1     -25.554  -1.142  30.341  0.00  0.00    -0.000 A 
ATOM      8  C   UNL A   1     -24.844  -0.235  29.768  0.00  0.00    +0.004 A 
ATOM      9  C   UNL A   1     -23.516  -0.660  29.153  0.00  0.00    +0.071 A 
ATOM     10  C   UNL A   1     -23.334  -2.007  28.866  0.00  0.00    +0.004 A 
ENDROOT
BRANCH   9  11
ATOM     11  C   UNL A   1     -22.517   0.330  28.773  0.00  0.00    +0.419 C 
ATOM     12  F   UNL A   1     -21.392  -0.049  28.851  0.00  0.00    -0.166 F 
ATOM     13  F   UNL A   1     -22.752   1.496  29.484  0.00  0.00    -0.166 F 
ATOM     14  F   UNL A   1     -22.720   0.713  27.448  0.00  0.00    -0.166 F 
ENDBRANCH   9  11
TORSDOF 1
ENDMDL
ENDMDL
