MODEL 4421
MODEL 1
REMARK VINA RESULT:    -6.814      0.000      0.000
REMARK INTER + INTRA:          -7.570
REMARK INTER:                  -7.212
REMARK INTRA:                  -0.357
REMARK UNBOUND:                -0.357
REMARK  Name = No_4421-gen_results/8p0m/2024-11-27-11-27-31/
REMARK  1 active torsions:
REMARK  status: ('A' for Active; 'I' for Inactive)
REMARK    1  A    between atoms: C_6  and  C_8
REMARK                            x       y       z     vdW  Elec       q    Type
REMARK                         _______ _______ _______ _____ _____    ______ ____
ROOT
ATOM      1  C   UNL A   1     -23.440   0.843  27.771  0.00  0.00    +0.030 A 
ATOM      2  C   UNL A   1     -22.308   0.960  28.181  0.00  0.00    +0.140 A 
ATOM      3  C   UNL A   1     -21.658   0.007  28.895  0.00  0.00    +0.030 A 
ATOM      4  C   UNL A   1     -22.337  -1.193  29.181  0.00  0.00    +0.002 A 
ATOM      5  C   UNL A   1     -24.159  -0.393  27.944  0.00  0.00    +0.002 A 
ATOM      6  C   UNL A   1     -23.561  -1.372  28.681  0.00  0.00    +0.000 A 
ATOM      7  F   UNL A   1     -21.664   2.068  27.746  0.00  0.00    -0.204 F 
ENDROOT
BRANCH   6   8
ATOM      8  C   UNL A   1     -24.316  -2.625  28.953  0.00  0.00    +0.000 A 
ATOM      9  C   UNL A   1     -24.037  -3.719  28.764  0.00  0.00    +0.000 A 
ATOM     10  C   UNL A   1     -24.869  -4.887  29.029  0.00  0.00    +0.000 A 
ATOM     11  C   UNL A   1     -25.646  -2.328  29.605  0.00  0.00    +0.000 A 
ATOM     12  C   UNL A   1     -26.504  -3.394  29.895  0.00  0.00    +0.000 A 
ATOM     13  C   UNL A   1     -26.114  -4.659  29.593  0.00  0.00    +0.000 A 
ENDBRANCH   6   8
TORSDOF 1
ENDMDL
ENDMDL
