MODEL 4422
MODEL 1
REMARK VINA RESULT:    -6.280      0.000      0.000
REMARK INTER + INTRA:          -9.333
REMARK INTER:                  -8.116
REMARK INTRA:                  -1.217
REMARK UNBOUND:                -1.217
REMARK  Name = No_4422-gen_results/8p0m/2024-11-27-11-27-31/
REMARK  5 active torsions:
REMARK  status: ('A' for Active; 'I' for Inactive)
REMARK    1  A    between atoms: C_2  and  C_13
REMARK    2  A    between atoms: C_8  and  C_9
REMARK    3  A    between atoms: C_9  and  C_10
REMARK    4  A    between atoms: C_10  and  C_16
REMARK    5  A    between atoms: C_17  and  C_18
REMARK                            x       y       z     vdW  Elec       q    Type
REMARK                         _______ _______ _______ _____ _____    ______ ____
ROOT
ATOM      1  C   UNL A   1     -27.949 -11.800  31.586  0.00  0.00    +0.007 A 
ATOM      2  C   UNL A   1     -28.180 -11.371  32.520  0.00  0.00    +0.080 A 
ATOM      3  C   UNL A   1     -28.802 -11.409  30.452  0.00  0.00    -0.000 A 
ATOM      4  C   UNL A   1     -28.787 -11.964  29.107  0.00  0.00    -0.004 A 
ATOM      5  C   UNL A   1     -29.093 -10.264  32.895  0.00  0.00    +0.007 A 
ATOM      6  C   UNL A   1     -29.931  -9.832  31.874  0.00  0.00    +0.000 A 
ATOM      7  C   UNL A   1     -29.814 -10.357  30.604  0.00  0.00    -0.000 A 
ATOM      8  C   UNL A   1     -29.966 -11.982  28.314  0.00  0.00    -0.022 A 
ATOM      9  C   UNL A   1     -30.735 -10.697  28.213  0.00  0.00    -0.004 A 
ATOM     10  C   UNL A   1     -30.749 -10.051  29.527  0.00  0.00    -0.000 A 
ENDROOT
BRANCH   2  11
ATOM     11  C   UNL A   1     -27.256 -11.757  33.766  0.00  0.00    +0.388 C 
ATOM     12  O   UNL A   1     -26.761 -12.787  33.809  0.00  0.00    -0.241 OA
ATOM     13  O   UNL A   1     -27.085 -10.890  34.734  0.00  0.00    -0.241 OA
ENDBRANCH   2  11
BRANCH   8  14
ATOM     14  C   UNL A   1     -30.279 -12.868  27.372  0.00  0.00    +0.031 C 
BRANCH  14  15
ATOM     15  C   UNL A   1     -30.728 -14.196  27.757  0.00  0.00    +0.031 C 
BRANCH  15  16
ATOM     16  C   UNL A   1     -31.185 -14.443  29.034  0.00  0.00    -0.026 C 
ATOM     17  C   UNL A   1     -30.281 -14.997  29.939  0.00  0.00    -0.005 C 
BRANCH  17  18
ATOM     18  C   UNL A   1     -30.675 -15.254  31.310  0.00  0.00    -0.000 C 
ATOM     19  C   UNL A   1     -30.495 -14.429  32.306  0.00  0.00    -0.000 C 
ENDBRANCH  17  18
ENDBRANCH  15  16
ENDBRANCH  14  15
ENDBRANCH   8  14
TORSDOF 5
ENDMDL
ENDMDL
