MODEL 4423
MODEL 1
REMARK VINA RESULT:    -4.633      0.000      0.000
REMARK INTER + INTRA:          -6.074
REMARK INTER:                  -5.716
REMARK INTRA:                  -0.358
REMARK UNBOUND:                -0.358
REMARK  Name = No_4423-gen_results/8p0m/2024-11-27-11-27-31/
REMARK  4 active torsions:
REMARK  status: ('A' for Active; 'I' for Inactive)
REMARK    1  A    between atoms: C_2  and  C_3
REMARK    2  A    between atoms: C_3  and  C_4
REMARK    3  A    between atoms: C_5  and  C_6
REMARK    4  A    between atoms: C_6  and  C_7
REMARK                            x       y       z     vdW  Elec       q    Type
REMARK                         _______ _______ _______ _____ _____    ______ ____
ROOT
ATOM      1  C   UNL A   1     -24.268  -1.636  28.776  0.00  0.00    -0.026 C 
ATOM      2  C   UNL A   1     -22.934  -1.540  29.242  0.00  0.00    -0.026 C 
ENDROOT
BRANCH   1   3
ATOM      3  C   UNL A   1     -24.854  -2.946  28.630  0.00  0.00    +0.052 C 
BRANCH   3   5
ATOM      4  C   UNL A   1     -24.786  -5.228  28.942  0.00  0.00    -0.005 C 
ATOM      5  C   UNL A   1     -24.229  -4.157  28.875  0.00  0.00    -0.021 C 
ENDBRANCH   3   5
ENDBRANCH   1   3
BRANCH   2   6
ATOM      6  C   UNL A   1     -22.203  -0.337  29.428  0.00  0.00    +0.051 C 
BRANCH   6   7
ATOM      7  C   UNL A   1     -21.174  -0.002  28.575  0.00  0.00    -0.026 C 
ATOM      8  C   UNL A   1     -21.325   1.126  27.736  0.00  0.00    -0.030 C 
ATOM      9  C   UNL A   1     -22.502   1.821  27.595  0.00  0.00    +0.030 C 
ENDBRANCH   6   7
ENDBRANCH   2   6
TORSDOF 4
ENDMDL
ENDMDL
