REMARK  Name = outputs/IAG933/test6/raw/output_4423_IAG933_linker_design_.xyz
REMARK  7 active torsions:
REMARK  status: ('A' for Active; 'I' for Inactive)
REMARK    1  A    between atoms: C_1  and  C_2
REMARK    2  A    between atoms: C_1  and  C_8
REMARK    3  A    between atoms: C_1  and  C_44
REMARK    4  A    between atoms: C_14  and  C_15
REMARK    5  A    between atoms: C_33  and  C_43
REMARK    6  A    between atoms: N_37  and  C_41
REMARK    7  A    between atoms: N_37  and  C_43
REMARK                            x       y       z     vdW  Elec       q    Type
REMARK                         _______ _______ _______ _____ _____    ______ ____
ROOT
ATOM      1  C   UNL A   1     -25.688   1.614  26.461  0.00  0.00    +0.038 C 
ATOM      2  C   UNL A   1     -26.250   2.920  26.395  0.00  0.00    +0.076 C 
ATOM      3  C   UNL A   1     -27.438   3.091  25.645  0.00  0.00    +0.107 C 
ATOM      4  N   UNL A   1     -28.075   2.089  25.003  0.00  0.00    -0.208 NA
ATOM      5  C   UNL A   1     -27.543   0.849  25.079  0.00  0.00    +0.253 C 
ATOM      6  O   UNL A   1     -28.193  -0.208  24.477  0.00  0.00    -0.456 OA
ATOM      7  C   UNL A   1     -29.460   0.005  23.866  0.00  0.00    +0.239 C 
ATOM      8  C   UNL A   1     -30.065  -1.377  23.573  0.00  0.00    +0.190 C 
ATOM      9  O   UNL A   1     -30.729  -1.878  24.721  0.00  0.00    -0.347 OA
ATOM     10  C   UNL A   1     -26.354   0.576  25.777  0.00  0.00    +0.193 C 
ATOM     11  F   UNL A   1     -25.860  -0.681  25.795  0.00  0.00    -0.199 F 
ATOM     12  C   UNL A   1     -24.528   1.317  27.256  0.00  0.00    +0.003 C 
ATOM     13  C   UNL A   1     -25.223   0.686  28.446  0.00  0.00    +0.001 C 
ATOM     14  C   UNL A   1     -22.447   1.037  27.750  0.00  0.00    +0.140 C 
ATOM     15  C   UNL A   1     -27.491  -0.365  28.724  0.00  0.00    +0.096 C 
ATOM     16  C   UNL A   1     -28.356   1.821  30.067  0.00  0.00    +0.288 C 
ATOM     17  C   UNL A   1     -22.794   0.273  28.870  0.00  0.00    +0.025 C 
ATOM     18  C   UNL A   1     -31.362  -0.845  25.821  0.00  0.00    +0.174 C 
ATOM     19  O   UNL A   1     -29.222   1.155  29.427  0.00  0.00    -0.294 OA
ATOM     20  C   UNL A   1     -23.389   1.424  26.792  0.00  0.00    +0.029 C 
ATOM     21  C   UNL A   1     -26.503   0.760  28.843  0.00  0.00    +0.146 C 
ATOM     22  O   UNL A   1     -29.749  -0.256  27.549  0.00  0.00    -0.328 OA
ATOM     23  C   UNL A   1     -24.208  -0.005  29.167  0.00  0.00    -0.017 C 
ATOM     24  F   UNL A   1     -21.180   1.443  27.584  0.00  0.00    -0.204 F 
ATOM     25  O   UNL A   1     -27.020   1.908  29.422  0.00  0.00    -0.317 OA
ATOM     26  C   UNL A   1     -28.970   0.070  28.539  0.00  0.00    +0.241 C 
ATOM     27  C   UNL A   1     -31.076  -0.746  27.378  0.00  0.00    +0.177 C 
ATOM     28  N   UNL A   1     -28.177   1.756  31.569  0.00  0.00    -0.074 NA
ENDROOT
BRANCH   2  29
ATOM     29  C   UNL A   1     -25.642   4.093  27.123  0.00  0.00    +0.266 C 
ATOM     30  N   UNL A   1     -25.614   5.252  26.449  0.00  0.00    -0.200 NA
ATOM     31  C   UNL A   1     -25.026   6.479  26.963  0.00  0.00    +0.139 C 
ATOM     32  O   UNL A   1     -25.143   3.966  28.243  0.00  0.00    -0.268 OA
ENDBRANCH   2  29
BRANCH  23  33
ATOM     33  C   UNL A   1     -24.855  -1.012  30.143  0.00  0.00    +0.060 C 
BRANCH  33  34
ATOM     34  C   UNL A   1     -24.973  -2.505  29.788  0.00  0.00    -0.017 C 
ATOM     35  C   UNL A   1     -23.906  -3.173  29.146  0.00  0.00    -0.004 C 
ATOM     36  C   UNL A   1     -23.989  -4.549  28.853  0.00  0.00    -0.000 C 
ATOM     37  C   UNL A   1     -25.137  -5.280  29.205  0.00  0.00    -0.000 C 
ATOM     38  C   UNL A   1     -26.232  -4.611  29.784  0.00  0.00    -0.000 C 
ATOM     39  C   UNL A   1     -26.155  -3.232  30.065  0.00  0.00    -0.004 C 
ENDBRANCH  33  34
BRANCH  33  40
ATOM     40  C   UNL A   1     -25.387  -0.679  31.571  0.00  0.00    +0.081 C 
ATOM     41  C   UNL A   1     -25.189   0.773  32.028  0.00  0.00    +0.019 C 
ATOM     42  C   UNL A   1     -25.336   0.684  33.544  0.00  0.00    +0.020 C 
ATOM     43  C   UNL A   1     -24.829  -0.715  33.905  0.00  0.00    +0.089 C 
ATOM     44  N   UNL A   1     -24.758  -1.481  32.646  0.00  0.00    -0.219 NA
ENDBRANCH  33  40
ENDBRANCH  23  33
BRANCH  16  45
ATOM     45  C   UNL A   1     -29.117   3.205  29.989  0.00  0.00    +0.150 C 
BRANCH  45  47
ATOM     46  C   UNL A   1     -31.247   2.652  29.847  0.00  0.00    +0.090 C 
ATOM     47  N   UNL A   1     -30.213   3.349  29.047  0.00  0.00    -0.266 NA
BRANCH  47  49
ATOM     48  C   UNL A   1     -30.579   4.464  26.880  0.00  0.00    +0.019 C 
ATOM     49  C   UNL A   1     -29.589   3.550  27.692  0.00  0.00    +0.072 C 
ENDBRANCH  47  49
ENDBRANCH  45  47
ENDBRANCH  16  45
TORSDOF 7
