MODEL 4424
MODEL 1
REMARK VINA RESULT:    -7.835      0.000      0.000
REMARK INTER + INTRA:         -10.704
REMARK INTER:                  -9.667
REMARK INTRA:                  -1.037
REMARK UNBOUND:                -1.037
REMARK  Name = No_4424-gen_results/8p0m/2024-11-27-11-27-31/
REMARK  4 active torsions:
REMARK  status: ('A' for Active; 'I' for Inactive)
REMARK    1  A    between atoms: C_2  and  C_5
REMARK    2  A    between atoms: C_3  and  C_19
REMARK    3  A    between atoms: C_11  and  C_25
REMARK    4  A    between atoms: C_25  and  C_27
REMARK                            x       y       z     vdW  Elec       q    Type
REMARK                         _______ _______ _______ _____ _____    ______ ____
ROOT
ATOM      1  C   UNL A   1     -24.094   1.609  26.103  0.00  0.00    +0.266 C 
ATOM      2  O   UNL A   1     -23.341   1.902  25.176  0.00  0.00    -0.268 OA
ATOM      3  N   UNL A   1     -25.202   2.534  26.251  0.00  0.00    -0.186 N 
ATOM      4  C   UNL A   1     -26.102   2.407  27.338  0.00  0.00    +0.123 C 
ATOM      5  C   UNL A   1     -26.144   3.361  28.262  0.00  0.00    +0.063 C 
ATOM      6  C   UNL A   1     -25.788   4.620  28.024  0.00  0.00    -0.003 A 
ATOM      7  C   UNL A   1     -25.723   5.620  28.956  0.00  0.00    -0.003 A 
ATOM      8  C   UNL A   1     -25.102   6.844  28.651  0.00  0.00    -0.000 A 
ATOM      9  C   UNL A   1     -24.539   7.082  27.327  0.00  0.00    +0.001 A 
ATOM     10  C   UNL A   1     -24.558   6.046  26.429  0.00  0.00    +0.018 A 
ATOM     11  C   UNL A   1     -25.094   4.792  26.799  0.00  0.00    +0.084 A 
ATOM     12  N   UNL A   1     -24.855   3.746  25.941  0.00  0.00    -0.145 NA
ENDROOT
BRANCH   1  14
ATOM     13  C   UNL A   1     -24.309  -0.211  27.395  0.00  0.00    +0.005 A 
ATOM     14  C   UNL A   1     -23.746   0.675  27.301  0.00  0.00    +0.055 A 
ATOM     15  C   UNL A   1     -23.948  -1.012  28.565  0.00  0.00    +0.000 A 
ATOM     16  C   UNL A   1     -22.977  -0.614  29.451  0.00  0.00    +0.000 A 
ATOM     17  C   UNL A   1     -22.337   0.613  29.200  0.00  0.00    +0.000 A 
ATOM     18  C   UNL A   1     -22.742   1.374  28.102  0.00  0.00    +0.005 A 
BRANCH  15  19
ATOM     19  C   UNL A   1     -24.602  -2.362  28.798  0.00  0.00    +0.000 A 
ATOM     20  C   UNL A   1     -25.768  -2.444  29.273  0.00  0.00    +0.000 A 
ATOM     21  C   UNL A   1     -26.306  -3.504  29.787  0.00  0.00    +0.000 A 
ATOM     22  C   UNL A   1     -25.698  -4.787  29.438  0.00  0.00    +0.000 A 
ATOM     23  C   UNL A   1     -23.966  -3.574  28.597  0.00  0.00    +0.000 A 
ATOM     24  C   UNL A   1     -24.503  -4.721  28.879  0.00  0.00    +0.000 A 
ENDBRANCH  15  19
ENDBRANCH   1  14
BRANCH   5  25
ATOM     25  C   UNL A   1     -26.954   3.072  29.526  0.00  0.00    +0.127 C 
ATOM     26 BR   UNL A   1     -27.955   3.224  29.738  0.00  0.00    -0.073 Br
BRANCH  25  27
ATOM     27  C   UNL A   1     -25.992   2.183  30.367  0.00  0.00    +0.219 C 
ATOM     28  O   UNL A   1     -24.903   2.662  30.643  0.00  0.00    -0.287 OA
ENDBRANCH  25  27
ENDBRANCH   5  25
TORSDOF 4
ENDMDL
ENDMDL
