MODEL 4425
MODEL 1
REMARK VINA RESULT:    -6.303      0.000      0.000
REMARK INTER + INTRA:          -8.530
REMARK INTER:                  -7.777
REMARK INTRA:                  -0.753
REMARK UNBOUND:                -0.753
REMARK  Name = No_4425-gen_results/8p0m/2024-11-27-11-27-31/
REMARK  4 active torsions:
REMARK  status: ('A' for Active; 'I' for Inactive)
REMARK    1  A    between atoms: C_3  and  C_7
REMARK    2  A    between atoms: C_7  and  C_8
REMARK    3  A    between atoms: C_8  and  C_9
REMARK    4  A    between atoms: C_14  and  O_15
REMARK                            x       y       z     vdW  Elec       q    Type
REMARK                         _______ _______ _______ _____ _____    ______ ____
ROOT
ATOM      1  C   UNL A   1     -23.640  -1.024  30.138  0.00  0.00    +0.034 C 
ENDROOT
BRANCH   1   2
ATOM      2  C   UNL A   1     -24.301  -2.215  30.043  0.00  0.00    +0.012 A 
ATOM      3  C   UNL A   1     -23.835  -3.223  29.153  0.00  0.00    -0.001 A 
ATOM      4  C   UNL A   1     -24.589  -4.442  28.997  0.00  0.00    -0.000 A 
ATOM      5  C   UNL A   1     -25.940  -4.455  29.338  0.00  0.00    +0.003 A 
ATOM      6  C   UNL A   1     -26.442  -3.433  30.103  0.00  0.00    +0.037 A 
ATOM      7  C   UNL A   1     -25.712  -2.347  30.407  0.00  0.00    +0.135 A 
BRANCH   7   8
ATOM      8  O   UNL A   1     -26.395  -1.731  29.499  0.00  0.00    -0.472 OA
ATOM      9  C   UNL A   1     -27.226  -0.832  29.323  0.00  0.00    +0.253 C 
ENDBRANCH   7   8
ENDBRANCH   1   2
BRANCH   1  10
ATOM     10  C   UNL A   1     -22.534  -0.684  29.262  0.00  0.00    +0.031 C 
BRANCH  10  13
ATOM     11  C   UNL A   1     -21.748   1.252  27.821  0.00  0.00    -0.004 A 
ATOM     12  C   UNL A   1     -21.915   1.882  26.993  0.00  0.00    -0.000 A 
ATOM     13  C   UNL A   1     -22.793   0.319  28.129  0.00  0.00    -0.022 A 
ATOM     14  C   UNL A   1     -23.986   0.336  27.528  0.00  0.00    -0.004 A 
ATOM     15  C   UNL A   1     -23.128   2.085  26.214  0.00  0.00    -0.000 A 
ATOM     16  C   UNL A   1     -24.113   1.245  26.502  0.00  0.00    -0.000 A 
ENDBRANCH  10  13
ENDBRANCH   1  10
TORSDOF 4
ENDMDL
ENDMDL
