MODEL 4426
MODEL 1
REMARK VINA RESULT:    -7.877      0.000      0.000
REMARK INTER + INTRA:         -10.655
REMARK INTER:                  -9.259
REMARK INTRA:                  -1.396
REMARK UNBOUND:                -1.396
REMARK  Name = No_4426-gen_results/8p0m/2024-11-27-11-27-31/
REMARK  3 active torsions:
REMARK  status: ('A' for Active; 'I' for Inactive)
REMARK    1  A    between atoms: C_3  and  C_10
REMARK    2  A    between atoms: C_5  and  C_7
REMARK    3  A    between atoms: C_11  and  C_16
REMARK                            x       y       z     vdW  Elec       q    Type
REMARK                         _______ _______ _______ _____ _____    ______ ____
ROOT
ATOM      1  C   UNL A   1     -23.293  -0.194  28.213  0.00  0.00    +0.000 A 
ATOM      2  C   UNL A   1     -23.898   0.683  27.213  0.00  0.00    +0.000 A 
ATOM      3  C   UNL A   1     -23.012   1.673  26.732  0.00  0.00    +0.000 A 
ATOM      4  C   UNL A   1     -21.703   1.834  27.263  0.00  0.00    +0.000 A 
ATOM      5  C   UNL A   1     -22.016   0.137  28.636  0.00  0.00    +0.000 A 
ATOM      6  C   UNL A   1     -21.248   1.018  28.208  0.00  0.00    +0.000 A 
ENDROOT
BRANCH   1   9
ATOM      7  C   UNL A   1     -25.897  -1.582  30.406  0.00  0.00    +0.000 A 
ATOM      8  C   UNL A   1     -25.215  -0.826  29.755  0.00  0.00    +0.000 A 
ATOM      9  C   UNL A   1     -24.245  -1.211  28.844  0.00  0.00    +0.000 A 
ATOM     10  C   UNL A   1     -24.064  -2.611  28.643  0.00  0.00    +0.007 A 
ATOM     11  C   UNL A   1     -24.939  -3.423  29.257  0.00  0.00    +0.080 A 
ATOM     12  C   UNL A   1     -25.852  -2.967  30.066  0.00  0.00    +0.007 A 
BRANCH  11  13
ATOM     13  C   UNL A   1     -24.737  -4.870  28.995  0.00  0.00    +0.388 C 
ATOM     14  O   UNL A   1     -25.287  -5.611  29.594  0.00  0.00    -0.241 OA
ATOM     15  O   UNL A   1     -23.824  -5.270  28.122  0.00  0.00    -0.241 OA
ENDBRANCH  11  13
ENDBRANCH   1   9
BRANCH   2  16
ATOM     16  C   UNL A   1     -25.172   0.562  26.621  0.00  0.00    +0.000 A 
ATOM     17  C   UNL A   1     -26.157   1.393  27.011  0.00  0.00    +0.000 A 
ATOM     18  C   UNL A   1     -25.388  -0.449  25.638  0.00  0.00    +0.000 A 
ATOM     19  C   UNL A   1     -26.024  -0.225  24.677  0.00  0.00    +0.000 A 
ATOM     20  C   UNL A   1     -27.241   1.584  26.052  0.00  0.00    +0.000 A 
ATOM     21  C   UNL A   1     -27.275   0.750  24.865  0.00  0.00    +0.000 A 
ENDBRANCH   2  16
TORSDOF 3
ENDMDL
ENDMDL
