REMARK  Name = outputs/IAG933/test6/raw/output_4426_IAG933_linker_design_.xyz
REMARK  12 active torsions:
REMARK  status: ('A' for Active; 'I' for Inactive)
REMARK    1  A    between atoms: C_1  and  C_2
REMARK    2  A    between atoms: C_13  and  C_45
REMARK    3  A    between atoms: C_14  and  C_15
REMARK    4  A    between atoms: C_21  and  O_22
REMARK    5  A    between atoms: O_22  and  C_23
REMARK    6  A    between atoms: C_23  and  C_24
REMARK    7  A    between atoms: CA_31  and  N_35
REMARK    8  A    between atoms: CA_31  and  C_42
REMARK    9  A    between atoms: CA_31  and  C_44
REMARK   10  A    between atoms: S_32  and  C_45
REMARK   11  A    between atoms: C_38  and  C_45
REMARK   12  A    between atoms: C_39  and  C_47
REMARK                            x       y       z     vdW  Elec       q    Type
REMARK                         _______ _______ _______ _____ _____    ______ ____
ROOT
ATOM      1  C   UNL A   1     -24.855  -1.012  30.143  0.00  0.00    +0.038 C 
ATOM      2  C   UNL A   1     -25.387  -0.679  31.571  0.00  0.00    +0.079 C 
ATOM      3  C   UNL A   1     -25.189   0.773  32.028  0.00  0.00    +0.045 C 
ATOM      4  C   UNL A   1     -25.336   0.684  33.544  0.00  0.00    +0.023 C 
ATOM      5  C   UNL A   1     -24.829  -0.715  33.905  0.00  0.00    +0.089 C 
ATOM      6  N   UNL A   1     -24.758  -1.481  32.646  0.00  0.00    -0.219 NA
ATOM      7  O   UNL A   1     -25.495   2.132  30.134  0.00  0.00    -0.356 OA
ATOM      8  C   UNL A   1     -25.312  -0.306  28.893  0.00  0.00    +0.009 C 
ATOM      9  C   UNL A   1     -24.124   0.561  28.571  0.00  0.00    +0.043 C 
ATOM     10  C   UNL A   1     -25.114   2.288  31.577  0.00  0.00    +0.119 C 
ATOM     11  C   UNL A   1     -24.479   1.806  29.370  0.00  0.00    +0.143 C 
ENDROOT
BRANCH   1  12
ATOM     12  C   UNL A   1     -24.973  -2.505  29.788  0.00  0.00    -0.021 C 
ATOM     13  C   UNL A   1     -23.906  -3.173  29.146  0.00  0.00    -0.004 C 
ATOM     14  C   UNL A   1     -23.989  -4.549  28.853  0.00  0.00    -0.000 C 
ATOM     15  C   UNL A   1     -25.137  -5.280  29.205  0.00  0.00    -0.000 C 
ATOM     16  C   UNL A   1     -26.232  -4.611  29.784  0.00  0.00    -0.000 C 
ATOM     17  C   UNL A   1     -26.155  -3.232  30.065  0.00  0.00    -0.004 C 
ENDBRANCH   1  12
BRANCH  10  22
ATOM     18  C   UNL A   1     -27.733   4.168  31.843  0.00  0.00    +0.144 C 
ATOM     19  C   UNL A   1     -26.646   2.783  32.772  0.00  0.00    +0.145 C 
ATOM     20  O   UNL A   1     -27.643   2.810  31.959  0.00  0.00    -0.354 OA
ATOM     21  C   UNL A   1     -26.252   4.491  31.699  0.00  0.00    +0.057 C 
ATOM     22  C   UNL A   1     -25.680   3.490  32.456  0.00  0.00    +0.061 C 
BRANCH  21  23
ATOM     23  CA  UNL A   1     -25.570   5.859  32.031  0.00  0.00    +0.131 C 
BRANCH  23  26
ATOM     24  C   UNL A   1     -27.408   7.308  32.685  0.00  0.00    +0.320 C 
ATOM     25  O   UNL A   1     -27.561   6.792  33.830  0.00  0.00    -0.263 OA
ATOM     26  N   UNL A   1     -26.340   6.988  31.894  0.00  0.00    -0.197 NA
ENDBRANCH  23  26
BRANCH  23  27
ATOM     27  C   UNL A   1     -24.587   5.745  33.072  0.00  0.00    +0.204 C 
ATOM     28  O   UNL A   1     -23.409   5.245  32.594  0.00  0.00    -0.218 OA
ENDBRANCH  23  27
ENDBRANCH  21  23
ENDBRANCH  10  22
BRANCH   9  29
ATOM     29  C   UNL A   1     -24.409   1.170  27.143  0.00  0.00    +0.066 C 
BRANCH  29  30
ATOM     30  C   UNL A   1     -25.688   1.614  26.461  0.00  0.00    +0.025 C 
ATOM     31  C   UNL A   1     -26.250   2.920  26.395  0.00  0.00    +0.073 C 
ATOM     32  C   UNL A   1     -27.438   3.091  25.645  0.00  0.00    +0.106 C 
ATOM     33  N   UNL A   1     -28.075   2.089  25.003  0.00  0.00    -0.208 NA
ATOM     34  C   UNL A   1     -27.543   0.849  25.079  0.00  0.00    +0.253 C 
ATOM     35  C   UNL A   1     -26.354   0.576  25.777  0.00  0.00    +0.190 C 
ATOM     36  F   UNL A   1     -25.860  -0.681  25.795  0.00  0.00    -0.200 F 
BRANCH  31  37
ATOM     37  C   UNL A   1     -25.642   4.093  27.123  0.00  0.00    +0.266 C 
ATOM     38  N   UNL A   1     -25.614   5.252  26.449  0.00  0.00    -0.200 NA
ATOM     39  C   UNL A   1     -25.026   6.479  26.963  0.00  0.00    +0.139 C 
ATOM     40  O   UNL A   1     -25.143   3.966  28.243  0.00  0.00    -0.268 OA
ENDBRANCH  31  37
BRANCH  34  41
ATOM     41  O   UNL A   1     -28.193  -0.208  24.477  0.00  0.00    -0.456 OA
BRANCH  41  42
ATOM     42  C   UNL A   1     -29.460   0.005  23.866  0.00  0.00    +0.243 C 
BRANCH  42  43
ATOM     43  C   UNL A   1     -30.065  -1.377  23.573  0.00  0.00    +0.229 C 
ATOM     44  O   UNL A   1     -30.729  -1.878  24.721  0.00  0.00    -0.216 OA
ENDBRANCH  42  43
ENDBRANCH  41  42
ENDBRANCH  34  41
ENDBRANCH  29  30
BRANCH  29  45
ATOM     45  S   UNL A   1     -22.928   2.273  26.941  0.00  0.00    -0.174 S 
ATOM     46  C   UNL A   1     -21.539   1.681  27.646  0.00  0.00    +0.059 C 
ATOM     47  C   UNL A   1     -22.735   2.374  25.256  0.00  0.00    +0.059 C 
ENDBRANCH  29  45
ENDBRANCH   9  29
TORSDOF 12
