MODEL 4427
MODEL 1
REMARK VINA RESULT:    -7.046      0.000      0.000
REMARK INTER + INTRA:          -7.657
REMARK INTER:                  -7.458
REMARK INTRA:                  -0.199
REMARK UNBOUND:                -0.199
REMARK  Name = No_4427-gen_results/8p0m/2024-11-27-11-27-31/
REMARK  1 active torsions:
REMARK  status: ('A' for Active; 'I' for Inactive)
REMARK    1  A    between atoms: C_5  and  C_10
REMARK                            x       y       z     vdW  Elec       q    Type
REMARK                         _______ _______ _______ _____ _____    ______ ____
ROOT
ATOM      1  C   UNL A   1     -24.306  -0.173  30.352  0.00  0.00    +0.117 C 
ATOM      2  C   UNL A   1     -24.094   0.400  29.309  0.00  0.00    -0.006 A 
ATOM      3  C   UNL A   1     -25.067   0.642  28.358  0.00  0.00    -0.003 A 
ATOM      4  C   UNL A   1     -24.848   1.255  27.061  0.00  0.00    +0.004 A 
ATOM      5  C   UNL A   1     -23.541   1.661  26.713  0.00  0.00    +0.071 A 
ATOM      6  C   UNL A   1     -22.515   1.401  27.690  0.00  0.00    -0.001 A 
ATOM      7  C   UNL A   1     -22.739   0.785  28.898  0.00  0.00    -0.025 A 
ATOM      8  N   UNL A   1     -25.261   0.376  31.161  0.00  0.00    -0.201 NA
ATOM      9  C   UNL A   1     -25.332   0.037  32.463  0.00  0.00    +0.272 C 
ATOM     10  C   UNL A   1     -24.289  -0.665  33.012  0.00  0.00    +0.229 C 
ATOM     11  C   UNL A   1     -23.190  -1.103  32.250  0.00  0.00    +0.044 C 
ATOM     12  C   UNL A   1     -23.098  -0.653  30.990  0.00  0.00    +0.028 C 
ATOM     13  O   UNL A   1     -26.337   0.345  33.148  0.00  0.00    -0.271 OA
ATOM     14  C   UNL A   1     -21.912  -0.891  30.195  0.00  0.00    +0.007 C 
ATOM     15  C   UNL A   1     -21.742  -0.468  29.181  0.00  0.00    +0.026 C 
ATOM     16  O   UNL A   1     -24.397  -1.072  34.297  0.00  0.00    -0.213 OA
ENDROOT
BRANCH   5  17
ATOM     17  C   UNL A   1     -23.238   2.274  25.459  0.00  0.00    +0.419 C 
ATOM     18  F   UNL A   1     -23.639   3.370  25.306  0.00  0.00    -0.166 F 
ATOM     19  F   UNL A   1     -21.916   2.291  25.141  0.00  0.00    -0.166 F 
ATOM     20  F   UNL A   1     -23.639   1.390  24.415  0.00  0.00    -0.166 F 
ENDBRANCH   5  17
TORSDOF 1
ENDMDL
ENDMDL
