REMARK  Name = outputs/IAG933/test6/raw/output_4427_IAG933_linker_design_.xyz
REMARK  6 active torsions:
REMARK  status: ('A' for Active; 'I' for Inactive)
REMARK    1  A    between atoms: C_1  and  C_2
REMARK    2  A    between atoms: C_13  and  C_38
REMARK    3  A    between atoms: C_14  and  C_15
REMARK    4  A    between atoms: C_21  and  O_22
REMARK    5  A    between atoms: O_22  and  C_23
REMARK    6  A    between atoms: C_23  and  C_24
REMARK                            x       y       z     vdW  Elec       q    Type
REMARK                         _______ _______ _______ _____ _____    ______ ____
ROOT
ATOM      1  C   UNL A   1     -24.855  -1.012  30.143  0.00  0.00    +0.204 C 
ATOM      2  C   UNL A   1     -25.387  -0.679  31.571  0.00  0.00    +0.126 C 
ATOM      3  C   UNL A   1     -25.189   0.773  32.028  0.00  0.00    +0.100 C 
ATOM      4  C   UNL A   1     -25.336   0.684  33.544  0.00  0.00    +0.029 C 
ATOM      5  C   UNL A   1     -24.829  -0.715  33.905  0.00  0.00    +0.089 C 
ATOM      6  N   UNL A   1     -24.758  -1.481  32.646  0.00  0.00    -0.215 NA
ATOM      7  C   UNL A   1     -21.791   1.344  27.703  0.00  0.00    +0.141 C 
ATOM      8  C   UNL A   1     -22.047   1.908  26.461  0.00  0.00    +0.029 C 
ATOM      9  C   UNL A   1     -22.650   0.650  29.926  0.00  0.00    +0.147 C 
ATOM     10  O   UNL A   1     -24.788   3.141  31.502  0.00  0.00    -0.273 OA
ATOM     11  F   UNL A   1     -20.531   1.333  28.195  0.00  0.00    -0.204 F 
ATOM     12  N   UNL A   1     -23.423   1.739  30.519  0.00  0.00    -0.200 NA
ATOM     13  C   UNL A   1     -24.062   0.678  28.006  0.00  0.00    +0.135 C 
ATOM     14  C   UNL A   1     -24.437   2.036  31.310  0.00  0.00    +0.243 C 
ATOM     15  C   UNL A   1     -23.359   1.932  26.015  0.00  0.00    +0.001 C 
ATOM     16  C   UNL A   1     -22.826   0.833  28.514  0.00  0.00    +0.061 C 
ATOM     17  C   UNL A   1     -24.370   1.409  26.839  0.00  0.00    +0.019 C 
ATOM     18  O   UNL A   1     -24.949  -0.213  28.830  0.00  0.00    -0.474 OA
ENDROOT
BRANCH  17  19
ATOM     19  C   UNL A   1     -25.688   1.614  26.461  0.00  0.00    +0.095 C 
ATOM     20  C   UNL A   1     -26.250   2.920  26.395  0.00  0.00    +0.059 C 
ATOM     21  C   UNL A   1     -27.438   3.091  25.645  0.00  0.00    +0.102 C 
ATOM     22  N   UNL A   1     -28.075   2.089  25.003  0.00  0.00    -0.212 NA
ATOM     23  C   UNL A   1     -27.543   0.849  25.079  0.00  0.00    +0.234 C 
ATOM     24  C   UNL A   1     -26.354   0.576  25.777  0.00  0.00    +0.244 C 
ATOM     25  F   UNL A   1     -25.860  -0.681  25.795  0.00  0.00    -0.227 F 
BRANCH  20  26
ATOM     26  C   UNL A   1     -25.642   4.093  27.123  0.00  0.00    +0.263 C 
ATOM     27  N   UNL A   1     -25.614   5.252  26.449  0.00  0.00    -0.200 NA
ATOM     28  C   UNL A   1     -25.026   6.479  26.963  0.00  0.00    +0.139 C 
ATOM     29  O   UNL A   1     -25.143   3.966  28.243  0.00  0.00    -0.269 OA
ENDBRANCH  20  26
BRANCH  23  30
ATOM     30  O   UNL A   1     -28.193  -0.208  24.477  0.00  0.00    -0.459 OA
BRANCH  30  31
ATOM     31  C   UNL A   1     -29.460   0.005  23.866  0.00  0.00    +0.242 C 
BRANCH  31  32
ATOM     32  C   UNL A   1     -30.065  -1.377  23.573  0.00  0.00    +0.229 C 
ATOM     33  O   UNL A   1     -30.729  -1.878  24.721  0.00  0.00    -0.216 OA
ENDBRANCH  31  32
ENDBRANCH  30  31
ENDBRANCH  23  30
ENDBRANCH  17  19
BRANCH   1  34
ATOM     34  C   UNL A   1     -24.973  -2.505  29.788  0.00  0.00    +0.019 C 
ATOM     35  C   UNL A   1     -23.906  -3.173  29.146  0.00  0.00    -0.001 C 
ATOM     36  C   UNL A   1     -23.989  -4.549  28.853  0.00  0.00    -0.000 C 
ATOM     37  C   UNL A   1     -25.137  -5.280  29.205  0.00  0.00    -0.000 C 
ATOM     38  C   UNL A   1     -26.232  -4.611  29.784  0.00  0.00    -0.000 C 
ATOM     39  C   UNL A   1     -26.155  -3.232  30.065  0.00  0.00    -0.001 C 
ENDBRANCH   1  34
TORSDOF 6
