REMARK  Name = outputs/IAG933/test6/raw/output_4429_IAG933_linker_design_.xyz
REMARK  14 active torsions:
REMARK  status: ('A' for Active; 'I' for Inactive)
REMARK    1  A    between atoms: C_1  and  C_2
REMARK    2  A    between atoms: C_1  and  C_8
REMARK    3  A    between atoms: C_9  and  C_33
REMARK    4  A    between atoms: C_13  and  C_31
REMARK    5  A    between atoms: C_14  and  C_15
REMARK    6  A    between atoms: C_21  and  O_22
REMARK    7  A    between atoms: O_22  and  C_23
REMARK    8  A    between atoms: C_23  and  C_24
REMARK    9  A    between atoms: C_29  and  C_33
REMARK   10  A    between atoms: C_30  and  C_31
REMARK   11  A    between atoms: C_30  and  C_38
REMARK   12  A    between atoms: C_31  and  N_40
REMARK   13  A    between atoms: C_33  and  C_39
REMARK   14  A    between atoms: C_39  and  N_40
REMARK                            x       y       z     vdW  Elec       q    Type
REMARK                         _______ _______ _______ _____ _____    ______ ____
ROOT
ATOM      1  C   UNL A   1     -23.776   1.728  29.841  0.00  0.00    +0.089 C 
ENDROOT
BRANCH   1   2
ATOM      2  C   UNL A   1     -24.631   1.739  31.164  0.00  0.00    +0.020 C 
BRANCH   2   3
ATOM      3  C   UNL A   1     -25.249   3.107  31.288  0.00  0.00    +0.019 C 
ATOM      4  C   UNL A   1     -27.603   4.024  31.743  0.00  0.00    +0.058 C 
ATOM      5  C   UNL A   1     -25.242   4.064  32.466  0.00  0.00    +0.072 C 
ATOM      6  C   UNL A   1     -26.223   5.987  31.077  0.00  0.00    +0.090 C 
ATOM      7  C   UNL A   1     -26.758   3.240  30.681  0.00  0.00    +0.017 C 
ATOM      8  C   UNL A   1     -27.748   2.583  31.652  0.00  0.00    +0.017 C 
ATOM      9  N   UNL A   1     -26.403   5.008  32.236  0.00  0.00    -0.273 NA
ENDBRANCH   2   3
BRANCH   2  11
ATOM     10  C   UNL A   1     -25.387  -0.679  31.571  0.00  0.00    +0.077 C 
ATOM     11  C   UNL A   1     -25.189   0.773  32.028  0.00  0.00    +0.019 C 
ATOM     12  C   UNL A   1     -25.336   0.684  33.544  0.00  0.00    +0.020 C 
ATOM     13  C   UNL A   1     -24.829  -0.715  33.905  0.00  0.00    +0.089 C 
ATOM     14  N   UNL A   1     -24.758  -1.481  32.646  0.00  0.00    -0.219 NA
BRANCH  10  15
ATOM     15  C   UNL A   1     -24.855  -1.012  30.143  0.00  0.00    +0.044 C 
BRANCH  15  16
ATOM     16  C   UNL A   1     -24.973  -2.505  29.788  0.00  0.00    -0.021 C 
ATOM     17  C   UNL A   1     -23.906  -3.173  29.146  0.00  0.00    -0.004 C 
ATOM     18  C   UNL A   1     -23.989  -4.549  28.853  0.00  0.00    -0.000 C 
ATOM     19  C   UNL A   1     -25.137  -5.280  29.205  0.00  0.00    -0.000 C 
ATOM     20  C   UNL A   1     -26.232  -4.611  29.784  0.00  0.00    -0.000 C 
ATOM     21  C   UNL A   1     -26.155  -3.232  30.065  0.00  0.00    -0.004 C 
ENDBRANCH  15  16
ENDBRANCH  10  15
ENDBRANCH   2  11
ENDBRANCH   1   2
BRANCH   1  22
ATOM     22  N   UNL A   1     -24.721   1.475  28.727  0.00  0.00    -0.215 NA
BRANCH  22  23
ATOM     23  C   UNL A   1     -24.417   1.336  27.262  0.00  0.00    +0.099 C 
BRANCH  23  24
ATOM     24  C   UNL A   1     -25.688   1.614  26.461  0.00  0.00    +0.032 C 
ATOM     25  C   UNL A   1     -26.250   2.920  26.395  0.00  0.00    +0.074 C 
ATOM     26  C   UNL A   1     -27.438   3.091  25.645  0.00  0.00    +0.106 C 
ATOM     27  N   UNL A   1     -28.075   2.089  25.003  0.00  0.00    -0.208 NA
ATOM     28  C   UNL A   1     -27.543   0.849  25.079  0.00  0.00    +0.253 C 
ATOM     29  C   UNL A   1     -26.354   0.576  25.777  0.00  0.00    +0.190 C 
ATOM     30  F   UNL A   1     -25.860  -0.681  25.795  0.00  0.00    -0.200 F 
BRANCH  25  31
ATOM     31  C   UNL A   1     -25.642   4.093  27.123  0.00  0.00    +0.266 C 
ATOM     32  N   UNL A   1     -25.614   5.252  26.449  0.00  0.00    -0.200 NA
ATOM     33  C   UNL A   1     -25.026   6.479  26.963  0.00  0.00    +0.139 C 
ATOM     34  O   UNL A   1     -25.143   3.966  28.243  0.00  0.00    -0.268 OA
ENDBRANCH  25  31
BRANCH  28  35
ATOM     35  O   UNL A   1     -28.193  -0.208  24.477  0.00  0.00    -0.456 OA
BRANCH  35  36
ATOM     36  C   UNL A   1     -29.460   0.005  23.866  0.00  0.00    +0.243 C 
BRANCH  36  37
ATOM     37  C   UNL A   1     -30.065  -1.377  23.573  0.00  0.00    +0.229 C 
ATOM     38  O   UNL A   1     -30.729  -1.878  24.721  0.00  0.00    -0.216 OA
ENDBRANCH  36  37
ENDBRANCH  35  36
ENDBRANCH  28  35
ENDBRANCH  23  24
BRANCH  23  40
ATOM     39  C   UNL A   1     -22.820   2.453  25.488  0.00  0.00    +0.003 C 
ATOM     40  C   UNL A   1     -23.162   2.180  26.979  0.00  0.00    +0.039 C 
BRANCH  40  42
ATOM     41  N   UNL A   1     -20.781   1.871  27.850  0.00  0.00    -0.131 NA
ATOM     42  C   UNL A   1     -22.077   1.481  27.775  0.00  0.00    +0.111 C 
ENDBRANCH  40  42
ENDBRANCH  23  40
ENDBRANCH  22  23
ENDBRANCH   1  22
TORSDOF 14
