MODEL 4429
MODEL 1
REMARK VINA RESULT:    -7.151      0.000      0.000
REMARK INTER + INTRA:          -7.840
REMARK INTER:                  -7.569
REMARK INTRA:                  -0.270
REMARK UNBOUND:                -0.270
REMARK  Name = No_4429-gen_results/8p0m/2024-11-27-11-27-31/
REMARK  1 active torsions:
REMARK  status: ('A' for Active; 'I' for Inactive)
REMARK    1  A    between atoms: C_6  and  C_16
REMARK                            x       y       z     vdW  Elec       q    Type
REMARK                         _______ _______ _______ _____ _____    ______ ____
ROOT
ATOM      1  C   UNL A   1     -25.785  -1.889  30.806  0.00  0.00    +0.003 A 
ATOM      2  C   UNL A   1     -25.135  -0.872  30.727  0.00  0.00    +0.031 A 
ATOM      3  C   UNL A   1     -24.824  -0.040  31.788  0.00  0.00    +0.173 C 
ATOM      4  C   UNL A   1     -24.121   1.218  31.710  0.00  0.00    +0.070 C 
ATOM      5  C   UNL A   1     -23.688   1.673  30.442  0.00  0.00    +0.013 C 
ATOM      6  C   UNL A   1     -24.025   0.846  29.317  0.00  0.00    +0.023 C 
ATOM      7  C   UNL A   1     -24.715  -0.330  29.410  0.00  0.00    -0.020 A 
ATOM      8  C   UNL A   1     -25.906  -2.796  29.617  0.00  0.00    +0.000 A 
ATOM      9  C   UNL A   1     -26.599  -4.023  29.715  0.00  0.00    +0.000 A 
ATOM     10  C   UNL A   1     -25.935  -5.028  29.767  0.00  0.00    +0.000 A 
ATOM     11  C   UNL A   1     -24.809  -5.260  28.895  0.00  0.00    -0.000 A 
ATOM     12  C   UNL A   1     -24.039  -4.048  28.671  0.00  0.00    -0.000 A 
ATOM     13  C   UNL A   1     -24.827  -2.866  28.656  0.00  0.00    -0.000 A 
ATOM     14  C   UNL A   1     -24.315  -1.549  28.221  0.00  0.00    -0.004 A 
ATOM     15  O   UNL A   1     -25.266  -0.322  32.987  0.00  0.00    -0.291 OA
ENDROOT
BRANCH   6  16
ATOM     16  C   UNL A   1     -23.607   1.359  27.950  0.00  0.00    +0.004 C 
ATOM     17  C   UNL A   1     -24.255   1.835  27.150  0.00  0.00    +0.000 C 
ATOM     18  C   UNL A   1     -22.114   1.303  27.828  0.00  0.00    +0.000 C 
ENDBRANCH   6  16
TORSDOF 1
ENDMDL
ENDMDL
