MODEL 442
MODEL 1
REMARK VINA RESULT:    -8.093      0.000      0.000
REMARK INTER + INTRA:         -12.104
REMARK INTER:                 -11.404
REMARK INTRA:                  -0.699
REMARK UNBOUND:                -0.699
REMARK  Name = No_442-gen_results/8p0m/2024-11-27-11-27-31/
REMARK  7 active torsions:
REMARK  status: ('A' for Active; 'I' for Inactive)
REMARK    1  A    between atoms: C_3  and  C_7
REMARK    2  A    between atoms: C_6  and  C_13
REMARK    3  A    between atoms: C_13  and  N_14
REMARK    4  A    between atoms: C_15  and  C_20
REMARK    5  A    between atoms: C_20  and  C_21
REMARK    6  A    between atoms: C_20  and  C_22
REMARK    7  A    between atoms: C_28  and  O_29
REMARK                            x       y       z     vdW  Elec       q    Type
REMARK                         _______ _______ _______ _____ _____    ______ ____
ROOT
ATOM      1  N   UNL A   1     -23.336   0.440  28.455  0.00  0.00    -0.245 NA
ATOM      2  C   UNL A   1     -22.725  -0.508  29.125  0.00  0.00    +0.073 C 
ATOM      3  C   UNL A   1     -22.626   1.049  27.452  0.00  0.00    +0.075 C 
ATOM      4  C   UNL A   1     -21.593   1.507  27.599  0.00  0.00    +0.018 C 
ATOM      5  C   UNL A   1     -20.555   0.538  28.206  0.00  0.00    +0.003 C 
ATOM      6  C   UNL A   1     -21.752  -0.817  28.964  0.00  0.00    +0.017 C 
ENDROOT
BRANCH   1   7
ATOM      7  C   UNL A   1     -24.501   0.825  28.778  0.00  0.00    +0.236 C 
ATOM      8  O   UNL A   1     -24.088   2.327  28.947  0.00  0.00    -0.200 OA
BRANCH   7  14
ATOM      9  C   UNL A   1     -25.525  -0.068  26.604  0.00  0.00    -0.001 A 
ATOM     10  C   UNL A   1     -26.379  -0.021  25.750  0.00  0.00    -0.000 A 
ATOM     11  C   UNL A   1     -27.336   0.989  25.671  0.00  0.00    -0.000 A 
ATOM     12  C   UNL A   1     -27.363   2.017  26.694  0.00  0.00    -0.000 A 
ATOM     13  C   UNL A   1     -26.343   1.892  27.663  0.00  0.00    -0.001 A 
ATOM     14  C   UNL A   1     -25.488   0.901  27.658  0.00  0.00    +0.023 A 
BRANCH  11  15
ATOM     15  C   UNL A   1     -28.405   1.118  24.646  0.00  0.00    -0.000 A 
ATOM     16  C   UNL A   1     -28.819   2.285  24.225  0.00  0.00    -0.000 A 
ATOM     17  C   UNL A   1     -29.898   2.389  23.286  0.00  0.00    +0.000 A 
ATOM     18  C   UNL A   1     -30.643   1.324  22.894  0.00  0.00    +0.000 A 
ATOM     19  C   UNL A   1     -29.182  -0.040  24.248  0.00  0.00    -0.000 A 
ATOM     20  C   UNL A   1     -30.292   0.092  23.371  0.00  0.00    +0.000 A 
ENDBRANCH  11  15
ENDBRANCH   7  14
ENDBRANCH   1   7
BRANCH   2  21
ATOM     21  C   UNL A   1     -23.524  -1.410  29.971  0.00  0.00    +0.123 C 
BRANCH  21  22
ATOM     22  C   UNL A   1     -24.203  -2.505  29.447  0.00  0.00    +0.101 A 
ATOM     23  N   UNL A   1     -23.513  -3.582  29.010  0.00  0.00    -0.245 NA
ATOM     24  C   UNL A   1     -24.179  -4.684  28.628  0.00  0.00    +0.099 A 
ATOM     25  C   UNL A   1     -25.539  -4.867  29.106  0.00  0.00    +0.024 A 
ATOM     26  C   UNL A   1     -26.064  -3.803  29.813  0.00  0.00    +0.040 A 
ATOM     27  C   UNL A   1     -25.468  -2.620  30.056  0.00  0.00    +0.153 A 
BRANCH  27  28
ATOM     28  O   UNL A   1     -26.096  -1.838  29.600  0.00  0.00    -0.470 OA
ATOM     29  C   UNL A   1     -27.258  -1.503  30.096  0.00  0.00    +0.253 C 
ENDBRANCH  27  28
ENDBRANCH  21  22
BRANCH  21  30
ATOM     30  C   UNL A   1     -23.817  -1.059  31.339  0.00  0.00    +0.214 C 
ATOM     31  O   UNL A   1     -22.912  -1.151  32.236  0.00  0.00    -0.288 OA
ENDBRANCH  21  30
ENDBRANCH   2  21
TORSDOF 7
ENDMDL
ENDMDL
