REMARK  Name = No_4430-gen_results/8p0m/2024-11-27-11-27-31/
REMARK  3 active torsions:
REMARK  status: ('A' for Active; 'I' for Inactive)
REMARK    1  A    between atoms: C_2  and  C_7
REMARK    2  A    between atoms: C_8  and  C_9
REMARK    3  A    between atoms: C_9  and  C_10
REMARK                            x       y       z     vdW  Elec       q    Type
REMARK                         _______ _______ _______ _____ _____    ______ ____
ROOT
ATOM      1  C   UNL A   1     -25.881  -0.626  27.794  0.00  0.00    -0.004 C 
ATOM      2  C   UNL A   1     -25.422   0.130  26.710  0.00  0.00    -0.021 C 
ENDROOT
BRANCH   1   4
ATOM      3  C   UNL A   1     -28.016  -0.814  28.878  0.00  0.00    -0.000 A 
ATOM      4  C   UNL A   1     -27.064  -0.119  28.608  0.00  0.00    -0.000 A 
ATOM      5  C   UNL A   1     -26.929   1.171  29.008  0.00  0.00    -0.000 A 
ATOM      6  C   UNL A   1     -27.956   1.741  29.784  0.00  0.00    -0.000 A 
ATOM      7  C   UNL A   1     -29.057  -0.327  29.747  0.00  0.00    -0.000 A 
ATOM      8  C   UNL A   1     -28.983   0.972  30.152  0.00  0.00    -0.000 A 
ENDBRANCH   1   4
BRANCH   2   9
ATOM      9  C   UNL A   1     -26.154   0.576  25.798  0.00  0.00    +0.052 C 
BRANCH   9  10
ATOM     10  C   UNL A   1     -27.528   0.363  25.670  0.00  0.00    -0.018 A 
ATOM     11  C   UNL A   1     -28.230   0.949  24.996  0.00  0.00    -0.004 A 
ATOM     12  C   UNL A   1     -29.661   0.740  24.896  0.00  0.00    -0.000 A 
ATOM     13  C   UNL A   1     -30.120  -0.256  25.673  0.00  0.00    -0.000 A 
ATOM     14  C   UNL A   1     -29.325  -0.861  26.582  0.00  0.00    -0.000 A 
ATOM     15  C   UNL A   1     -28.029  -0.580  26.683  0.00  0.00    -0.004 A 
ENDBRANCH   9  10
ENDBRANCH   2   9
TORSDOF 3
