MODEL 4431
MODEL 1
REMARK VINA RESULT:    -7.237      0.000      0.000
REMARK INTER + INTRA:          -9.061
REMARK INTER:                  -8.506
REMARK INTRA:                  -0.555
REMARK UNBOUND:                -0.555
REMARK  Name = No_4431-gen_results/8p0m/2024-11-27-11-27-31/
REMARK  3 active torsions:
REMARK  status: ('A' for Active; 'I' for Inactive)
REMARK    1  A    between atoms: C_3  and  C_7
REMARK    2  A    between atoms: C_7  and  C_8
REMARK    3  A    between atoms: C_8  and  C_9
REMARK                            x       y       z     vdW  Elec       q    Type
REMARK                         _______ _______ _______ _____ _____    ______ ____
ROOT
ATOM      1  C   UNL A   1     -23.917  -0.638  28.852  0.00  0.00    +0.033 C 
ENDROOT
BRANCH   1   2
ATOM      2  C   UNL A   1     -23.707   0.338  27.949  0.00  0.00    +0.006 A 
ATOM      3  C   UNL A   1     -24.319   0.458  26.746  0.00  0.00    -0.002 A 
ATOM      4  C   UNL A   1     -24.046   1.498  25.765  0.00  0.00    -0.000 A 
ATOM      5  C   UNL A   1     -22.829   2.155  25.930  0.00  0.00    +0.002 A 
ATOM      6  C   UNL A   1     -22.111   2.008  27.061  0.00  0.00    +0.029 A 
ATOM      7  C   UNL A   1     -22.459   1.126  28.008  0.00  0.00    +0.136 A 
ATOM      8  F   UNL A   1     -21.456   0.264  27.951  0.00  0.00    -0.204 F 
ENDBRANCH   1   2
BRANCH   1   9
ATOM      9  C   UNL A   1     -25.180  -1.233  29.117  0.00  0.00    +0.031 C 
BRANCH   9  12
ATOM     10  C   UNL A   1     -26.200  -3.551  29.732  0.00  0.00    -0.004 A 
ATOM     11  C   UNL A   1     -26.114  -4.595  29.617  0.00  0.00    -0.000 A 
ATOM     12  C   UNL A   1     -25.172  -2.760  29.118  0.00  0.00    -0.022 A 
ATOM     13  C   UNL A   1     -24.073  -3.289  28.572  0.00  0.00    -0.004 A 
ATOM     14  C   UNL A   1     -24.011  -4.654  28.534  0.00  0.00    -0.000 A 
ATOM     15  C   UNL A   1     -25.058  -5.384  29.093  0.00  0.00    -0.000 A 
ENDBRANCH   9  12
ENDBRANCH   1   9
TORSDOF 3
ENDMDL
ENDMDL
