REMARK  Name = No_4432-gen_results/8p0m/2024-11-27-11-27-31/
REMARK  2 active torsions:
REMARK  status: ('A' for Active; 'I' for Inactive)
REMARK    1  A    between atoms: C_17  and  C_18
REMARK    2  A    between atoms: C_27  and  C_28
REMARK                            x       y       z     vdW  Elec       q    Type
REMARK                         _______ _______ _______ _____ _____    ______ ____
ROOT
ATOM      1  C   UNL A   1     -28.016  -0.814  28.878  0.00  0.00    +0.057 A 
ATOM      2  C   UNL A   1     -28.469  -0.785  29.829  0.00  0.00    +0.067 A 
ATOM      3  C   UNL A   1     -27.087   0.290  28.638  0.00  0.00    -0.011 A 
ATOM      4  C   UNL A   1     -26.910   0.849  27.420  0.00  0.00    +0.025 C 
ATOM      5  N   UNL A   1     -29.503  -1.616  30.108  0.00  0.00    -0.252 N 
ATOM      6  C   UNL A   1     -27.694   1.054  26.623  0.00  0.00    +0.024 C 
ATOM      7  C   UNL A   1     -29.052   0.856  26.939  0.00  0.00    +0.073 C 
ATOM      8  C   UNL A   1     -27.951  -0.105  31.117  0.00  0.00    +0.016 A 
ATOM      9  C   UNL A   1     -26.953   0.808  30.993  0.00  0.00    -0.002 A 
ATOM     10  C   UNL A   1     -26.470   1.025  29.776  0.00  0.00    -0.010 A 
ATOM     11  C   UNL A   1     -29.928   1.086  26.199  0.00  0.00    +0.020 C 
ATOM     12  C   UNL A   1     -31.363   0.848  26.532  0.00  0.00    +0.004 C 
ATOM     13  C   UNL A   1     -31.565   0.177  27.733  0.00  0.00    +0.021 C 
ATOM     14  C   UNL A   1     -30.557  -0.147  28.529  0.00  0.00    +0.093 C 
ATOM     15  N   UNL A   1     -29.297   0.169  28.120  0.00  0.00    -0.308 N 
ATOM     16  C   UNL A   1     -30.741  -1.064  29.645  0.00  0.00    +0.118 C 
ATOM     17  C   UNL A   1     -29.456  -2.899  30.649  0.00  0.00    +0.253 C 
ATOM     18  O   UNL A   1     -28.364  -3.039  31.400  0.00  0.00    -0.270 OA
ATOM     19  C   UNL A   1     -25.416   2.005  29.537  0.00  0.00    +0.109 C 
ATOM     20 CL   UNL A   1     -24.906   2.921  30.314  0.00  0.00    -0.110 Cl
ATOM     21  C   UNL A   1     -24.963   2.108  28.048  0.00  0.00    +0.084 C 
ATOM     22  C   UNL A   1     -25.611   1.498  27.102  0.00  0.00    +0.014 C 
ENDROOT
BRANCH  17  23
ATOM     23  C   UNL A   1     -30.381  -3.856  30.434  0.00  0.00    +0.054 A 
ATOM     24  C   UNL A   1     -30.680  -4.196  29.529  0.00  0.00    +0.004 A 
ATOM     25  C   UNL A   1     -31.478  -5.127  29.242  0.00  0.00    +0.000 A 
ATOM     26  C   UNL A   1     -32.009  -5.917  30.267  0.00  0.00    +0.000 A 
ATOM     27  C   UNL A   1     -31.608  -5.620  31.531  0.00  0.00    +0.000 A 
ATOM     28  C   UNL A   1     -30.710  -4.557  31.717  0.00  0.00    +0.004 A 
ENDBRANCH  17  23
BRANCH  21  29
ATOM     29  C   UNL A   1     -23.684   2.930  27.807  0.00  0.00    +0.208 C 
ATOM     30  O   UNL A   1     -23.306   2.871  26.572  0.00  0.00    -0.288 OA
ENDBRANCH  21  29
TORSDOF 2
