MODEL 4432
MODEL 1
REMARK VINA RESULT:    -8.006      0.000      0.000
REMARK INTER + INTRA:          -9.311
REMARK INTER:                  -8.942
REMARK INTRA:                  -0.369
REMARK UNBOUND:                -0.369
REMARK  Name = No_4432-gen_results/8p0m/2024-11-27-11-27-31/
REMARK  2 active torsions:
REMARK  status: ('A' for Active; 'I' for Inactive)
REMARK    1  A    between atoms: C_17  and  C_18
REMARK    2  A    between atoms: C_27  and  C_28
REMARK                            x       y       z     vdW  Elec       q    Type
REMARK                         _______ _______ _______ _____ _____    ______ ____
ROOT
ATOM      1  C   UNL A   1     -26.928  -1.457  29.677  0.00  0.00    +0.057 A 
ATOM      2  C   UNL A   1     -26.186  -0.805  30.042  0.00  0.00    +0.067 A 
ATOM      3  C   UNL A   1     -27.725  -2.086  30.731  0.00  0.00    -0.011 A 
ATOM      4  C   UNL A   1     -28.219  -3.340  30.629  0.00  0.00    +0.025 C 
ATOM      5  N   UNL A   1     -25.241  -0.321  29.199  0.00  0.00    -0.252 N 
ATOM      6  C   UNL A   1     -27.723  -4.252  30.165  0.00  0.00    +0.024 C 
ATOM      7  C   UNL A   1     -26.378  -4.161  29.760  0.00  0.00    +0.073 C 
ATOM      8  C   UNL A   1     -26.150  -0.054  31.393  0.00  0.00    +0.016 A 
ATOM      9  C   UNL A   1     -26.999  -0.467  32.370  0.00  0.00    -0.002 A 
ATOM     10  C   UNL A   1     -27.824  -1.466  32.081  0.00  0.00    -0.010 A 
ATOM     11  C   UNL A   1     -25.774  -5.060  29.318  0.00  0.00    +0.020 C 
ATOM     12  C   UNL A   1     -24.356  -4.949  28.865  0.00  0.00    +0.004 C 
ATOM     13  C   UNL A   1     -23.861  -3.650  28.860  0.00  0.00    +0.021 C 
ATOM     14  C   UNL A   1     -24.582  -2.627  29.293  0.00  0.00    +0.093 C 
ATOM     15  N   UNL A   1     -25.850  -2.878  29.719  0.00  0.00    -0.308 N 
ATOM     16  C   UNL A   1     -24.164  -1.253  29.050  0.00  0.00    +0.118 C 
ATOM     17  C   UNL A   1     -25.280   0.847  28.440  0.00  0.00    +0.253 C 
ATOM     18  O   UNL A   1     -26.069   1.747  29.025  0.00  0.00    -0.270 OA
ATOM     19  C   UNL A   1     -28.754  -1.998  33.071  0.00  0.00    +0.109 C 
ATOM     20 CL   UNL A   1     -28.848  -1.791  34.356  0.00  0.00    -0.110 Cl
ATOM     21  C   UNL A   1     -29.657  -3.156  32.544  0.00  0.00    +0.084 C 
ATOM     22  C   UNL A   1     -29.449  -3.699  31.383  0.00  0.00    +0.014 C 
ENDROOT
BRANCH  17  23
ATOM     23  C   UNL A   1     -24.618   1.028  27.280  0.00  0.00    +0.054 A 
ATOM     24  C   UNL A   1     -24.958   0.779  26.360  0.00  0.00    +0.004 A 
ATOM     25  C   UNL A   1     -24.441   0.976  25.229  0.00  0.00    +0.000 A 
ATOM     26  C   UNL A   1     -23.261   1.721  25.134  0.00  0.00    +0.000 A 
ATOM     27  C   UNL A   1     -22.749   2.198  26.299  0.00  0.00    +0.000 A 
ATOM     28  C   UNL A   1     -23.425   1.910  27.496  0.00  0.00    +0.004 A 
ENDBRANCH  17  23
BRANCH  21  29
ATOM     29  C   UNL A   1     -30.819  -3.555  33.472  0.00  0.00    +0.208 C 
ATOM     30  O   UNL A   1     -30.656  -4.743  33.954  0.00  0.00    -0.288 OA
ENDBRANCH  21  29
TORSDOF 2
ENDMDL
ENDMDL
