MODEL 4433
MODEL 1
REMARK VINA RESULT:    -6.343      0.000      0.000
REMARK INTER + INTRA:          -8.848
REMARK INTER:                  -8.197
REMARK INTRA:                  -0.651
REMARK UNBOUND:                -0.651
REMARK  Name = No_4433-gen_results/8p0m/2024-11-27-11-27-31/
REMARK  5 active torsions:
REMARK  status: ('A' for Active; 'I' for Inactive)
REMARK    1  A    between atoms: C_2  and  C_10
REMARK    2  A    between atoms: C_5  and  C_7
REMARK    3  A    between atoms: C_10  and  O_12
REMARK    4  A    between atoms: O_12  and  C_15
REMARK    5  A    between atoms: C_15  and  C_17
REMARK                            x       y       z     vdW  Elec       q    Type
REMARK                         _______ _______ _______ _____ _____    ______ ____
ROOT
ATOM      1  C   UNL A   1     -24.888   0.455  25.300  0.00  0.00    +0.007 A 
ATOM      2  C   UNL A   1     -24.897   0.487  26.509  0.00  0.00    +0.076 A 
ATOM      3  C   UNL A   1     -26.053   0.535  27.263  0.00  0.00    +0.007 A 
ATOM      4  C   UNL A   1     -27.299   0.505  26.576  0.00  0.00    +0.005 A 
ATOM      5  C   UNL A   1     -27.238   0.297  25.240  0.00  0.00    +0.054 A 
ATOM      6  C   UNL A   1     -26.084   0.223  24.605  0.00  0.00    +0.005 A 
ENDROOT
BRANCH   5   7
ATOM      7  C   UNL A   1     -28.415   0.149  24.381  0.00  0.00    +0.249 C 
ATOM      8  N   UNL A   1     -29.061   1.136  23.983  0.00  0.00    -0.273 N 
ATOM      9  O   UNL A   1     -28.797  -0.982  23.979  0.00  0.00    -0.270 OA
ATOM     10  C   UNL A   1     -28.696   2.552  24.293  0.00  0.00    +0.115 C 
ATOM     11  C   UNL A   1     -30.217   1.140  23.080  0.00  0.00    +0.115 C 
ENDBRANCH   5   7
BRANCH   2  12
ATOM     12  C   UNL A   1     -23.713   0.745  27.538  0.00  0.00    +0.346 C 
ATOM     13  O   UNL A   1     -23.333   1.836  27.703  0.00  0.00    -0.244 OA
BRANCH  12  14
ATOM     14  O   UNL A   1     -23.107  -0.257  28.099  0.00  0.00    -0.419 OA
BRANCH  14  15
ATOM     15  C   UNL A   1     -23.146  -0.804  29.025  0.00  0.00    +0.166 C 
ATOM     16  C   UNL A   1     -22.001  -0.569  29.816  0.00  0.00    +0.042 C 
BRANCH  15  17
ATOM     17  C   UNL A   1     -24.049  -1.809  29.435  0.00  0.00    +0.116 A 
ATOM     18  N   UNL A   1     -25.172  -1.671  30.083  0.00  0.00    -0.241 NA
ATOM     19  C   UNL A   1     -26.209  -2.465  30.061  0.00  0.00    +0.099 A 
ATOM     20  C   UNL A   1     -23.836  -3.195  28.885  0.00  0.00    +0.022 A 
ATOM     21  C   UNL A   1     -24.842  -4.190  29.024  0.00  0.00    +0.003 A 
ATOM     22  C   UNL A   1     -26.021  -3.792  29.653  0.00  0.00    +0.021 A 
ENDBRANCH  15  17
ENDBRANCH  14  15
ENDBRANCH  12  14
ENDBRANCH   2  12
TORSDOF 5
ENDMDL
ENDMDL
