MODEL 4434
MODEL 1
REMARK VINA RESULT:    -7.035      0.000      0.000
REMARK INTER + INTRA:          -8.732
REMARK INTER:                  -8.269
REMARK INTRA:                  -0.463
REMARK UNBOUND:                -0.463
REMARK  Name = No_4434-gen_results/8p0m/2024-11-27-11-27-31/
REMARK  3 active torsions:
REMARK  status: ('A' for Active; 'I' for Inactive)
REMARK    1  A    between atoms: C_2  and  C_22
REMARK    2  A    between atoms: C_4  and  C_5
REMARK    3  A    between atoms: C_8  and  C_14
REMARK                            x       y       z     vdW  Elec       q    Type
REMARK                         _______ _______ _______ _____ _____    ______ ____
ROOT
ATOM      1  C   UNL A   1     -24.330   0.773  29.723  0.00  0.00    +0.043 C 
ATOM      2  C   UNL A   1     -24.828  -0.156  28.763  0.00  0.00    +0.083 C 
ATOM      3  C   UNL A   1     -24.342  -0.133  27.430  0.00  0.00    +0.028 C 
ATOM      4  C   UNL A   1     -23.544   1.012  27.076  0.00  0.00    +0.089 C 
ATOM      5  C   UNL A   1     -22.971   1.252  29.221  0.00  0.00    +0.093 C 
ATOM      6  N   UNL A   1     -22.904   1.628  27.903  0.00  0.00    -0.218 NA
ATOM      7  C   UNL A   1     -25.325   2.084  29.607  0.00  0.00    +0.006 C 
ENDROOT
BRANCH   2   8
ATOM      8  C   UNL A   1     -25.914  -1.124  29.097  0.00  0.00    +0.227 C 
ATOM      9  O   UNL A   1     -27.006  -0.865  29.276  0.00  0.00    -0.275 OA
ATOM     10  N   UNL A   1     -25.448  -2.445  29.231  0.00  0.00    -0.264 N 
ATOM     11  C   UNL A   1     -26.396  -3.554  29.654  0.00  0.00    +0.096 C 
ATOM     12  C   UNL A   1     -25.782  -4.752  29.580  0.00  0.00    +0.040 C 
ATOM     13  C   UNL A   1     -24.481  -4.908  29.150  0.00  0.00    +0.092 C 
ATOM     14  C   UNL A   1     -24.273  -2.962  28.722  0.00  0.00    +0.185 C 
ATOM     15  N   UNL A   1     -23.769  -4.120  28.679  0.00  0.00    -0.197 NA
ENDBRANCH   2   8
BRANCH   1  19
ATOM     16  C   UNL A   1     -23.397  -1.152  32.921  0.00  0.00    +0.010 A 
ATOM     17  C   UNL A   1     -24.214  -0.842  33.510  0.00  0.00    +0.068 A 
ATOM     18  C   UNL A   1     -23.368  -0.672  31.530  0.00  0.00    -0.004 A 
ATOM     19  C   UNL A   1     -24.327   0.277  31.071  0.00  0.00    -0.021 A 
ATOM     20  C   UNL A   1     -25.283   0.164  33.347  0.00  0.00    +0.010 A 
ATOM     21  C   UNL A   1     -25.283   0.729  32.027  0.00  0.00    -0.004 A 
BRANCH  17  22
ATOM     22  C   UNL A   1     -24.383  -1.264  35.016  0.00  0.00    +0.100 C 
ATOM     23  N   UNL A   1     -25.142  -0.946  35.744  0.00  0.00    -0.191 NA
ENDBRANCH  17  22
ENDBRANCH   1  19
TORSDOF 3
ENDMDL
ENDMDL
