REMARK  Name = No_4434-gen_results/8p0m/2024-11-27-11-27-31/
REMARK  3 active torsions:
REMARK  status: ('A' for Active; 'I' for Inactive)
REMARK    1  A    between atoms: C_2  and  C_22
REMARK    2  A    between atoms: C_4  and  C_5
REMARK    3  A    between atoms: C_8  and  C_14
REMARK                            x       y       z     vdW  Elec       q    Type
REMARK                         _______ _______ _______ _____ _____    ______ ____
ROOT
ATOM      1  C   UNL A   1     -24.370  -1.100  30.072  0.00  0.00    +0.043 C 
ATOM      2  C   UNL A   1     -23.727   0.171  30.026  0.00  0.00    +0.083 C 
ATOM      3  C   UNL A   1     -22.455   0.306  29.412  0.00  0.00    +0.028 C 
ATOM      4  C   UNL A   1     -21.783  -0.926  29.091  0.00  0.00    +0.089 C 
ATOM      5  C   UNL A   1     -23.764  -1.949  28.958  0.00  0.00    +0.093 C 
ATOM      6  N   UNL A   1     -22.395  -1.950  28.866  0.00  0.00    -0.218 NA
ATOM      7  C   UNL A   1     -23.852  -1.792  31.478  0.00  0.00    +0.006 C 
ENDROOT
BRANCH   2   8
ATOM      8  C   UNL A   1     -24.323   1.376  30.676  0.00  0.00    +0.227 C 
ATOM      9  O   UNL A   1     -24.343   1.590  31.792  0.00  0.00    -0.275 OA
ATOM     10  N   UNL A   1     -24.936   2.247  29.757  0.00  0.00    -0.264 N 
ATOM     11  C   UNL A   1     -25.672   3.483  30.245  0.00  0.00    +0.096 C 
ATOM     12  C   UNL A   1     -26.056   4.245  29.201  0.00  0.00    +0.040 C 
ATOM     13  C   UNL A   1     -25.776   3.924  27.889  0.00  0.00    +0.092 C 
ATOM     14  C   UNL A   1     -24.703   2.311  28.397  0.00  0.00    +0.185 C 
ATOM     15  N   UNL A   1     -25.096   3.079  27.474  0.00  0.00    -0.197 NA
ENDBRANCH   2   8
BRANCH   1  19
ATOM     16  C   UNL A   1     -28.016  -0.814  28.878  0.00  0.00    +0.010 A 
ATOM     17  C   UNL A   1     -28.469  -0.785  29.829  0.00  0.00    +0.068 A 
ATOM     18  C   UNL A   1     -26.546  -0.876  28.850  0.00  0.00    -0.004 A 
ATOM     19  C   UNL A   1     -25.804  -1.032  30.057  0.00  0.00    -0.021 A 
ATOM     20  C   UNL A   1     -27.990  -1.005  31.209  0.00  0.00    +0.010 A 
ATOM     21  C   UNL A   1     -26.562  -1.137  31.260  0.00  0.00    -0.004 A 
BRANCH  17  22
ATOM     22  C   UNL A   1     -30.029  -0.727  30.024  0.00  0.00    +0.100 C 
ATOM     23  N   UNL A   1     -30.722  -1.531  30.310  0.00  0.00    -0.191 NA
ENDBRANCH  17  22
ENDBRANCH   1  19
TORSDOF 3
