MODEL 4435
MODEL 1
REMARK VINA RESULT:    -6.924      0.000      0.000
REMARK INTER + INTRA:          -5.466
REMARK INTER:                  -7.329
REMARK INTRA:                   1.863
REMARK UNBOUND:                 1.863
REMARK  Name = No_4435-gen_results/8p0m/2024-11-27-11-27-31/
REMARK  2 active torsions:
REMARK  status: ('A' for Active; 'I' for Inactive)
REMARK    1  A    between atoms: C_3  and  C_4
REMARK    2  A    between atoms: C_4  and  C_13
REMARK                            x       y       z     vdW  Elec       q    Type
REMARK                         _______ _______ _______ _____ _____    ______ ____
ROOT
ATOM      1  C   UNL A   1     -23.847  -1.168  29.200  0.00  0.00    +0.113 C 
ATOM      2  C   UNL A   1     -22.454  -1.271  28.924  0.00  0.00    +0.015 C 
ATOM      3  C   UNL A   1     -21.681  -0.085  28.848  0.00  0.00    +0.001 C 
ATOM      4  C   UNL A   1     -24.472  -0.080  28.331  0.00  0.00    +0.015 C 
ATOM      5  C   UNL A   1     -23.717   1.235  28.283  0.00  0.00    +0.001 C 
ATOM      6  C   UNL A   1     -22.266   1.019  28.091  0.00  0.00    +0.000 C 
ENDROOT
BRANCH   1   9
ATOM      7  C   UNL A   1     -26.439  -3.615  29.878  0.00  0.00    -0.000 A 
ATOM      8  C   UNL A   1     -25.805  -2.591  29.769  0.00  0.00    -0.004 A 
ATOM      9  C   UNL A   1     -24.590  -2.446  29.323  0.00  0.00    -0.013 A 
ATOM     10  C   UNL A   1     -25.819  -4.865  29.416  0.00  0.00    -0.000 A 
ATOM     11  C   UNL A   1     -24.556  -4.858  28.967  0.00  0.00    -0.000 A 
ATOM     12  C   UNL A   1     -23.887  -3.632  28.876  0.00  0.00    -0.004 A 
ENDBRANCH   1   9
BRANCH   1  13
ATOM     13  C   UNL A   1     -23.828  -0.480  30.764  0.00  0.00    +0.367 C 
ATOM     14  O   UNL A   1     -24.601   0.366  30.996  0.00  0.00    -0.245 OA
ATOM     15  O   UNL A   1     -23.016  -0.995  31.575  0.00  0.00    -0.245 OA
ENDBRANCH   1  13
TORSDOF 2
ENDMDL
ENDMDL
