REMARK  Name = outputs/IAG933/test6/raw/output_4436_IAG933_linker_design_.xyz
REMARK  12 active torsions:
REMARK  status: ('A' for Active; 'I' for Inactive)
REMARK    1  A    between atoms: C_1  and  C_2
REMARK    2  A    between atoms: C_1  and  C_8
REMARK    3  A    between atoms: C_9  and  C_32
REMARK    4  A    between atoms: C_13  and  C_42
REMARK    5  A    between atoms: C_14  and  C_15
REMARK    6  A    between atoms: C_21  and  O_22
REMARK    7  A    between atoms: O_22  and  C_23
REMARK    8  A    between atoms: C_23  and  C_24
REMARK    9  A    between atoms: C_32  and  C_45
REMARK   10  A    between atoms: N_34  and  C_35
REMARK   11  A    between atoms: C_35  and  C_40
REMARK   12  A    between atoms: C_40  and  C_41
REMARK                            x       y       z     vdW  Elec       q    Type
REMARK                         _______ _______ _______ _____ _____    ______ ____
ROOT
ATOM      1  C   UNL A   1     -22.037   0.568  28.525  0.00  0.00    +0.093 C 
ATOM      2  C   UNL A   1     -22.139   1.184  27.256  0.00  0.00    +0.162 C 
ATOM      3  C   UNL A   1     -23.427   1.478  26.872  0.00  0.00    +0.062 C 
ATOM      4  C   UNL A   1     -22.887   1.071  29.456  0.00  0.00    -0.021 C 
ATOM      5  O   UNL A   1     -21.133   1.500  26.485  0.00  0.00    -0.335 OA
ATOM      6  C   UNL A   1     -23.133   2.043  25.494  0.00  0.00    +0.344 C 
ATOM      7  F   UNL A   1     -24.124   2.410  24.721  0.00  0.00    -0.195 F 
ATOM      8  C   UNL A   1     -24.540   1.474  27.394  0.00  0.00    +0.074 C 
ATOM      9  O   UNL A   1     -21.840   2.260  25.283  0.00  0.00    -0.135 OA
ATOM     10  C   UNL A   1     -24.161   1.442  29.232  0.00  0.00    -0.007 C 
ENDROOT
BRANCH   8  11
ATOM     11  C   UNL A   1     -25.688   1.614  26.461  0.00  0.00    +0.024 C 
ATOM     12  C   UNL A   1     -26.250   2.920  26.395  0.00  0.00    +0.073 C 
ATOM     13  C   UNL A   1     -27.438   3.091  25.645  0.00  0.00    +0.106 C 
ATOM     14  N   UNL A   1     -28.075   2.089  25.003  0.00  0.00    -0.208 NA
ATOM     15  C   UNL A   1     -27.543   0.849  25.079  0.00  0.00    +0.253 C 
ATOM     16  C   UNL A   1     -26.354   0.576  25.777  0.00  0.00    +0.190 C 
ATOM     17  F   UNL A   1     -25.860  -0.681  25.795  0.00  0.00    -0.200 F 
BRANCH  12  18
ATOM     18  C   UNL A   1     -25.642   4.093  27.123  0.00  0.00    +0.266 C 
ATOM     19  N   UNL A   1     -25.614   5.252  26.449  0.00  0.00    -0.200 NA
ATOM     20  C   UNL A   1     -25.026   6.479  26.963  0.00  0.00    +0.139 C 
ATOM     21  O   UNL A   1     -25.143   3.966  28.243  0.00  0.00    -0.268 OA
ENDBRANCH  12  18
BRANCH  15  22
ATOM     22  O   UNL A   1     -28.193  -0.208  24.477  0.00  0.00    -0.456 OA
BRANCH  22  23
ATOM     23  C   UNL A   1     -29.460   0.005  23.866  0.00  0.00    +0.243 C 
BRANCH  23  24
ATOM     24  C   UNL A   1     -30.065  -1.377  23.573  0.00  0.00    +0.229 C 
ATOM     25  O   UNL A   1     -30.729  -1.878  24.721  0.00  0.00    -0.216 OA
ENDBRANCH  23  24
ENDBRANCH  22  23
ENDBRANCH  15  22
ENDBRANCH   8  11
BRANCH  10  26
ATOM     26  C   UNL A   1     -24.698   1.679  30.736  0.00  0.00    +0.049 C 
ATOM     27  N   UNL A   1     -25.006   3.124  30.805  0.00  0.00    -0.183 NA
BRANCH  26  29
ATOM     28  C   UNL A   1     -25.387  -0.679  31.571  0.00  0.00    +0.082 C 
ATOM     29  C   UNL A   1     -25.189   0.773  32.028  0.00  0.00    +0.055 C 
ATOM     30  C   UNL A   1     -25.336   0.684  33.544  0.00  0.00    +0.026 C 
ATOM     31  C   UNL A   1     -24.829  -0.715  33.905  0.00  0.00    +0.089 C 
ATOM     32  N   UNL A   1     -24.758  -1.481  32.646  0.00  0.00    -0.219 NA
BRANCH  28  33
ATOM     33  C   UNL A   1     -24.855  -1.012  30.143  0.00  0.00    +0.044 C 
BRANCH  33  34
ATOM     34  C   UNL A   1     -24.973  -2.505  29.788  0.00  0.00    -0.021 C 
ATOM     35  C   UNL A   1     -23.906  -3.173  29.146  0.00  0.00    -0.004 C 
ATOM     36  C   UNL A   1     -23.989  -4.549  28.853  0.00  0.00    -0.000 C 
ATOM     37  C   UNL A   1     -25.137  -5.280  29.205  0.00  0.00    -0.000 C 
ATOM     38  C   UNL A   1     -26.232  -4.611  29.784  0.00  0.00    -0.000 C 
ATOM     39  C   UNL A   1     -26.155  -3.232  30.065  0.00  0.00    -0.004 C 
ENDBRANCH  33  34
ENDBRANCH  28  33
ENDBRANCH  26  29
BRANCH  27  40
ATOM     40  C   UNL A   1     -25.620   3.773  31.748  0.00  0.00    +0.263 C 
ATOM     41  O   UNL A   1     -25.702   3.391  32.911  0.00  0.00    -0.271 OA
BRANCH  40  42
ATOM     42  C   UNL A   1     -26.190   5.156  31.527  0.00  0.00    +0.170 C 
ATOM     43  N   UNL A   1     -27.640   5.458  31.075  0.00  0.00    -0.123 NA
BRANCH  42  45
ATOM     44  C   UNL A   1     -25.676   7.622  31.171  0.00  0.00    +0.002 C 
ATOM     45  C   UNL A   1     -25.092   6.201  31.249  0.00  0.00    +0.028 C 
ENDBRANCH  42  45
ENDBRANCH  40  42
ENDBRANCH  27  40
ENDBRANCH  10  26
TORSDOF 12
