MODEL 4436
MODEL 1
REMARK VINA RESULT:    -7.303      0.000      0.000
REMARK INTER + INTRA:          -9.748
REMARK INTER:                  -9.011
REMARK INTRA:                  -0.737
REMARK UNBOUND:                -0.737
REMARK  Name = No_4436-gen_results/8p0m/2024-11-27-11-27-31/
REMARK  4 active torsions:
REMARK  status: ('A' for Active; 'I' for Inactive)
REMARK    1  A    between atoms: C_3  and  C_8
REMARK    2  A    between atoms: C_6  and  O_7
REMARK    3  A    between atoms: O_7  and  C_12
REMARK    4  A    between atoms: C_12  and  C_13
REMARK                            x       y       z     vdW  Elec       q    Type
REMARK                         _______ _______ _______ _____ _____    ______ ____
ROOT
ATOM      1  C   UNL A   1     -22.782   0.532  28.695  0.00  0.00    +0.037 A 
ATOM      2  C   UNL A   1     -22.412   1.105  27.697  0.00  0.00    +0.007 A 
ATOM      3  C   UNL A   1     -23.274   1.528  26.686  0.00  0.00    +0.072 A 
ATOM      4  C   UNL A   1     -24.688   1.224  26.789  0.00  0.00    +0.007 A 
ATOM      5  C   UNL A   1     -25.045   0.545  27.976  0.00  0.00    +0.037 A 
ATOM      6  C   UNL A   1     -24.160   0.181  28.870  0.00  0.00    +0.139 A 
ENDROOT
BRANCH   3   7
ATOM      7  C   UNL A   1     -22.890   2.243  25.425  0.00  0.00    +0.419 C 
ATOM      8  F   UNL A   1     -21.641   2.375  25.314  0.00  0.00    -0.166 F 
ATOM      9  F   UNL A   1     -23.289   1.543  24.347  0.00  0.00    -0.166 F 
ATOM     10  F   UNL A   1     -23.458   3.472  25.290  0.00  0.00    -0.166 F 
ENDBRANCH   3   7
BRANCH   6  11
ATOM     11  O   UNL A   1     -24.614  -0.517  29.953  0.00  0.00    -0.471 OA
BRANCH  11  12
ATOM     12  C   UNL A   1     -24.197  -1.828  30.189  0.00  0.00    +0.232 C 
BRANCH  12  13
ATOM     13  C   UNL A   1     -24.834  -2.788  29.300  0.00  0.00    +0.021 A 
ATOM     14  C   UNL A   1     -23.931  -3.552  28.689  0.00  0.00    -0.001 A 
ATOM     15  C   UNL A   1     -24.002  -4.645  28.552  0.00  0.00    -0.000 A 
ATOM     16  C   UNL A   1     -25.177  -5.344  29.142  0.00  0.00    -0.000 A 
ATOM     17  C   UNL A   1     -26.242  -4.588  29.609  0.00  0.00    -0.000 A 
ATOM     18  C   UNL A   1     -25.915  -3.264  29.947  0.00  0.00    -0.001 A 
ENDBRANCH  12  13
ENDBRANCH  11  12
ENDBRANCH   6  11
TORSDOF 4
ENDMDL
ENDMDL
