MODEL 4437
MODEL 1
REMARK VINA RESULT:    -6.846      0.000      0.000
REMARK INTER + INTRA:         -10.025
REMARK INTER:                  -8.847
REMARK INTRA:                  -1.178
REMARK UNBOUND:                -1.178
REMARK  Name = No_4437-gen_results/8p0m/2024-11-27-11-27-31/
REMARK  5 active torsions:
REMARK  status: ('A' for Active; 'I' for Inactive)
REMARK    1  A    between atoms: C_2  and  O_16
REMARK    2  A    between atoms: C_3  and  C_8
REMARK    3  A    between atoms: C_10  and  O_14
REMARK    4  A    between atoms: O_16  and  C_17
REMARK    5  A    between atoms: C_17  and  C_18
REMARK                            x       y       z     vdW  Elec       q    Type
REMARK                         _______ _______ _______ _____ _____    ______ ____
ROOT
ATOM      1  C   UNL A   1     -26.108  -2.837  30.124  0.00  0.00    +0.067 A 
ATOM      2  C   UNL A   1     -25.389  -1.896  29.880  0.00  0.00    +0.151 A 
ATOM      3  C   UNL A   1     -24.249  -1.983  29.083  0.00  0.00    +0.035 A 
ATOM      4  C   UNL A   1     -23.853  -3.275  28.556  0.00  0.00    +0.005 A 
ATOM      5  C   UNL A   1     -24.734  -4.328  28.890  0.00  0.00    +0.030 A 
ATOM      6  C   UNL A   1     -25.782  -4.150  29.653  0.00  0.00    +0.143 A 
ATOM      7  F   UNL A   1     -26.534  -5.208  29.921  0.00  0.00    -0.204 F 
ENDROOT
BRANCH   3   8
ATOM      8  C   UNL A   1     -23.309  -0.863  28.746  0.00  0.00    +0.006 A 
ATOM      9  C   UNL A   1     -23.758   0.211  28.082  0.00  0.00    +0.037 A 
ATOM     10  C   UNL A   1     -22.833   1.236  27.689  0.00  0.00    +0.139 A 
ATOM     11  C   UNL A   1     -21.474   1.108  27.871  0.00  0.00    +0.037 A 
ATOM     12  C   UNL A   1     -21.954  -0.899  29.183  0.00  0.00    +0.000 A 
ATOM     13  C   UNL A   1     -21.017   0.056  28.629  0.00  0.00    +0.003 A 
BRANCH  10  14
ATOM     14  O   UNL A   1     -23.323   2.281  26.941  0.00  0.00    -0.471 OA
ATOM     15  C   UNL A   1     -22.981   2.267  25.609  0.00  0.00    +0.253 C 
ENDBRANCH  10  14
ENDBRANCH   3   8
BRANCH   2  16
ATOM     16  O   UNL A   1     -25.705  -0.606  30.307  0.00  0.00    -0.418 OA
BRANCH  16  17
ATOM     17  C   UNL A   1     -25.684  -0.434  31.658  0.00  0.00    +0.418 C 
ATOM     18  O   UNL A   1     -26.838  -0.363  32.165  0.00  0.00    -0.240 OA
BRANCH  17  19
ATOM     19  C   UNL A   1     -24.487  -0.154  32.263  0.00  0.00    +0.491 C 
ATOM     20  F   UNL A   1     -23.731  -1.140  32.437  0.00  0.00    -0.161 F 
ATOM     21  F   UNL A   1     -23.789   0.770  31.566  0.00  0.00    -0.161 F 
ATOM     22  F   UNL A   1     -24.718   0.443  33.500  0.00  0.00    -0.161 F 
ENDBRANCH  17  19
ENDBRANCH  16  17
ENDBRANCH   2  16
TORSDOF 5
ENDMDL
ENDMDL
