MODEL 4438
MODEL 1
REMARK VINA RESULT:    -8.318      0.000      0.000
REMARK INTER + INTRA:         -11.191
REMARK INTER:                 -10.263
REMARK INTRA:                  -0.929
REMARK UNBOUND:                -0.929
REMARK  Name = No_4438-gen_results/8p0m/2024-11-27-11-27-31/
REMARK  4 active torsions:
REMARK  status: ('A' for Active; 'I' for Inactive)
REMARK    1  A    between atoms: C_4  and  C_8
REMARK    2  A    between atoms: C_8  and  C_9
REMARK    3  A    between atoms: C_13  and  O_17
REMARK    4  A    between atoms: O_17  and  C_18
REMARK                            x       y       z     vdW  Elec       q    Type
REMARK                         _______ _______ _______ _____ _____    ______ ____
ROOT
ATOM      1  C   UNL A   1     -23.393   0.946  27.204  0.00  0.00    -0.015 A 
ATOM      2  C   UNL A   1     -22.018   1.077  27.566  0.00  0.00    -0.004 A 
ATOM      3  C   UNL A   1     -21.503   0.565  28.745  0.00  0.00    +0.003 A 
ATOM      4  C   UNL A   1     -24.188   0.011  27.944  0.00  0.00    +0.034 A 
ATOM      5  C   UNL A   1     -23.714  -0.482  29.190  0.00  0.00    +0.145 A 
ATOM      6  C   UNL A   1     -22.371  -0.265  29.513  0.00  0.00    +0.037 A 
ENDROOT
BRANCH   1   7
ATOM      7  C   UNL A   1     -23.918   1.745  26.120  0.00  0.00    +0.045 C 
ATOM      8  C   UNL A   1     -23.272   2.810  25.577  0.00  0.00    +0.009 C 
BRANCH   7  12
ATOM      9  C   UNL A   1     -27.609   1.402  25.092  0.00  0.00    +0.018 A 
ATOM     10  C   UNL A   1     -27.531   0.473  24.601  0.00  0.00    +0.058 A 
ATOM     11  C   UNL A   1     -26.384   1.921  25.721  0.00  0.00    +0.032 A 
ATOM     12  C   UNL A   1     -25.138   1.253  25.539  0.00  0.00    -0.012 A 
ATOM     13  C   UNL A   1     -26.369  -0.380  24.228  0.00  0.00    +0.011 A 
ATOM     14  C   UNL A   1     -25.215   0.064  24.801  0.00  0.00    -0.003 A 
ATOM     15 CL   UNL A   1     -29.028  -0.176  23.808  0.00  0.00    -0.082 Cl
ATOM     16 BR   UNL A   1     -26.351   3.467  26.812  0.00  0.00    -0.049 Br
ENDBRANCH   7  12
ENDBRANCH   1   7
BRANCH   5  17
ATOM     17  O   UNL A   1     -24.527  -1.333  29.839  0.00  0.00    -0.454 OA
BRANCH  17  18
ATOM     18  C   UNL A   1     -24.715  -2.637  29.493  0.00  0.00    +0.145 A 
ATOM     19  C   UNL A   1     -25.987  -3.112  29.880  0.00  0.00    +0.037 A 
ATOM     20  C   UNL A   1     -26.250  -4.476  29.746  0.00  0.00    +0.003 A 
ATOM     21  C   UNL A   1     -25.333  -5.258  28.979  0.00  0.00    +0.000 A 
ATOM     22  C   UNL A   1     -24.122  -4.749  28.620  0.00  0.00    +0.003 A 
ATOM     23  C   UNL A   1     -23.857  -3.496  28.935  0.00  0.00    +0.037 A 
ENDBRANCH  17  18
ENDBRANCH   5  17
TORSDOF 4
ENDMDL
ENDMDL
