MODEL 4439
MODEL 1
REMARK VINA RESULT:    -5.765      0.000      0.000
REMARK INTER + INTRA:          -6.288
REMARK INTER:                  -6.102
REMARK INTRA:                  -0.186
REMARK UNBOUND:                -0.186
REMARK  Name = No_4439-gen_results/8p0m/2024-11-27-11-27-31/
REMARK  1 active torsions:
REMARK  status: ('A' for Active; 'I' for Inactive)
REMARK    1  A    between atoms: C_2  and  C_9
REMARK                            x       y       z     vdW  Elec       q    Type
REMARK                         _______ _______ _______ _____ _____    ______ ____
ROOT
ATOM      1  C   UNL A   1      -9.673  -9.459  19.698  0.00  0.00    +0.141 A 
ATOM      2  C   UNL A   1      -8.562  -9.887  19.486  0.00  0.00    +0.027 A 
ATOM      3  C   UNL A   1      -8.239 -10.666  18.392  0.00  0.00    +0.004 A 
ATOM      4  C   UNL A   1      -9.264 -10.944  17.445  0.00  0.00    +0.018 A 
ATOM      5  C   UNL A   1     -10.441 -10.303  17.636  0.00  0.00    +0.091 A 
ATOM      6  C   UNL A   1     -10.649  -9.542  18.693  0.00  0.00    +0.048 A 
ATOM      7  F   UNL A   1      -9.924  -8.660  20.755  0.00  0.00    -0.204 F 
ATOM      8  N   UNL A   1     -11.428 -10.558  16.681  0.00  0.00    -0.128 NA
ENDROOT
BRANCH   2   9
ATOM      9  C   UNL A   1      -7.402  -9.732  20.540  0.00  0.00    -0.002 C 
ATOM     10  C   UNL A   1      -6.500  -8.778  20.455  0.00  0.00    -0.026 C 
ATOM     11  C   UNL A   1      -6.784  -7.645  19.565  0.00  0.00    +0.031 C 
ENDBRANCH   2   9
TORSDOF 1
ENDMDL
ENDMDL
