REMARK  Name = No_4440-gen_results/8p0m/2024-11-27-11-27-31/
REMARK  6 active torsions:
REMARK  status: ('A' for Active; 'I' for Inactive)
REMARK    1  A    between atoms: C_2  and  C_16
REMARK    2  A    between atoms: C_4  and  C_6
REMARK    3  A    between atoms: C_5  and  C_13
REMARK    4  A    between atoms: C_6  and  N_8
REMARK    5  A    between atoms: N_8  and  C_10
REMARK    6  A    between atoms: C_16  and  C_17
REMARK                            x       y       z     vdW  Elec       q    Type
REMARK                         _______ _______ _______ _____ _____    ______ ____
ROOT
ATOM      1  C   UNL A   1     -28.016  -0.814  28.878  0.00  0.00    +0.003 A 
ATOM      2  C   UNL A   1     -27.064  -0.119  28.608  0.00  0.00    -0.018 A 
ATOM      3  C   UNL A   1     -26.876   1.133  28.913  0.00  0.00    -0.005 A 
ATOM      4  C   UNL A   1     -27.901   1.807  29.644  0.00  0.00    +0.013 A 
ATOM      5  C   UNL A   1     -29.046  -0.232  29.718  0.00  0.00    +0.079 A 
ATOM      6  C   UNL A   1     -28.951   1.041  30.048  0.00  0.00    +0.005 A 
ENDROOT
BRANCH   5   7
ATOM      7  C   UNL A   1     -30.165  -1.102  30.181  0.00  0.00    +0.388 C 
ATOM      8  O   UNL A   1     -29.993  -2.148  30.634  0.00  0.00    -0.241 OA
ATOM      9  O   UNL A   1     -31.340  -0.604  30.171  0.00  0.00    -0.241 OA
ENDBRANCH   5   7
BRANCH   4  10
ATOM     10  C   UNL A   1     -27.752   3.200  30.017  0.00  0.00    +0.195 C 
ATOM     11 CL   UNL A   1     -27.341   4.284  28.776  0.00  0.00    -0.086 Cl
BRANCH  10  12
ATOM     12  N   UNL A   1     -27.872   3.604  31.115  0.00  0.00    -0.192 NA
BRANCH  12  13
ATOM     13  C   UNL A   1     -27.363   4.096  31.884  0.00  0.00    +0.209 C 
ATOM     14  C   UNL A   1     -27.806   4.416  33.232  0.00  0.00    +0.050 C 
ATOM     15  F   UNL A   1     -26.080   4.554  31.665  0.00  0.00    -0.186 F 
ENDBRANCH  12  13
ENDBRANCH  10  12
ENDBRANCH   4  10
BRANCH   2  16
ATOM     16  C   UNL A   1     -25.879  -0.696  27.767  0.00  0.00    +0.052 C 
BRANCH  16  17
ATOM     17  C   UNL A   1     -24.665  -1.010  28.631  0.00  0.00    -0.026 C 
ATOM     18  C   UNL A   1     -24.523  -2.260  29.123  0.00  0.00    -0.030 C 
ATOM     19  C   UNL A   1     -23.291  -2.553  29.781  0.00  0.00    +0.030 C 
ENDBRANCH  16  17
ENDBRANCH   2  16
TORSDOF 6
