MODEL 4441
MODEL 1
REMARK VINA RESULT:    -6.686      0.000      0.000
REMARK INTER + INTRA:         -10.727
REMARK INTER:                  -8.640
REMARK INTRA:                  -2.087
REMARK UNBOUND:                -2.087
REMARK  Name = No_4441-gen_results/8p0m/2024-11-27-11-27-31/
REMARK  5 active torsions:
REMARK  status: ('A' for Active; 'I' for Inactive)
REMARK    1  A    between atoms: C_3  and  C_4
REMARK    2  A    between atoms: C_6  and  C_14
REMARK    3  A    between atoms: C_9  and  C_10
REMARK    4  A    between atoms: C_10  and  C_18
REMARK    5  A    between atoms: C_19  and  C_20
REMARK                            x       y       z     vdW  Elec       q    Type
REMARK                         _______ _______ _______ _____ _____    ______ ____
ROOT
ATOM      1  C   UNL A   1     -24.598  -0.457  27.667  0.00  0.00    -0.014 A 
ATOM      2  C   UNL A   1     -24.672  -1.658  28.419  0.00  0.00    -0.004 A 
ATOM      3  C   UNL A   1     -23.534   0.439  28.076  0.00  0.00    -0.021 A 
ATOM      4  C   UNL A   1     -23.704  -2.142  29.260  0.00  0.00    -0.000 A 
ATOM      5  C   UNL A   1     -22.568  -1.327  29.577  0.00  0.00    -0.000 A 
ATOM      6  C   UNL A   1     -22.493  -0.078  29.041  0.00  0.00    -0.004 A 
ENDROOT
BRANCH   1   9
ATOM      7  C   UNL A   1     -26.098   0.002  24.343  0.00  0.00    -0.083 C 
ATOM      8  C   UNL A   1     -25.334  -0.319  25.223  0.00  0.00    -0.087 C 
ATOM      9  C   UNL A   1     -25.496  -0.088  26.576  0.00  0.00    +0.086 C 
ATOM     10  C   UNL A   1     -27.319   0.825  24.763  0.00  0.00    +0.159 C 
ATOM     11  C   UNL A   1     -27.636   1.019  26.093  0.00  0.00    +0.023 C 
ATOM     12  C   UNL A   1     -26.712   0.565  27.078  0.00  0.00    +0.019 C 
BRANCH  10  13
ATOM     13  C   UNL A   1     -28.282   1.300  23.748  0.00  0.00    +0.408 C 
ATOM     14  F   UNL A   1     -28.100   2.142  23.163  0.00  0.00    -0.169 F 
ATOM     15  F   UNL A   1     -29.450   1.561  24.563  0.00  0.00    -0.169 F 
ATOM     16  F   UNL A   1     -28.682   0.196  23.044  0.00  0.00    -0.169 F 
ENDBRANCH  10  13
ENDBRANCH   1   9
BRANCH   3  17
ATOM     17  C   UNL A   1     -23.346   1.709  27.675  0.00  0.00    +0.052 C 
BRANCH  17  18
ATOM     18  C   UNL A   1     -22.767   1.942  26.666  0.00  0.00    -0.021 C 
ATOM     19  C   UNL A   1     -23.288   2.808  25.594  0.00  0.00    -0.004 C 
BRANCH  19  20
ATOM     20  C   UNL A   1     -24.530   3.332  25.819  0.00  0.00    -0.000 C 
ATOM     21  C   UNL A   1     -24.737   4.626  26.296  0.00  0.00    -0.000 C 
ENDBRANCH  19  20
ENDBRANCH  17  18
ENDBRANCH   3  17
TORSDOF 5
ENDMDL
ENDMDL
