REMARK  Name = outputs/IAG933/test6/raw/output_4441_IAG933_linker_design_.xyz
REMARK  18 active torsions:
REMARK  status: ('A' for Active; 'I' for Inactive)
REMARK    1  A    between atoms: C_1  and  C_2
REMARK    2  A    between atoms: C_1  and  C_8
REMARK    3  A    between atoms: C_9  and  C_33
REMARK    4  A    between atoms: C_13  and  N_37
REMARK    5  A    between atoms: C_14  and  C_15
REMARK    6  A    between atoms: C_21  and  O_22
REMARK    7  A    between atoms: O_22  and  C_23
REMARK    8  A    between atoms: C_23  and  C_24
REMARK    9  A    between atoms: C_28  and  C_43
REMARK   10  A    between atoms: C_30  and  C_39
REMARK   11  A    between atoms: C_30  and  C_46
REMARK   12  A    between atoms: C_31  and  C_40
REMARK   13  A    between atoms: C_31  and  O_47
REMARK   14  A    between atoms: C_33  and  C_42
REMARK   15  A    between atoms: C_33  and  C_45
REMARK   16  A    between atoms: N_34  and  C_40
REMARK   17  A    between atoms: N_34  and  C_42
REMARK   18  A    between atoms: N_34  and  C_43
REMARK                            x       y       z     vdW  Elec       q    Type
REMARK                         _______ _______ _______ _____ _____    ______ ____
ROOT
ATOM      1  C   UNL A   1     -25.851   1.962  31.318  0.00  0.00    +0.039 C 
ENDROOT
BRANCH   1   3
ATOM      2  C   UNL A   1     -25.387  -0.679  31.571  0.00  0.00    +0.077 C 
ATOM      3  C   UNL A   1     -25.189   0.773  32.028  0.00  0.00    +0.023 C 
ATOM      4  C   UNL A   1     -25.336   0.684  33.544  0.00  0.00    +0.021 C 
ATOM      5  C   UNL A   1     -24.829  -0.715  33.905  0.00  0.00    +0.089 C 
ATOM      6  N   UNL A   1     -24.758  -1.481  32.646  0.00  0.00    -0.219 NA
BRANCH   2   7
ATOM      7  C   UNL A   1     -24.855  -1.012  30.143  0.00  0.00    +0.044 C 
BRANCH   7   8
ATOM      8  C   UNL A   1     -24.973  -2.505  29.788  0.00  0.00    -0.021 C 
ATOM      9  C   UNL A   1     -23.906  -3.173  29.146  0.00  0.00    -0.004 C 
ATOM     10  C   UNL A   1     -23.989  -4.549  28.853  0.00  0.00    -0.000 C 
ATOM     11  C   UNL A   1     -25.137  -5.280  29.205  0.00  0.00    -0.000 C 
ATOM     12  C   UNL A   1     -26.232  -4.611  29.784  0.00  0.00    -0.000 C 
ATOM     13  C   UNL A   1     -26.155  -3.232  30.065  0.00  0.00    -0.004 C 
ENDBRANCH   7   8
ENDBRANCH   2   7
ENDBRANCH   1   3
BRANCH   1  14
ATOM     14  C   UNL A   1     -24.766   1.853  30.119  0.00  0.00    -0.029 C 
ATOM     15  C   UNL A   1     -23.134   1.711  29.644  0.00  0.00    -0.022 C 
BRANCH  15  16
ATOM     16  C   UNL A   1     -22.527   1.236  28.224  0.00  0.00    +0.100 C 
ATOM     17  C   UNL A   1     -21.154   1.754  27.819  0.00  0.00    +0.014 C 
BRANCH  16  20
ATOM     18  O   UNL A   1     -23.171   2.292  26.146  0.00  0.00    -0.273 OA
ATOM     19  N   UNL A   1     -24.761   1.360  27.450  0.00  0.00    -0.199 NA
ATOM     20  C   UNL A   1     -23.506   1.666  27.176  0.00  0.00    +0.245 C 
BRANCH  19  21
ATOM     21  C   UNL A   1     -25.688   1.614  26.461  0.00  0.00    +0.165 C 
ATOM     22  C   UNL A   1     -26.250   2.920  26.395  0.00  0.00    +0.075 C 
ATOM     23  C   UNL A   1     -27.438   3.091  25.645  0.00  0.00    +0.104 C 
ATOM     24  N   UNL A   1     -28.075   2.089  25.003  0.00  0.00    -0.212 NA
ATOM     25  C   UNL A   1     -27.543   0.849  25.079  0.00  0.00    +0.236 C 
ATOM     26  C   UNL A   1     -26.354   0.576  25.777  0.00  0.00    +0.260 C 
ATOM     27  F   UNL A   1     -25.860  -0.681  25.795  0.00  0.00    -0.225 F 
BRANCH  22  28
ATOM     28  C   UNL A   1     -25.642   4.093  27.123  0.00  0.00    +0.264 C 
ATOM     29  N   UNL A   1     -25.614   5.252  26.449  0.00  0.00    -0.200 NA
ATOM     30  C   UNL A   1     -25.026   6.479  26.963  0.00  0.00    +0.139 C 
ATOM     31  O   UNL A   1     -25.143   3.966  28.243  0.00  0.00    -0.269 OA
ENDBRANCH  22  28
BRANCH  25  32
ATOM     32  O   UNL A   1     -28.193  -0.208  24.477  0.00  0.00    -0.459 OA
BRANCH  32  33
ATOM     33  C   UNL A   1     -29.460   0.005  23.866  0.00  0.00    +0.242 C 
BRANCH  33  34
ATOM     34  C   UNL A   1     -30.065  -1.377  23.573  0.00  0.00    +0.229 C 
ATOM     35  O   UNL A   1     -30.729  -1.878  24.721  0.00  0.00    -0.216 OA
ENDBRANCH  33  34
ENDBRANCH  32  33
ENDBRANCH  25  32
ENDBRANCH  19  21
ENDBRANCH  16  20
ENDBRANCH  15  16
ENDBRANCH   1  14
BRANCH   1  36
ATOM     36  C   UNL A   1     -25.787   3.323  31.787  0.00  0.00    +0.081 C 
BRANCH  36  37
ATOM     37  N   UNL A   1     -26.483   4.363  31.638  0.00  0.00    -0.218 NA
BRANCH  37  40
ATOM     38  F   UNL A   1     -26.107   6.343  30.633  0.00  0.00    -0.183 F 
ATOM     39  O   UNL A   1     -24.521   5.483  31.931  0.00  0.00    -0.167 OA
ATOM     40  C   UNL A   1     -25.891   5.772  31.786  0.00  0.00    +0.363 C 
BRANCH  40  41
ATOM     41  C   UNL A   1     -26.176   6.718  33.018  0.00  0.00    +0.331 C 
ATOM     42  F   UNL A   1     -27.302   7.213  32.894  0.00  0.00    -0.197 F 
ATOM     43  F   UNL A   1     -25.111   7.425  32.969  0.00  0.00    -0.197 F 
ATOM     44  C   UNL A   1     -26.107   5.719  34.169  0.00  0.00    +0.080 C 
ENDBRANCH  40  41
ENDBRANCH  37  40
BRANCH  37  45
ATOM     45  C   UNL A   1     -27.942   4.165  31.198  0.00  0.00    +0.109 C 
BRANCH  45  46
ATOM     46  C   UNL A   1     -28.908   2.940  31.267  0.00  0.00    +0.160 C 
BRANCH  46  48
ATOM     47  C   UNL A   1     -28.722   1.212  29.558  0.00  0.00    +0.174 C 
ATOM     48  O   UNL A   1     -28.618   1.557  30.976  0.00  0.00    -0.350 OA
ENDBRANCH  46  48
ENDBRANCH  45  46
ENDBRANCH  37  45
ENDBRANCH  36  37
ENDBRANCH   1  36
TORSDOF 18
