MODEL 4442
MODEL 1
REMARK VINA RESULT:    -5.861      0.000      0.000
REMARK INTER + INTRA:          -7.612
REMARK INTER:                  -6.889
REMARK INTRA:                  -0.723
REMARK UNBOUND:                -0.723
REMARK  Name = No_4442-gen_results/8p0m/2024-11-27-11-27-31/
REMARK  3 active torsions:
REMARK  status: ('A' for Active; 'I' for Inactive)
REMARK    1  A    between atoms: C_2  and  C_17
REMARK    2  A    between atoms: C_4  and  C_7
REMARK    3  A    between atoms: C_8  and  C_14
REMARK                            x       y       z     vdW  Elec       q    Type
REMARK                         _______ _______ _______ _____ _____    ______ ____
ROOT
ATOM      1  C   UNL A   1     -24.485   1.172  27.305  0.00  0.00    +0.044 C 
ATOM      2  C   UNL A   1     -23.295   1.728  26.751  0.00  0.00    +0.098 C 
ATOM      3  C   UNL A   1     -22.073   1.527  27.425  0.00  0.00    +0.029 C 
ATOM      4  C   UNL A   1     -22.066   0.820  28.652  0.00  0.00    +0.089 C 
ATOM      5  C   UNL A   1     -24.777   1.937  28.524  0.00  0.00    +0.006 C 
ATOM      6  C   UNL A   1     -24.104  -0.283  27.903  0.00  0.00    +0.093 C 
ATOM      7  N   UNL A   1     -23.041   0.010  28.914  0.00  0.00    -0.218 NA
ENDROOT
BRANCH   1  11
ATOM      8  C   UNL A   1     -27.784   1.304  25.329  0.00  0.00    +0.006 A 
ATOM      9  C   UNL A   1     -27.609   0.431  24.766  0.00  0.00    +0.080 A 
ATOM     10  C   UNL A   1     -26.713   1.652  26.338  0.00  0.00    -0.004 A 
ATOM     11  C   UNL A   1     -25.519   0.901  26.366  0.00  0.00    -0.021 A 
ATOM     12  C   UNL A   1     -26.464  -0.489  24.578  0.00  0.00    +0.006 A 
ATOM     13  C   UNL A   1     -25.456  -0.196  25.486  0.00  0.00    -0.004 A 
BRANCH   9  14
ATOM     14  C   UNL A   1     -28.741   0.090  23.674  0.00  0.00    +0.388 C 
ATOM     15  O   UNL A   1     -28.931  -1.128  23.347  0.00  0.00    -0.241 OA
ATOM     16  O   UNL A   1     -29.457   0.972  23.290  0.00  0.00    -0.241 OA
ENDBRANCH   9  14
ENDBRANCH   1  11
BRANCH   2  17
ATOM     17  C   UNL A   1     -23.281   2.510  25.531  0.00  0.00    +0.310 C 
ATOM     18  O   UNL A   1     -22.352   2.527  24.729  0.00  0.00    -0.259 OA
ATOM     19  F   UNL A   1     -23.908   3.708  25.688  0.00  0.00    -0.164 F 
ENDBRANCH   2  17
TORSDOF 3
ENDMDL
ENDMDL
