REMARK  Name = outputs/IAG933/test6/raw/output_4442_IAG933_linker_design_.xyz
REMARK  13 active torsions:
REMARK  status: ('A' for Active; 'I' for Inactive)
REMARK    1  A    between atoms: C_1  and  C_2
REMARK    2  A    between atoms: C_1  and  C_8
REMARK    3  A    between atoms: C_1  and  C_39
REMARK    4  A    between atoms: C_13  and  C_38
REMARK    5  A    between atoms: C_14  and  C_15
REMARK    6  A    between atoms: C_21  and  O_22
REMARK    7  A    between atoms: O_22  and  C_23
REMARK    8  A    between atoms: C_23  and  C_24
REMARK    9  A    between atoms: C_28  and  O_31
REMARK   10  A    between atoms: O_31  and  C_34
REMARK   11  A    between atoms: C_34  and  N_36
REMARK   12  A    between atoms: N_36  and  C_37
REMARK   13  A    between atoms: C_40  and  C_44
REMARK                            x       y       z     vdW  Elec       q    Type
REMARK                         _______ _______ _______ _____ _____    ______ ____
ROOT
ATOM      1  C   UNL A   1     -25.423   0.089  28.171  0.00  0.00    +0.147 C 
ATOM      2  C   UNL A   1     -24.867   1.177  27.421  0.00  0.00    +0.067 C 
ATOM      3  C   UNL A   1     -24.642   0.069  29.370  0.00  0.00    +0.148 C 
ATOM      4  C   UNL A   1     -23.468   1.407  27.925  0.00  0.00    +0.150 C 
ATOM      5  O   UNL A   1     -23.209   0.375  28.712  0.00  0.00    -0.353 OA
ENDROOT
BRANCH   2   6
ATOM      6  C   UNL A   1     -25.688   1.614  26.461  0.00  0.00    +0.075 C 
ATOM      7  C   UNL A   1     -26.250   2.920  26.395  0.00  0.00    +0.055 C 
ATOM      8  C   UNL A   1     -27.438   3.091  25.645  0.00  0.00    +0.102 C 
ATOM      9  N   UNL A   1     -28.075   2.089  25.003  0.00  0.00    -0.212 NA
ATOM     10  C   UNL A   1     -27.543   0.849  25.079  0.00  0.00    +0.234 C 
ATOM     11  C   UNL A   1     -26.354   0.576  25.777  0.00  0.00    +0.240 C 
ATOM     12  F   UNL A   1     -25.860  -0.681  25.795  0.00  0.00    -0.227 F 
BRANCH   7  13
ATOM     13  C   UNL A   1     -25.642   4.093  27.123  0.00  0.00    +0.262 C 
ATOM     14  N   UNL A   1     -25.614   5.252  26.449  0.00  0.00    -0.200 NA
ATOM     15  C   UNL A   1     -25.026   6.479  26.963  0.00  0.00    +0.139 C 
ATOM     16  O   UNL A   1     -25.143   3.966  28.243  0.00  0.00    -0.269 OA
ENDBRANCH   7  13
BRANCH  10  17
ATOM     17  O   UNL A   1     -28.193  -0.208  24.477  0.00  0.00    -0.459 OA
BRANCH  17  18
ATOM     18  C   UNL A   1     -29.460   0.005  23.866  0.00  0.00    +0.242 C 
BRANCH  18  19
ATOM     19  C   UNL A   1     -30.065  -1.377  23.573  0.00  0.00    +0.229 C 
ATOM     20  O   UNL A   1     -30.729  -1.878  24.721  0.00  0.00    -0.216 OA
ENDBRANCH  18  19
ENDBRANCH  17  18
ENDBRANCH  10  17
ENDBRANCH   2   6
BRANCH   4  23
ATOM     21  C   UNL A   1     -22.425   1.863  25.586  0.00  0.00    +0.041 C 
ATOM     22  F   UNL A   1     -21.037   1.582  27.488  0.00  0.00    -0.235 F 
ATOM     23  C   UNL A   1     -22.238   1.299  26.945  0.00  0.00    +0.188 C 
ENDBRANCH   4  23
BRANCH   3  24
ATOM     24  C   UNL A   1     -24.855  -1.012  30.143  0.00  0.00    +0.068 C 
BRANCH  24  25
ATOM     25  C   UNL A   1     -24.973  -2.505  29.788  0.00  0.00    -0.019 C 
ATOM     26  C   UNL A   1     -23.906  -3.173  29.146  0.00  0.00    -0.004 C 
ATOM     27  C   UNL A   1     -23.989  -4.549  28.853  0.00  0.00    -0.000 C 
ATOM     28  C   UNL A   1     -25.137  -5.280  29.205  0.00  0.00    -0.000 C 
ATOM     29  C   UNL A   1     -26.232  -4.611  29.784  0.00  0.00    -0.000 C 
ATOM     30  C   UNL A   1     -26.155  -3.232  30.065  0.00  0.00    -0.004 C 
ENDBRANCH  24  25
BRANCH  24  31
ATOM     31  C   UNL A   1     -25.387  -0.679  31.571  0.00  0.00    +0.079 C 
ATOM     32  C   UNL A   1     -25.189   0.773  32.028  0.00  0.00    +0.019 C 
ATOM     33  C   UNL A   1     -25.336   0.684  33.544  0.00  0.00    +0.020 C 
ATOM     34  C   UNL A   1     -24.829  -0.715  33.905  0.00  0.00    +0.089 C 
ATOM     35  N   UNL A   1     -24.758  -1.481  32.646  0.00  0.00    -0.219 NA
ENDBRANCH  24  31
ENDBRANCH   3  24
BRANCH   1  36
ATOM     36  O   UNL A   1     -26.908  -0.141  28.280  0.00  0.00    -0.334 OA
BRANCH  36  37
ATOM     37  C   UNL A   1     -27.683   0.022  29.562  0.00  0.00    +0.247 C 
BRANCH  37  40
ATOM     38  O   UNL A   1     -29.568  -0.491  27.300  0.00  0.00    -0.222 OA
ATOM     39  O   UNL A   1     -29.649   1.204  28.525  0.00  0.00    -0.222 OA
ATOM     40  N   UNL A   1     -28.990  -0.628  29.457  0.00  0.00    -0.194 N 
ATOM     41  C   UNL A   1     -29.469   0.040  28.428  0.00  0.00    +0.451 C 
BRANCH  40  43
ATOM     42  C   UNL A   1     -31.463  -1.529  31.180  0.00  0.00    +0.144 C 
ATOM     43  C   UNL A   1     -29.493  -1.602  30.319  0.00  0.00    +0.199 C 
ATOM     44  C   UNL A   1     -29.476  -3.136  30.152  0.00  0.00    +0.051 C 
ATOM     45  C   UNL A   1     -31.943  -3.756  30.715  0.00  0.00    +0.003 C 
ATOM     46  C   UNL A   1     -32.204  -1.199  29.814  0.00  0.00    +0.003 C 
ATOM     47  O   UNL A   1     -30.120  -1.331  31.490  0.00  0.00    -0.337 OA
ATOM     48  C   UNL A   1     -30.439  -4.046  30.988  0.00  0.00    +0.004 C 
ATOM     49  C   UNL A   1     -32.264  -2.217  30.819  0.00  0.00    +0.030 C 
ENDBRANCH  40  43
ENDBRANCH  37  40
ENDBRANCH  36  37
ENDBRANCH   1  36
TORSDOF 13
