REMARK  Name = No_4443-gen_results/8p0m/2024-11-27-11-27-31/
REMARK  5 active torsions:
REMARK  status: ('A' for Active; 'I' for Inactive)
REMARK    1  A    between atoms: C_5  and  N_7
REMARK    2  A    between atoms: N_7  and  C_8
REMARK    3  A    between atoms: N_7  and  C_12
REMARK    4  A    between atoms: C_8  and  C_9
REMARK    5  A    between atoms: C_9  and  N_11
REMARK                            x       y       z     vdW  Elec       q    Type
REMARK                         _______ _______ _______ _____ _____    ______ ____
ROOT
ATOM      1  N   UNL A   1     -30.352   0.156  26.243  0.00  0.00    -0.289 N 
ENDROOT
BRANCH   1   6
ATOM      2  C   UNL A   1     -28.016  -0.814  28.878  0.00  0.00    +0.001 A 
ATOM      3  C   UNL A   1     -27.064  -0.119  28.608  0.00  0.00    +0.000 A 
ATOM      4  C   UNL A   1     -27.001   0.691  27.491  0.00  0.00    +0.001 A 
ATOM      5  C   UNL A   1     -28.137   0.736  26.635  0.00  0.00    +0.015 A 
ATOM      6  C   UNL A   1     -29.236   0.076  27.069  0.00  0.00    +0.051 A 
ATOM      7  C   UNL A   1     -29.218  -0.643  28.175  0.00  0.00    +0.015 A 
ENDBRANCH   1   6
BRANCH   1   8
ATOM      8  C   UNL A   1     -31.628   0.148  26.952  0.00  0.00    +0.054 C 
ATOM      9  C   UNL A   1     -32.102  -1.016  27.542  0.00  0.00    +0.109 C 
ATOM     10  N   UNL A   1     -33.248  -0.983  27.940  0.00  0.00    -0.246 NA
ATOM     11  C   UNL A   1     -34.021   0.007  27.651  0.00  0.00    +0.079 C 
ATOM     12  C   UNL A   1     -32.914   0.659  26.388  0.00  0.00    +0.090 C 
ENDBRANCH   1   8
BRANCH   1  13
ATOM     13  C   UNL A   1     -30.269   0.123  24.937  0.00  0.00    +0.094 C 
ATOM     14  C   UNL A   1     -31.389   0.856  24.254  0.00  0.00    +0.023 C 
BRANCH  13  15
ATOM     15  C   UNL A   1     -29.612  -0.525  24.382  0.00  0.00    +0.109 C 
BRANCH  15  16
ATOM     16  N   UNL A   1     -28.600  -1.264  24.893  0.00  0.00    -0.215 NA
ATOM     17  C   UNL A   1     -27.669  -1.891  23.907  0.00  0.00    +0.107 C 
ENDBRANCH  15  16
ENDBRANCH  13  15
ENDBRANCH   1  13
TORSDOF 5
