MODEL 4443
MODEL 1
REMARK VINA RESULT:    -5.875      0.000      0.000
REMARK INTER + INTRA:          -8.131
REMARK INTER:                  -7.592
REMARK INTRA:                  -0.539
REMARK UNBOUND:                -0.539
REMARK  Name = No_4443-gen_results/8p0m/2024-11-27-11-27-31/
REMARK  5 active torsions:
REMARK  status: ('A' for Active; 'I' for Inactive)
REMARK    1  A    between atoms: C_5  and  N_7
REMARK    2  A    between atoms: N_7  and  C_8
REMARK    3  A    between atoms: N_7  and  C_12
REMARK    4  A    between atoms: C_8  and  C_9
REMARK    5  A    between atoms: C_9  and  N_11
REMARK                            x       y       z     vdW  Elec       q    Type
REMARK                         _______ _______ _______ _____ _____    ______ ____
ROOT
ATOM      1  N   UNL A   1     -24.268  -1.322  29.653  0.00  0.00    -0.289 N 
ENDROOT
BRANCH   1   6
ATOM      2  C   UNL A   1     -26.253  -4.388  29.687  0.00  0.00    +0.001 A 
ATOM      3  C   UNL A   1     -25.482  -5.167  29.176  0.00  0.00    +0.000 A 
ATOM      4  C   UNL A   1     -24.252  -4.800  28.665  0.00  0.00    +0.001 A 
ATOM      5  C   UNL A   1     -23.859  -3.438  28.784  0.00  0.00    +0.015 A 
ATOM      6  C   UNL A   1     -24.679  -2.643  29.512  0.00  0.00    +0.051 A 
ATOM      7  C   UNL A   1     -25.820  -3.091  30.000  0.00  0.00    +0.015 A 
ENDBRANCH   1   6
BRANCH   1   8
ATOM      8  C   UNL A   1     -24.978  -0.377  28.796  0.00  0.00    +0.054 C 
ATOM      9  C   UNL A   1     -26.156   0.220  29.225  0.00  0.00    +0.109 C 
ATOM     10  N   UNL A   1     -26.776   0.838  28.385  0.00  0.00    -0.246 NA
ATOM     11  C   UNL A   1     -26.452   0.772  27.140  0.00  0.00    +0.079 C 
ATOM     12  C   UNL A   1     -25.359  -0.641  27.376  0.00  0.00    +0.090 C 
ENDBRANCH   1   8
BRANCH   1  13
ATOM     13  C   UNL A   1     -23.253  -0.973  30.402  0.00  0.00    +0.094 C 
ATOM     14  C   UNL A   1     -23.530  -1.107  31.873  0.00  0.00    +0.023 C 
BRANCH  13  15
ATOM     15  C   UNL A   1     -22.385  -0.443  30.048  0.00  0.00    +0.109 C 
BRANCH  15  16
ATOM     16  N   UNL A   1     -21.502  -0.884  29.123  0.00  0.00    -0.215 NA
ATOM     17  C   UNL A   1     -20.748   0.162  28.369  0.00  0.00    +0.107 C 
ENDBRANCH  15  16
ENDBRANCH  13  15
ENDBRANCH   1  13
TORSDOF 5
ENDMDL
ENDMDL
