MODEL 4444
MODEL 1
REMARK VINA RESULT:    -6.545      0.000      0.000
REMARK INTER + INTRA:          -7.324
REMARK INTER:                  -6.928
REMARK INTRA:                  -0.397
REMARK UNBOUND:                -0.397
REMARK  Name = No_4444-gen_results/8p0m/2024-11-27-11-27-31/
REMARK  1 active torsions:
REMARK  status: ('A' for Active; 'I' for Inactive)
REMARK    1  A    between atoms: C_3  and  C_4
REMARK                            x       y       z     vdW  Elec       q    Type
REMARK                         _______ _______ _______ _____ _____    ______ ____
ROOT
ATOM      1  C   UNL A   1     -25.667  -2.568  29.810  0.00  0.00    +0.000 A 
ATOM      2  C   UNL A   1     -26.234  -3.451  29.902  0.00  0.00    +0.000 A 
ATOM      3  C   UNL A   1     -24.387  -2.666  29.221  0.00  0.00    +0.000 A 
ATOM      4  C   UNL A   1     -25.932  -4.844  29.530  0.00  0.00    +0.000 A 
ATOM      5  C   UNL A   1     -24.679  -5.018  28.943  0.00  0.00    +0.000 A 
ATOM      6  C   UNL A   1     -23.891  -3.933  28.730  0.00  0.00    +0.000 A 
ENDROOT
BRANCH   3   7
ATOM      7  C   UNL A   1     -23.507  -1.507  28.918  0.00  0.00    +0.000 A 
ATOM      8  C   UNL A   1     -22.464  -1.182  29.220  0.00  0.00    +0.000 A 
ATOM      9  C   UNL A   1     -21.690  -0.042  28.848  0.00  0.00    +0.000 A 
ATOM     10  C   UNL A   1     -22.425   0.864  27.975  0.00  0.00    +0.000 A 
ATOM     11  C   UNL A   1     -23.655   0.563  27.673  0.00  0.00    +0.000 A 
ATOM     12  C   UNL A   1     -24.250  -0.540  28.062  0.00  0.00    +0.000 A 
ENDBRANCH   3   7
TORSDOF 1
ENDMDL
ENDMDL
