MODEL 4445
MODEL 1
REMARK VINA RESULT:    -5.365      0.000      0.000
REMARK INTER + INTRA:          -6.255
REMARK INTER:                  -5.992
REMARK INTRA:                  -0.263
REMARK UNBOUND:                -0.263
REMARK  Name = No_4445-gen_results/8p0m/2024-11-27-11-27-31/
REMARK  2 active torsions:
REMARK  status: ('A' for Active; 'I' for Inactive)
REMARK    1  A    between atoms: C_3  and  C_4
REMARK    2  A    between atoms: C_4  and  C_8
REMARK                            x       y       z     vdW  Elec       q    Type
REMARK                         _______ _______ _______ _____ _____    ______ ____
ROOT
ATOM      1  C   UNL A   1     -25.075  -5.206  29.173  0.00  0.00    -0.000 A 
ATOM      2  C   UNL A   1     -24.214  -4.412  28.872  0.00  0.00    -0.004 A 
ATOM      3  C   UNL A   1     -24.365  -3.055  29.134  0.00  0.00    -0.018 A 
ATOM      4  C   UNL A   1     -26.393  -4.732  29.601  0.00  0.00    -0.000 A 
ATOM      5  C   UNL A   1     -26.603  -3.428  29.975  0.00  0.00    -0.000 A 
ATOM      6  C   UNL A   1     -25.569  -2.521  29.731  0.00  0.00    -0.004 A 
ENDROOT
BRANCH   3   7
ATOM      7  C   UNL A   1     -23.357  -2.093  28.869  0.00  0.00    +0.052 C 
BRANCH   7   8
ATOM      8  C   UNL A   1     -23.492  -0.768  29.116  0.00  0.00    -0.026 C 
ATOM      9  C   UNL A   1     -22.375   0.107  29.096  0.00  0.00    -0.030 C 
ATOM     10  C   UNL A   1     -21.098  -0.312  28.774  0.00  0.00    +0.030 C 
ENDBRANCH   7   8
ENDBRANCH   3   7
TORSDOF 2
ENDMDL
ENDMDL
