REMARK  Name = outputs/IAG933/test6/raw/output_4445_IAG933_linker_design_.xyz
REMARK  18 active torsions:
REMARK  status: ('A' for Active; 'I' for Inactive)
REMARK    1  A    between atoms: C_1  and  C_2
REMARK    2  A    between atoms: C_1  and  C_8
REMARK    3  A    between atoms: C_1  and  N_34
REMARK    4  A    between atoms: C_14  and  C_15
REMARK    5  A    between atoms: C_15  and  O_18
REMARK    6  A    between atoms: O_18  and  C_46
REMARK    7  A    between atoms: C_21  and  O_22
REMARK    8  A    between atoms: O_22  and  C_23
REMARK    9  A    between atoms: C_23  and  C_24
REMARK   10  A    between atoms: C_28  and  C_37
REMARK   11  A    between atoms: C_28  and  C_40
REMARK   12  A    between atoms: C_30  and  C_40
REMARK   13  A    between atoms: C_31  and  O_36
REMARK   14  A    between atoms: C_31  and  C_46
REMARK   15  A    between atoms: C_33  and  C_42
REMARK   16  A    between atoms: C_33  and  C_46
REMARK   17  A    between atoms: O_36  and  C_37
REMARK   18  A    between atoms: C_37  and  C_47
REMARK                            x       y       z     vdW  Elec       q    Type
REMARK                         _______ _______ _______ _____ _____    ______ ____
ROOT
ATOM      1  C   UNL A   1     -25.231   3.349  29.535  0.00  0.00    +0.258 C 
ENDROOT
BRANCH   1   3
ATOM      2  O   UNL A   1     -25.746   4.894  31.359  0.00  0.00    -0.287 OA
ATOM      3  C   UNL A   1     -26.114   4.265  30.350  0.00  0.00    +0.215 C 
BRANCH   3   8
ATOM      4  C   UNL A   1     -29.868   4.652  28.755  0.00  0.00    +0.042 C 
ATOM      5  O   UNL A   1     -30.236   6.602  29.982  0.00  0.00    -0.287 OA
ATOM      6  C   UNL A   1     -27.892   3.432  29.135  0.00  0.00    +0.003 C 
ATOM      7  C   UNL A   1     -29.103   3.545  28.492  0.00  0.00    +0.003 C 
ATOM      8  C   UNL A   1     -27.425   4.435  29.977  0.00  0.00    +0.042 C 
ATOM      9  C   UNL A   1     -29.435   5.639  29.650  0.00  0.00    +0.196 C 
ATOM     10  C   UNL A   1     -28.214   5.565  30.279  0.00  0.00    +0.045 C 
ENDBRANCH   3   8
ENDBRANCH   1   3
BRANCH   1  11
ATOM     11  C   UNL A   1     -23.986   2.485  29.938  0.00  0.00    +0.194 C 
BRANCH  11  12
ATOM     12  O   UNL A   1     -23.318   2.442  28.606  0.00  0.00    -0.340 OA
BRANCH  12  13
ATOM     13  C   UNL A   1     -22.591   1.352  28.625  0.00  0.00    +0.229 C 
BRANCH  13  16
ATOM     14  N   UNL A   1     -24.485   0.028  29.304  0.00  0.00    -0.028 NA
ATOM     15  N   UNL A   1     -22.323  -0.551  29.639  0.00  0.00    +0.195 NA
ATOM     16  C   UNL A   1     -23.206   0.210  29.183  0.00  0.00    +0.417 C 
BRANCH  14  17
ATOM     17  C   UNL A   1     -24.855  -1.012  30.143  0.00  0.00    +0.243 C 
BRANCH  17  18
ATOM     18  C   UNL A   1     -24.973  -2.505  29.788  0.00  0.00    +0.025 C 
ATOM     19  C   UNL A   1     -23.906  -3.173  29.146  0.00  0.00    -0.000 C 
ATOM     20  C   UNL A   1     -23.989  -4.549  28.853  0.00  0.00    -0.000 C 
ATOM     21  C   UNL A   1     -25.137  -5.280  29.205  0.00  0.00    -0.000 C 
ATOM     22  C   UNL A   1     -26.232  -4.611  29.784  0.00  0.00    -0.000 C 
ATOM     23  C   UNL A   1     -26.155  -3.232  30.065  0.00  0.00    -0.000 C 
ENDBRANCH  17  18
BRANCH  17  24
ATOM     24  C   UNL A   1     -25.387  -0.679  31.571  0.00  0.00    +0.124 C 
ATOM     25  C   UNL A   1     -25.189   0.773  32.028  0.00  0.00    +0.024 C 
ATOM     26  C   UNL A   1     -25.336   0.684  33.544  0.00  0.00    +0.020 C 
ATOM     27  C   UNL A   1     -24.829  -0.715  33.905  0.00  0.00    +0.089 C 
ATOM     28  N   UNL A   1     -24.758  -1.481  32.646  0.00  0.00    -0.215 NA
ENDBRANCH  17  24
ENDBRANCH  14  17
ENDBRANCH  13  16
BRANCH  13  29
ATOM     29  C   UNL A   1     -21.306   1.433  27.668  0.00  0.00    +0.043 C 
BRANCH  29  30
ATOM     30  C   UNL A   1     -21.675   1.827  26.305  0.00  0.00    +0.003 C 
BRANCH  30  31
ATOM     31  C   UNL A   1     -22.401   0.894  25.527  0.00  0.00    +0.000 C 
ATOM     32  C   UNL A   1     -23.346   0.979  24.499  0.00  0.00    +0.000 C 
ENDBRANCH  30  31
ENDBRANCH  29  30
ENDBRANCH  13  29
ENDBRANCH  12  13
ENDBRANCH  11  12
ENDBRANCH   1  11
BRANCH   1  33
ATOM     33  O   UNL A   1     -25.143   3.966  28.243  0.00  0.00    -0.454 OA
BRANCH  33  34
ATOM     34  C   UNL A   1     -25.642   4.093  27.123  0.00  0.00    +0.222 C 
ATOM     35  N   UNL A   1     -25.614   5.252  26.449  0.00  0.00    -0.236 NA
ATOM     36  C   UNL A   1     -25.026   6.479  26.963  0.00  0.00    +0.155 C 
BRANCH  34  38
ATOM     37  C   UNL A   1     -25.688   1.614  26.461  0.00  0.00    +0.041 C 
ATOM     38  C   UNL A   1     -26.250   2.920  26.395  0.00  0.00    +0.074 C 
ATOM     39  C   UNL A   1     -27.438   3.091  25.645  0.00  0.00    +0.107 C 
ATOM     40  N   UNL A   1     -28.075   2.089  25.003  0.00  0.00    -0.208 NA
ATOM     41  C   UNL A   1     -27.543   0.849  25.079  0.00  0.00    +0.253 C 
ATOM     42  C   UNL A   1     -26.354   0.576  25.777  0.00  0.00    +0.193 C 
ATOM     43  F   UNL A   1     -25.860  -0.681  25.795  0.00  0.00    -0.199 F 
BRANCH  41  44
ATOM     44  O   UNL A   1     -28.193  -0.208  24.477  0.00  0.00    -0.456 OA
BRANCH  44  45
ATOM     45  C   UNL A   1     -29.460   0.005  23.866  0.00  0.00    +0.243 C 
BRANCH  45  46
ATOM     46  C   UNL A   1     -30.065  -1.377  23.573  0.00  0.00    +0.229 C 
ATOM     47  O   UNL A   1     -30.729  -1.878  24.721  0.00  0.00    -0.216 OA
ENDBRANCH  45  46
ENDBRANCH  44  45
ENDBRANCH  41  44
ENDBRANCH  34  38
ENDBRANCH  33  34
ENDBRANCH   1  33
TORSDOF 18
