MODEL 4446
MODEL 1
REMARK VINA RESULT:    -7.056      0.000      0.000
REMARK INTER + INTRA:          -8.692
REMARK INTER:                  -8.294
REMARK INTRA:                  -0.398
REMARK UNBOUND:                -0.398
REMARK  Name = No_4446-gen_results/8p0m/2024-11-27-11-27-31/
REMARK  3 active torsions:
REMARK  status: ('A' for Active; 'I' for Inactive)
REMARK    1  A    between atoms: C_2  and  C_8
REMARK    2  A    between atoms: C_8  and  C_9
REMARK    3  A    between atoms: C_12  and  C_13
REMARK                            x       y       z     vdW  Elec       q    Type
REMARK                         _______ _______ _______ _____ _____    ______ ____
ROOT
ATOM      1  C   UNL A   1     -24.486  -1.987  28.520  0.00  0.00    -0.048 C 
ATOM      2  C   UNL A   1     -25.119  -2.654  29.036  0.00  0.00    -0.023 C 
ATOM      3  C   UNL A   1     -25.120  -0.844  27.928  0.00  0.00    +0.023 C 
ATOM      4  C   UNL A   1     -24.317   0.260  27.362  0.00  0.00    +0.024 C 
ATOM      5  C   UNL A   1     -23.046   0.529  27.903  0.00  0.00    +0.074 C 
ATOM      6  C   UNL A   1     -22.496  -0.375  28.835  0.00  0.00    +0.022 C 
ATOM      7  C   UNL A   1     -23.180  -1.467  29.221  0.00  0.00    +0.023 C 
ATOM      8  C   UNL A   1     -24.830   1.265  26.435  0.00  0.00    +0.018 C 
ATOM      9  C   UNL A   1     -25.673   2.270  27.274  0.00  0.00    +0.004 C 
ATOM     10  C   UNL A   1     -23.603   2.059  25.883  0.00  0.00    +0.023 C 
ATOM     11  N   UNL A   1     -22.293   1.468  27.448  0.00  0.00    -0.219 NA
ATOM     12  C   UNL A   1     -22.506   2.290  26.544  0.00  0.00    +0.089 C 
ENDROOT
BRANCH   8  13
ATOM     13  C   UNL A   1     -25.593   0.793  25.442  0.00  0.00    -0.044 C 
ATOM     14  C   UNL A   1     -25.246   0.026  24.472  0.00  0.00    -0.009 C 
ATOM     15  C   UNL A   1     -26.937   1.369  25.244  0.00  0.00    +0.026 C 
ENDBRANCH   8  13
BRANCH   2  16
ATOM     16  C   UNL A   1     -24.532  -3.974  29.605  0.00  0.00    +0.139 C 
BRANCH  16  17
ATOM     17  C   UNL A   1     -24.501  -4.895  29.001  0.00  0.00    +0.369 C 
ATOM     18  O   UNL A   1     -25.136  -5.912  29.360  0.00  0.00    -0.245 OA
ATOM     19  O   UNL A   1     -23.599  -5.168  28.022  0.00  0.00    -0.245 OA
ENDBRANCH  16  17
ENDBRANCH   2  16
TORSDOF 3
ENDMDL
ENDMDL
