REMARK  Name = No_4447-gen_results/8p0m/2024-11-27-11-27-31/
REMARK  4 active torsions:
REMARK  status: ('A' for Active; 'I' for Inactive)
REMARK    1  A    between atoms: C_2  and  N_7
REMARK    2  A    between atoms: N_7  and  C_8
REMARK    3  A    between atoms: C_14  and  C_15
REMARK    4  A    between atoms: C_20  and  C_25
REMARK                            x       y       z     vdW  Elec       q    Type
REMARK                         _______ _______ _______ _____ _____    ______ ____
ROOT
ATOM      1  N   UNL A   1     -27.160   1.091  27.899  0.00  0.00    -0.218 N 
ATOM      2  C   UNL A   1     -26.587   2.325  28.595  0.00  0.00    +0.258 C 
ATOM      3  O   UNL A   1     -26.461   3.436  28.062  0.00  0.00    -0.269 OA
ENDROOT
BRANCH   1   5
ATOM      4  C   UNL A   1     -28.016  -0.814  28.878  0.00  0.00    +0.035 A 
ATOM      5  C   UNL A   1     -27.064  -0.119  28.608  0.00  0.00    +0.143 A 
ATOM      6  N   UNL A   1     -25.818  -0.343  29.049  0.00  0.00    -0.215 NA
ATOM      7  C   UNL A   1     -25.555  -1.473  29.730  0.00  0.00    +0.133 A 
ATOM      8  C   UNL A   1     -26.621  -2.299  30.105  0.00  0.00    +0.034 A 
ATOM      9  C   UNL A   1     -27.835  -1.970  29.676  0.00  0.00    +0.006 A 
ATOM     10  N   UNL A   1     -24.273  -1.823  30.146  0.00  0.00    -0.290 N 
ATOM     11  C   UNL A   1     -23.383  -2.374  29.240  0.00  0.00    +0.114 C 
ATOM     12  C   UNL A   1     -23.518  -0.729  30.870  0.00  0.00    +0.114 C 
ENDBRANCH   1   5
BRANCH   1  13
ATOM     13  C   UNL A   1     -27.689   1.188  26.719  0.00  0.00    +0.062 A 
ATOM     14  C   UNL A   1     -28.383   0.272  26.226  0.00  0.00    +0.045 A 
ATOM     15  C   UNL A   1     -28.949   0.350  24.893  0.00  0.00    +0.141 A 
ATOM     16  C   UNL A   1     -28.710   1.523  24.174  0.00  0.00    +0.030 A 
ATOM     17  C   UNL A   1     -27.965   2.563  24.707  0.00  0.00    +0.004 A 
ATOM     18  C   UNL A   1     -27.452   2.462  25.970  0.00  0.00    +0.015 A 
ATOM     19  F   UNL A   1     -29.612  -0.582  24.374  0.00  0.00    -0.204 F 
ENDBRANCH   1  13
BRANCH   2  20
ATOM     20  C   UNL A   1     -26.319   2.239  30.045  0.00  0.00    +0.063 A 
ATOM     21  C   UNL A   1     -26.987   3.033  30.701  0.00  0.00    +0.034 A 
ATOM     22  C   UNL A   1     -26.861   2.927  32.206  0.00  0.00    +0.140 A 
ATOM     23  C   UNL A   1     -25.859   2.081  32.761  0.00  0.00    +0.030 A 
ATOM     24  C   UNL A   1     -25.085   1.337  31.865  0.00  0.00    +0.009 A 
ATOM     25  C   UNL A   1     -25.317   1.439  30.508  0.00  0.00    +0.084 A 
ATOM     26  F   UNL A   1     -27.657   3.625  33.025  0.00  0.00    -0.204 F 
BRANCH  25  27
ATOM     27  C   UNL A   1     -23.938   2.031  30.038  0.00  0.00    +0.388 C 
ATOM     28  O   UNL A   1     -22.858   1.587  30.154  0.00  0.00    -0.241 OA
ATOM     29  O   UNL A   1     -24.012   3.017  29.101  0.00  0.00    -0.241 OA
ENDBRANCH  25  27
ENDBRANCH   2  20
TORSDOF 4
