MODEL 4447
MODEL 1
REMARK VINA RESULT:    -7.274      0.000      0.000
REMARK INTER + INTRA:         -10.152
REMARK INTER:                  -8.975
REMARK INTRA:                  -1.177
REMARK UNBOUND:                -1.177
REMARK  Name = No_4447-gen_results/8p0m/2024-11-27-11-27-31/
REMARK  4 active torsions:
REMARK  status: ('A' for Active; 'I' for Inactive)
REMARK    1  A    between atoms: C_2  and  N_7
REMARK    2  A    between atoms: N_7  and  C_8
REMARK    3  A    between atoms: C_14  and  C_15
REMARK    4  A    between atoms: C_20  and  C_25
REMARK                            x       y       z     vdW  Elec       q    Type
REMARK                         _______ _______ _______ _____ _____    ______ ____
ROOT
ATOM      1  N   UNL A   1      -8.371   0.498  35.565  0.00  0.00    -0.218 N 
ATOM      2  C   UNL A   1      -8.929   1.513  34.568  0.00  0.00    +0.258 C 
ATOM      3  O   UNL A   1      -8.304   1.957  33.595  0.00  0.00    -0.269 OA
ENDROOT
BRANCH   1   5
ATOM      4  C   UNL A   1      -9.926  -0.691  36.785  0.00  0.00    +0.035 A 
ATOM      5  C   UNL A   1      -9.164   0.244  36.698  0.00  0.00    +0.143 A 
ATOM      6  N   UNL A   1      -9.064   1.222  37.608  0.00  0.00    -0.215 NA
ATOM      7  C   UNL A   1      -9.747   1.119  38.763  0.00  0.00    +0.133 A 
ATOM      8  C   UNL A   1     -10.673   0.079  38.908  0.00  0.00    +0.034 A 
ATOM      9  C   UNL A   1     -10.753  -0.816  37.929  0.00  0.00    +0.006 A 
ATOM     10  N   UNL A   1      -9.630   2.046  39.795  0.00  0.00    -0.290 N 
ATOM     11  C   UNL A   1      -8.538   1.994  40.645  0.00  0.00    +0.114 C 
ATOM     12  C   UNL A   1      -9.769   3.492  39.371  0.00  0.00    +0.114 C 
ENDBRANCH   1   5
BRANCH   1  13
ATOM     13  C   UNL A   1      -7.226  -0.071  35.352  0.00  0.00    +0.062 A 
ATOM     14  C   UNL A   1      -6.157   0.404  35.795  0.00  0.00    +0.045 A 
ATOM     15  C   UNL A   1      -4.864  -0.200  35.533  0.00  0.00    +0.141 A 
ATOM     16  C   UNL A   1      -4.858  -1.373  34.776  0.00  0.00    +0.030 A 
ATOM     17  C   UNL A   1      -6.030  -1.933  34.294  0.00  0.00    +0.004 A 
ATOM     18  C   UNL A   1      -7.234  -1.345  34.566  0.00  0.00    +0.015 A 
ATOM     19  F   UNL A   1      -3.783   0.294  35.939  0.00  0.00    -0.204 F 
ENDBRANCH   1  13
BRANCH   2  20
ATOM     20  C   UNL A   1     -10.360   1.865  34.667  0.00  0.00    +0.063 A 
ATOM     21  C   UNL A   1     -11.059   1.253  33.864  0.00  0.00    +0.034 A 
ATOM     22  C   UNL A   1     -12.553   1.466  33.981  0.00  0.00    +0.140 A 
ATOM     23  C   UNL A   1     -13.043   2.482  34.850  0.00  0.00    +0.030 A 
ATOM     24  C   UNL A   1     -12.100   3.186  35.604  0.00  0.00    +0.009 A 
ATOM     25  C   UNL A   1     -10.759   2.876  35.490  0.00  0.00    +0.084 A 
ATOM     26  F   UNL A   1     -13.421   0.735  33.272  0.00  0.00    -0.204 F 
BRANCH  25  27
ATOM     27  C   UNL A   1     -10.211   4.236  34.923  0.00  0.00    +0.388 C 
ATOM     28  O   UNL A   1     -10.384   4.730  33.873  0.00  0.00    -0.241 OA
ATOM     29  O   UNL A   1      -9.741   5.113  35.855  0.00  0.00    -0.241 OA
ENDBRANCH  25  27
ENDBRANCH   2  20
TORSDOF 4
ENDMDL
ENDMDL
