MODEL 444
MODEL 1
REMARK VINA RESULT:    -6.460      0.000      0.000
REMARK INTER + INTRA:          -9.684
REMARK INTER:                  -8.726
REMARK INTRA:                  -0.958
REMARK UNBOUND:                -0.958
REMARK  Name = No_444-gen_results/8p0m/2024-11-27-11-27-31/
REMARK  6 active torsions:
REMARK  status: ('A' for Active; 'I' for Inactive)
REMARK    1  A    between atoms: C_2  and  C_3
REMARK    2  A    between atoms: C_3  and  C_5
REMARK    3  A    between atoms: C_5  and  C_8
REMARK    4  A    between atoms: C_8  and  C_9
REMARK    5  A    between atoms: C_11  and  C_15
REMARK    6  A    between atoms: N_16  and  C_19
REMARK                            x       y       z     vdW  Elec       q    Type
REMARK                         _______ _______ _______ _____ _____    ______ ____
ROOT
ATOM      1  C   UNL A   1     -23.018  -0.647  29.122  0.00  0.00    -0.022 A 
ATOM      2  C   UNL A   1     -23.712   0.172  28.737  0.00  0.00    +0.000 A 
ATOM      3  C   UNL A   1     -23.155   1.315  27.950  0.00  0.00    +0.054 A 
ATOM      4  C   UNL A   1     -21.781   1.334  27.788  0.00  0.00    +0.004 A 
ATOM      5  C   UNL A   1     -20.965   0.320  28.326  0.00  0.00    -0.000 A 
ATOM      6  C   UNL A   1     -21.592  -0.705  29.014  0.00  0.00    -0.004 A 
ENDROOT
BRANCH   3   7
ATOM      7  C   UNL A   1     -23.934   2.468  27.458  0.00  0.00    +0.253 C 
ATOM      8  N   UNL A   1     -24.353   2.511  26.289  0.00  0.00    -0.253 N 
ATOM      9  C   UNL A   1     -24.614   3.602  25.583  0.00  0.00    +0.120 C 
ATOM     10  O   UNL A   1     -24.319   3.304  28.299  0.00  0.00    -0.270 OA
BRANCH   8  11
ATOM     11  C   UNL A   1     -24.433   1.305  25.395  0.00  0.00    +0.063 C 
ATOM     12  C   UNL A   1     -25.620   0.526  25.471  0.00  0.00    -0.010 C 
ATOM     13  C   UNL A   1     -25.638  -0.612  24.669  0.00  0.00    +0.032 C 
ENDBRANCH   8  11
ENDBRANCH   3   7
BRANCH   1  14
ATOM     14  C   UNL A   1     -23.479  -1.785  29.883  0.00  0.00    +0.027 C 
BRANCH  14  15
ATOM     15  C   UNL A   1     -23.854  -2.933  29.168  0.00  0.00    +0.014 C 
BRANCH  15  16
ATOM     16  C   UNL A   1     -25.076  -3.045  28.835  0.00  0.00    +0.086 C 
BRANCH  16  18
ATOM     17  O   UNL A   1     -25.800  -4.981  29.491  0.00  0.00    -0.275 OA
ATOM     18  C   UNL A   1     -25.936  -3.846  29.588  0.00  0.00    +0.226 C 
ATOM     19  N   UNL A   1     -27.111  -3.297  30.053  0.00  0.00    -0.276 N 
ATOM     20  C   UNL A   1     -28.002  -4.151  30.682  0.00  0.00    +0.115 C 
ATOM     21  C   UNL A   1     -27.443  -1.878  30.119  0.00  0.00    +0.115 C 
ENDBRANCH  16  18
ENDBRANCH  15  16
ENDBRANCH  14  15
ENDBRANCH   1  14
TORSDOF 6
ENDMDL
ENDMDL
