REMARK  Name = No_445-gen_results/8p0m/2024-11-27-11-27-31/
REMARK  0 active torsions:
REMARK  status: ('A' for Active; 'I' for Inactive)
REMARK                            x       y       z     vdW  Elec       q    Type
REMARK                         _______ _______ _______ _____ _____    ______ ____
ROOT
ATOM      1  C   UNL A   1     -28.016  -0.814  28.878  0.00  0.00    -0.004 A 
ATOM      2  C   UNL A   1     -28.469  -0.785  29.829  0.00  0.00    -0.000 A 
ATOM      3  C   UNL A   1     -27.087   0.290  28.638  0.00  0.00    -0.015 A 
ATOM      4  C   UNL A   1     -26.832   1.249  29.587  0.00  0.00    +0.035 A 
ATOM      5  C   UNL A   1     -28.391   0.080  31.006  0.00  0.00    +0.000 A 
ATOM      6  C   UNL A   1     -27.494   1.152  30.784  0.00  0.00    +0.003 A 
ATOM      7  C   UNL A   1     -26.311   0.392  27.364  0.00  0.00    +0.053 C 
ATOM      8  C   UNL A   1     -25.368   1.446  27.302  0.00  0.00    -0.015 A 
ATOM      9  C   UNL A   1     -25.214   2.402  28.318  0.00  0.00    +0.035 A 
ATOM     10  C   UNL A   1     -25.885   2.320  29.405  0.00  0.00    +0.195 C 
ATOM     11  C   UNL A   1     -24.549   1.587  26.014  0.00  0.00    -0.004 A 
ATOM     12  C   UNL A   1     -23.464   2.513  26.071  0.00  0.00    -0.000 A 
ATOM     13  C   UNL A   1     -23.297   3.382  27.130  0.00  0.00    +0.000 A 
ATOM     14  C   UNL A   1     -24.092   3.381  28.149  0.00  0.00    +0.003 A 
ATOM     15  O   UNL A   1     -25.709   3.204  30.422  0.00  0.00    -0.287 OA
ENDROOT
TORSDOF 0
