MODEL 4450
MODEL 1
REMARK VINA RESULT:    -5.318      0.000      0.000
REMARK INTER + INTRA:          -5.778
REMARK INTER:                  -5.629
REMARK INTRA:                  -0.150
REMARK UNBOUND:                -0.150
REMARK  Name = No_4450-gen_results/8p0m/2024-11-27-11-27-31/
REMARK  1 active torsions:
REMARK  status: ('A' for Active; 'I' for Inactive)
REMARK    1  A    between atoms: C_4  and  C_7
REMARK                            x       y       z     vdW  Elec       q    Type
REMARK                         _______ _______ _______ _____ _____    ______ ____
ROOT
ATOM      1  C   UNL A   1     -26.575  -4.008  29.877  0.00  0.00    -0.000 A 
ATOM      2  C   UNL A   1     -26.072  -4.900  29.630  0.00  0.00    -0.000 A 
ATOM      3  C   UNL A   1     -25.797  -2.734  29.634  0.00  0.00    -0.000 A 
ATOM      4  C   UNL A   1     -24.549  -2.801  28.980  0.00  0.00    -0.000 A 
ATOM      5  C   UNL A   1     -24.817  -5.239  28.922  0.00  0.00    -0.000 A 
ATOM      6  C   UNL A   1     -24.076  -4.091  28.675  0.00  0.00    -0.000 A 
ENDROOT
BRANCH   4   7
ATOM      7  C   UNL A   1     -23.765  -1.637  28.741  0.00  0.00    -0.005 C 
ATOM      8  C   UNL A   1     -22.696  -1.364  29.365  0.00  0.00    -0.026 C 
ATOM      9  C   UNL A   1     -21.824  -0.230  29.013  0.00  0.00    +0.031 C 
ENDBRANCH   4   7
TORSDOF 1
ENDMDL
ENDMDL
