MODEL 4451
MODEL 1
REMARK VINA RESULT:    -5.928      0.000      0.000
REMARK INTER + INTRA:          -6.340
REMARK INTER:                  -6.274
REMARK INTRA:                  -0.066
REMARK UNBOUND:                -0.066
REMARK  Name = No_4451-gen_results/8p0m/2024-11-27-11-27-31/
REMARK  1 active torsions:
REMARK  status: ('A' for Active; 'I' for Inactive)
REMARK    1  A    between atoms: C_9  and  C_11
REMARK                            x       y       z     vdW  Elec       q    Type
REMARK                         _______ _______ _______ _____ _____    ______ ____
ROOT
ATOM      1  C   UNL A   1     -24.115  -4.294  28.893  0.00  0.00    +0.000 A 
ATOM      2  C   UNL A   1     -24.850  -5.033  29.047  0.00  0.00    +0.000 A 
ATOM      3  C   UNL A   1     -24.468  -2.951  29.147  0.00  0.00    +0.000 A 
ATOM      4  C   UNL A   1     -25.470  -2.638  29.617  0.00  0.00    +0.000 A 
ATOM      5  C   UNL A   1     -26.512  -3.566  29.916  0.00  0.00    +0.000 A 
ATOM      6  C   UNL A   1     -26.172  -4.887  29.652  0.00  0.00    +0.000 A 
ATOM      7  C   UNL A   1     -23.390  -1.854  28.906  0.00  0.00    +0.000 A 
ATOM      8  C   UNL A   1     -23.255  -0.877  29.898  0.00  0.00    +0.007 A 
ATOM      9  C   UNL A   1     -24.306  -0.605  30.760  0.00  0.00    +0.080 A 
ATOM     10  C   UNL A   1     -25.444  -1.550  30.752  0.00  0.00    +0.007 A 
ENDROOT
BRANCH   9  11
ATOM     11  C   UNL A   1     -24.321   0.592  31.555  0.00  0.00    +0.388 C 
ATOM     12  O   UNL A   1     -24.912   0.808  32.573  0.00  0.00    -0.241 OA
ATOM     13  O   UNL A   1     -23.542   1.611  31.094  0.00  0.00    -0.241 OA
ENDBRANCH   9  11
TORSDOF 1
ENDMDL
ENDMDL
