REMARK  Name = No_4451-gen_results/8p0m/2024-11-27-11-27-31/
REMARK  1 active torsions:
REMARK  status: ('A' for Active; 'I' for Inactive)
REMARK    1  A    between atoms: C_9  and  C_11
REMARK                            x       y       z     vdW  Elec       q    Type
REMARK                         _______ _______ _______ _____ _____    ______ ____
ROOT
ATOM      1  C   UNL A   1     -28.016  -0.814  28.878  0.00  0.00    +0.000 A 
ATOM      2  C   UNL A   1     -28.469  -0.785  29.829  0.00  0.00    +0.000 A 
ATOM      3  C   UNL A   1     -27.136   0.236  28.535  0.00  0.00    +0.000 A 
ATOM      4  C   UNL A   1     -26.805   1.051  29.276  0.00  0.00    +0.000 A 
ATOM      5  C   UNL A   1     -27.316   1.149  30.605  0.00  0.00    +0.000 A 
ATOM      6  C   UNL A   1     -28.194   0.125  30.939  0.00  0.00    +0.000 A 
ATOM      7  C   UNL A   1     -26.477   0.206  27.126  0.00  0.00    +0.000 A 
ATOM      8  C   UNL A   1     -25.107   0.483  27.067  0.00  0.00    +0.007 A 
ATOM      9  C   UNL A   1     -24.497   1.212  28.077  0.00  0.00    +0.080 A 
ATOM     10  C   UNL A   1     -25.283   1.444  29.308  0.00  0.00    +0.007 A 
ENDROOT
BRANCH   9  11
ATOM     11  C   UNL A   1     -23.193   1.788  27.891  0.00  0.00    +0.388 C 
ATOM     12  O   UNL A   1     -22.669   2.145  26.877  0.00  0.00    -0.241 OA
ATOM     13  O   UNL A   1     -22.464   1.966  29.029  0.00  0.00    -0.241 OA
ENDBRANCH   9  11
TORSDOF 1
