REMARK  Name = outputs/IAG933/test6/raw/output_4453_IAG933_linker_design_.xyz
REMARK  16 active torsions:
REMARK  status: ('A' for Active; 'I' for Inactive)
REMARK    1  A    between atoms: C_1  and  C_2
REMARK    2  A    between atoms: C_1  and  C_8
REMARK    3  A    between atoms: C_9  and  C_30
REMARK    4  A    between atoms: C_13  and  O_40
REMARK    5  A    between atoms: C_14  and  C_15
REMARK    6  A    between atoms: C_21  and  O_22
REMARK    7  A    between atoms: O_22  and  C_23
REMARK    8  A    between atoms: C_23  and  C_24
REMARK    9  A    between atoms: C_28  and  C_31
REMARK   10  A    between atoms: C_28  and  O_40
REMARK   11  A    between atoms: C_29  and  C_31
REMARK   12  A    between atoms: C_29  and  C_32
REMARK   13  A    between atoms: C_30  and  C_32
REMARK   14  A    between atoms: C_30  and  N_36
REMARK   15  A    between atoms: C_31  and  C_44
REMARK   16  A    between atoms: C_37  and  C_45
REMARK                            x       y       z     vdW  Elec       q    Type
REMARK                         _______ _______ _______ _____ _____    ______ ____
ROOT
ATOM      1  C   UNL A   1     -24.179   2.067  30.327  0.00  0.00    +0.172 C 
ATOM      2  O   UNL A   1     -23.194   2.753  31.076  0.00  0.00    -0.221 OA
ENDROOT
BRANCH   1   3
ATOM      3  C   UNL A   1     -25.407   2.065  31.367  0.00  0.00    +0.127 C 
BRANCH   3   5
ATOM      4  C   UNL A   1     -25.387  -0.679  31.571  0.00  0.00    +0.079 C 
ATOM      5  C   UNL A   1     -25.189   0.773  32.028  0.00  0.00    +0.040 C 
ATOM      6  C   UNL A   1     -25.336   0.684  33.544  0.00  0.00    +0.022 C 
ATOM      7  C   UNL A   1     -24.829  -0.715  33.905  0.00  0.00    +0.089 C 
ATOM      8  N   UNL A   1     -24.758  -1.481  32.646  0.00  0.00    -0.219 NA
BRANCH   4   9
ATOM      9  C   UNL A   1     -24.855  -1.012  30.143  0.00  0.00    +0.044 C 
BRANCH   9  10
ATOM     10  C   UNL A   1     -24.973  -2.505  29.788  0.00  0.00    -0.021 C 
ATOM     11  C   UNL A   1     -23.906  -3.173  29.146  0.00  0.00    -0.004 C 
ATOM     12  C   UNL A   1     -23.989  -4.549  28.853  0.00  0.00    -0.000 C 
ATOM     13  C   UNL A   1     -25.137  -5.280  29.205  0.00  0.00    -0.000 C 
ATOM     14  C   UNL A   1     -26.232  -4.611  29.784  0.00  0.00    -0.000 C 
ATOM     15  C   UNL A   1     -26.155  -3.232  30.065  0.00  0.00    -0.004 C 
ENDBRANCH   9  10
ENDBRANCH   4   9
ENDBRANCH   3   5
BRANCH   3  17
ATOM     16  O   UNL A   1     -26.805   4.319  31.715  0.00  0.00    -0.268 OA
ATOM     17  N   UNL A   1     -25.094   3.100  32.308  0.00  0.00    -0.201 NA
ATOM     18  C   UNL A   1     -25.909   4.118  32.474  0.00  0.00    +0.265 C 
BRANCH  18  24
ATOM     19  C   UNL A   1     -25.354   4.454  34.831  0.00  0.00    +0.005 C 
ATOM     20  C   UNL A   1     -26.331   7.018  34.815  0.00  0.00    +0.000 C 
ATOM     21  C   UNL A   1     -26.366   6.264  33.672  0.00  0.00    +0.005 C 
ATOM     22  C   UNL A   1     -25.810   6.507  35.969  0.00  0.00    +0.000 C 
ATOM     23  C   UNL A   1     -25.328   5.202  36.003  0.00  0.00    +0.000 C 
ATOM     24  C   UNL A   1     -25.871   4.974  33.661  0.00  0.00    +0.055 C 
ENDBRANCH  18  24
ENDBRANCH   3  17
ENDBRANCH   1   3
BRANCH   1  25
ATOM     25  C   UNL A   1     -23.270   1.151  29.392  0.00  0.00    +0.041 C 
BRANCH  25  26
ATOM     26  C   UNL A   1     -22.625   1.914  28.223  0.00  0.00    +0.079 C 
BRANCH  26  28
ATOM     27  O   UNL A   1     -20.245   1.835  27.677  0.00  0.00    -0.220 OA
ATOM     28  C   UNL A   1     -21.395   1.017  27.884  0.00  0.00    +0.186 C 
ENDBRANCH  26  28
BRANCH  26  29
ATOM     29  C   UNL A   1     -23.444   1.935  26.961  0.00  0.00    +0.208 C 
BRANCH  29  30
ATOM     30  O   UNL A   1     -24.623   1.233  27.249  0.00  0.00    -0.473 OA
BRANCH  30  31
ATOM     31  C   UNL A   1     -25.688   1.614  26.461  0.00  0.00    +0.176 C 
ATOM     32  C   UNL A   1     -26.250   2.920  26.395  0.00  0.00    +0.111 C 
ATOM     33  C   UNL A   1     -27.438   3.091  25.645  0.00  0.00    +0.110 C 
ATOM     34  N   UNL A   1     -28.075   2.089  25.003  0.00  0.00    -0.208 NA
ATOM     35  C   UNL A   1     -27.543   0.849  25.079  0.00  0.00    +0.256 C 
ATOM     36  C   UNL A   1     -26.354   0.576  25.777  0.00  0.00    +0.227 C 
ATOM     37  F   UNL A   1     -25.860  -0.681  25.795  0.00  0.00    -0.196 F 
BRANCH  32  38
ATOM     38  C   UNL A   1     -25.642   4.093  27.123  0.00  0.00    +0.269 C 
ATOM     39  N   UNL A   1     -25.614   5.252  26.449  0.00  0.00    -0.200 NA
ATOM     40  C   UNL A   1     -25.026   6.479  26.963  0.00  0.00    +0.139 C 
ATOM     41  O   UNL A   1     -25.143   3.966  28.243  0.00  0.00    -0.268 OA
ENDBRANCH  32  38
BRANCH  35  42
ATOM     42  O   UNL A   1     -28.193  -0.208  24.477  0.00  0.00    -0.456 OA
BRANCH  42  43
ATOM     43  C   UNL A   1     -29.460   0.005  23.866  0.00  0.00    +0.243 C 
BRANCH  43  44
ATOM     44  C   UNL A   1     -30.065  -1.377  23.573  0.00  0.00    +0.229 C 
ATOM     45  O   UNL A   1     -30.729  -1.878  24.721  0.00  0.00    -0.216 OA
ENDBRANCH  43  44
ENDBRANCH  42  43
ENDBRANCH  35  42
ENDBRANCH  30  31
ENDBRANCH  29  30
ENDBRANCH  26  29
ENDBRANCH  25  26
ENDBRANCH   1  25
TORSDOF 16
