MODEL 4453
MODEL 1
REMARK VINA RESULT:    -6.762      0.000      0.000
REMARK INTER + INTRA:          -7.126
REMARK INTER:                  -7.157
REMARK INTRA:                   0.031
REMARK UNBOUND:                 0.031
REMARK  Name = No_4453-gen_results/8p0m/2024-11-27-11-27-31/
REMARK  1 active torsions:
REMARK  status: ('A' for Active; 'I' for Inactive)
REMARK    1  A    between atoms: C_1  and  C_12
REMARK                            x       y       z     vdW  Elec       q    Type
REMARK                         _______ _______ _______ _____ _____    ______ ____
ROOT
ATOM      1  C   UNL A   1     -25.334  -3.325  29.166  0.00  0.00    +0.078 C 
ATOM      2  C   UNL A   1     -24.622  -2.403  28.843  0.00  0.00    -0.033 C 
ATOM      3  C   UNL A   1     -23.466  -2.019  29.502  0.00  0.00    +0.027 C 
ATOM      4  C   UNL A   1     -22.643  -0.876  29.188  0.00  0.00    +0.030 C 
ATOM      5  C   UNL A   1     -22.982  -0.124  28.480  0.00  0.00    -0.025 A 
ATOM      6  C   UNL A   1     -22.209   1.112  28.025  0.00  0.00    -0.005 A 
ATOM      7  C   UNL A   1     -22.692   1.971  27.012  0.00  0.00    -0.000 A 
ATOM      8  C   UNL A   1     -23.937   1.672  26.444  0.00  0.00    -0.000 A 
ATOM      9  C   UNL A   1     -24.186  -0.124  27.549  0.00  0.00    -0.022 A 
ATOM     10  C   UNL A   1     -24.598   0.738  26.664  0.00  0.00    -0.004 A 
ATOM     11  C   UNL A   1     -24.966  -1.375  27.972  0.00  0.00    +0.048 C 
ENDROOT
BRANCH   1  12
ATOM     12  C   UNL A   1     -24.758  -4.665  28.945  0.00  0.00    +0.387 C 
ATOM     13  O   UNL A   1     -25.233  -5.598  29.653  0.00  0.00    -0.241 OA
ATOM     14  O   UNL A   1     -23.844  -4.873  28.183  0.00  0.00    -0.241 OA
ENDBRANCH   1  12
TORSDOF 1
ENDMDL
ENDMDL
