MODEL 4454
MODEL 1
REMARK VINA RESULT:    -6.258      0.000      0.000
REMARK INTER + INTRA:          -7.617
REMARK INTER:                  -6.989
REMARK INTRA:                  -0.628
REMARK UNBOUND:                -0.628
REMARK  Name = No_4454-gen_results/8p0m/2024-11-27-11-27-31/
REMARK  2 active torsions:
REMARK  status: ('A' for Active; 'I' for Inactive)
REMARK    1  A    between atoms: C_3  and  C_7
REMARK    2  A    between atoms: N_8  and  C_9
REMARK                            x       y       z     vdW  Elec       q    Type
REMARK                         _______ _______ _______ _____ _____    ______ ____
ROOT
ATOM      1  C   UNL A   1     -23.152   1.077  29.932  0.00  0.00    +0.269 C 
ATOM      2  N   UNL A   1     -22.866  -0.185  30.275  0.00  0.00    -0.175 NA
ATOM      3  O   UNL A   1     -23.477   1.867  30.769  0.00  0.00    -0.268 OA
ENDROOT
BRANCH   1   6
ATOM      4  C   UNL A   1     -21.937   1.634  27.770  0.00  0.00    +0.005 A 
ATOM      5  C   UNL A   1     -22.034   1.819  26.737  0.00  0.00    +0.000 A 
ATOM      6  C   UNL A   1     -23.223   1.455  28.455  0.00  0.00    +0.055 A 
ATOM      7  C   UNL A   1     -24.392   1.691  27.857  0.00  0.00    +0.005 A 
ATOM      8  C   UNL A   1     -23.160   2.127  25.890  0.00  0.00    +0.000 A 
ATOM      9  C   UNL A   1     -24.344   1.980  26.551  0.00  0.00    +0.000 A 
ENDBRANCH   1   6
BRANCH   2  10
ATOM     10  C   UNL A   1     -23.640  -1.256  29.949  0.00  0.00    +0.074 A 
ATOM     11  C   UNL A   1     -23.321  -2.072  29.131  0.00  0.00    +0.017 A 
ATOM     12  C   UNL A   1     -24.150  -3.246  28.848  0.00  0.00    +0.001 A 
ATOM     13  C   UNL A   1     -24.993  -1.340  30.584  0.00  0.00    +0.017 A 
ATOM     14  C   UNL A   1     -25.839  -2.361  30.286  0.00  0.00    +0.001 A 
ATOM     15  C   UNL A   1     -25.378  -3.319  29.322  0.00  0.00    +0.000 A 
ENDBRANCH   2  10
TORSDOF 2
ENDMDL
ENDMDL
