MODEL 4455
MODEL 1
REMARK VINA RESULT:    -4.256      0.000      0.000
REMARK INTER + INTRA:          -4.256
REMARK INTER:                  -4.256
REMARK INTRA:                   0.000
REMARK UNBOUND:                 0.000
REMARK  Name = No_4455-gen_results/8p0m/2024-11-27-11-27-31/
REMARK  0 active torsions:
REMARK  status: ('A' for Active; 'I' for Inactive)
REMARK                            x       y       z     vdW  Elec       q    Type
REMARK                         _______ _______ _______ _____ _____    ______ ____
ROOT
ATOM      1  C   UNL A   1     -24.101  -4.802  28.582  0.00  0.00    +0.000 A 
ATOM      2  C   UNL A   1     -24.979  -5.249  28.955  0.00  0.00    +0.000 A 
ATOM      3  C   UNL A   1     -24.064  -3.350  28.754  0.00  0.00    +0.000 A 
ATOM      4  C   UNL A   1     -25.083  -2.661  29.366  0.00  0.00    +0.000 A 
ATOM      5  C   UNL A   1     -26.189  -4.786  29.635  0.00  0.00    +0.000 A 
ATOM      6  C   UNL A   1     -26.163  -3.382  29.807  0.00  0.00    +0.000 A 
ENDROOT
TORSDOF 0
ENDMDL
ENDMDL
