MODEL 4456
MODEL 1
REMARK VINA RESULT:    -6.376      0.000      0.000
REMARK INTER + INTRA:          -6.823
REMARK INTER:                  -6.749
REMARK INTRA:                  -0.074
REMARK UNBOUND:                -0.074
REMARK  Name = No_4456-gen_results/8p0m/2024-11-27-11-27-31/
REMARK  1 active torsions:
REMARK  status: ('A' for Active; 'I' for Inactive)
REMARK    1  A    between atoms: C_5  and  C_6
REMARK                            x       y       z     vdW  Elec       q    Type
REMARK                         _______ _______ _______ _____ _____    ______ ____
ROOT
ATOM      1  C   UNL A   1     -30.815  -9.693  29.403  0.00  0.00    +0.000 A 
ATOM      2  C   UNL A   1     -30.132 -10.234  30.242  0.00  0.00    +0.000 A 
ATOM      3  C   UNL A   1     -30.086  -9.834  31.564  0.00  0.00    +0.000 A 
ATOM      4  C   UNL A   1     -29.229 -10.399  32.589  0.00  0.00    +0.008 A 
ATOM      5  C   UNL A   1     -28.361 -11.458  32.242  0.00  0.00    +0.098 A 
ATOM      6  C   UNL A   1     -29.076 -11.294  29.943  0.00  0.00    +0.000 A 
ATOM      7  C   UNL A   1     -28.249 -11.900  30.852  0.00  0.00    +0.008 A 
ATOM      8  C   UNL A   1     -30.940 -10.385  28.022  0.00  0.00    +0.000 A 
ATOM      9  C   UNL A   1     -29.921 -11.282  27.641  0.00  0.00    +0.000 A 
ATOM     10  C   UNL A   1     -29.161 -11.960  28.648  0.00  0.00    +0.000 A 
ENDROOT
BRANCH   5  11
ATOM     11  C   UNL A   1     -27.450 -12.091  33.120  0.00  0.00    +0.477 C 
ATOM     12  N   UNL A   1     -27.674 -12.312  34.409  0.00  0.00    +0.205 NA
ATOM     13  N   UNL A   1     -26.438 -12.875  32.585  0.00  0.00    +0.205 NA
ENDBRANCH   5  11
TORSDOF 1
ENDMDL
ENDMDL
