MODEL 4457
MODEL 1
REMARK VINA RESULT:    -4.489      0.000      0.000
REMARK INTER + INTRA:          -4.489
REMARK INTER:                  -4.489
REMARK INTRA:                   0.000
REMARK UNBOUND:                 0.000
REMARK  Name = No_4457-gen_results/8p0m/2024-11-27-11-27-31/
REMARK  0 active torsions:
REMARK  status: ('A' for Active; 'I' for Inactive)
REMARK                            x       y       z     vdW  Elec       q    Type
REMARK                         _______ _______ _______ _____ _____    ______ ____
ROOT
ATOM      1  C   UNL A   1      -9.239  -9.213  20.063  0.00  0.00    +0.011 A 
ATOM      2  C   UNL A   1      -8.239  -9.882  19.941  0.00  0.00    +0.058 A 
ATOM      3  C   UNL A   1      -8.040 -10.678  18.818  0.00  0.00    +0.011 A 
ATOM      4  C   UNL A   1      -9.042 -10.767  17.786  0.00  0.00    +0.001 A 
ATOM      5  C   UNL A   1     -10.177  -9.979  18.020  0.00  0.00    +0.000 A 
ATOM      6  C   UNL A   1     -10.323  -9.256  19.107  0.00  0.00    +0.001 A 
ATOM      7 CL   UNL A   1      -6.970  -9.935  21.090  0.00  0.00    -0.082 Cl
ENDROOT
TORSDOF 0
ENDMDL
ENDMDL
