REMARK  Name = outputs/IAG933/test6/raw/output_4458_IAG933_linker_design_.xyz
REMARK  16 active torsions:
REMARK  status: ('A' for Active; 'I' for Inactive)
REMARK    1  A    between atoms: C_1  and  C_2
REMARK    2  A    between atoms: C_1  and  C_8
REMARK    3  A    between atoms: C_1  and  C_37
REMARK    4  A    between atoms: C_13  and  N_43
REMARK    5  A    between atoms: C_14  and  C_15
REMARK    6  A    between atoms: C_21  and  O_22
REMARK    7  A    between atoms: O_22  and  C_23
REMARK    8  A    between atoms: C_23  and  C_24
REMARK    9  A    between atoms: C_28  and  C_40
REMARK   10  A    between atoms: O_32  and  C_39
REMARK   11  A    between atoms: O_32  and  C_45
REMARK   12  A    between atoms: C_33  and  C_40
REMARK   13  A    between atoms: C_33  and  C_45
REMARK   14  A    between atoms: C_34  and  C_37
REMARK   15  A    between atoms: C_37  and  C_38
REMARK   16  A    between atoms: C_42  and  N_43
REMARK                            x       y       z     vdW  Elec       q    Type
REMARK                         _______ _______ _______ _____ _____    ______ ____
ROOT
ATOM      1  C   UNL A   1     -25.503  -0.238  29.065  0.00  0.00    +0.051 C 
ENDROOT
BRANCH   1   4
ATOM      2  C   UNL A   1     -21.822   0.534  29.117  0.00  0.00    +0.002 C 
ATOM      3  F   UNL A   1     -21.961   2.080  25.959  0.00  0.00    -0.203 F 
ATOM      4  C   UNL A   1     -24.248   0.524  28.510  0.00  0.00    -0.001 C 
ATOM      5  C   UNL A   1     -21.375   1.054  27.967  0.00  0.00    +0.031 C 
ATOM      6  C   UNL A   1     -23.706   1.219  27.358  0.00  0.00    +0.089 C 
ATOM      7  C   UNL A   1     -22.351   1.461  27.076  0.00  0.00    +0.154 C 
ATOM      8  C   UNL A   1     -23.280   0.355  29.254  0.00  0.00    -0.003 C 
BRANCH   6   9
ATOM      9  N   UNL A   1     -24.458   1.465  26.506  0.00  0.00    -0.229 NA
BRANCH   9  10
ATOM     10  C   UNL A   1     -25.688   1.614  26.461  0.00  0.00    +0.162 C 
ATOM     11  C   UNL A   1     -26.250   2.920  26.395  0.00  0.00    +0.075 C 
ATOM     12  C   UNL A   1     -27.438   3.091  25.645  0.00  0.00    +0.104 C 
ATOM     13  N   UNL A   1     -28.075   2.089  25.003  0.00  0.00    -0.212 NA
ATOM     14  C   UNL A   1     -27.543   0.849  25.079  0.00  0.00    +0.236 C 
ATOM     15  C   UNL A   1     -26.354   0.576  25.777  0.00  0.00    +0.260 C 
ATOM     16  F   UNL A   1     -25.860  -0.681  25.795  0.00  0.00    -0.225 F 
BRANCH  11  17
ATOM     17  C   UNL A   1     -25.642   4.093  27.123  0.00  0.00    +0.264 C 
ATOM     18  N   UNL A   1     -25.614   5.252  26.449  0.00  0.00    -0.200 NA
ATOM     19  C   UNL A   1     -25.026   6.479  26.963  0.00  0.00    +0.139 C 
ATOM     20  O   UNL A   1     -25.143   3.966  28.243  0.00  0.00    -0.269 OA
ENDBRANCH  11  17
BRANCH  14  21
ATOM     21  O   UNL A   1     -28.193  -0.208  24.477  0.00  0.00    -0.459 OA
BRANCH  21  22
ATOM     22  C   UNL A   1     -29.460   0.005  23.866  0.00  0.00    +0.242 C 
BRANCH  22  23
ATOM     23  C   UNL A   1     -30.065  -1.377  23.573  0.00  0.00    +0.229 C 
ATOM     24  O   UNL A   1     -30.729  -1.878  24.721  0.00  0.00    -0.216 OA
ENDBRANCH  22  23
ENDBRANCH  21  22
ENDBRANCH  14  21
ENDBRANCH   9  10
ENDBRANCH   6   9
ENDBRANCH   1   4
BRANCH   1  26
ATOM     25  C   UNL A   1     -28.233  -0.179  29.729  0.00  0.00    +0.002 C 
ATOM     26  C   UNL A   1     -27.041   0.030  29.091  0.00  0.00    -0.024 C 
BRANCH  25  28
ATOM     27  O   UNL A   1     -29.600  -0.425  27.946  0.00  0.00    -0.218 OA
ATOM     28  C   UNL A   1     -29.377   0.296  29.172  0.00  0.00    +0.176 C 
BRANCH  28  29
ATOM     29  C   UNL A   1     -30.347   1.052  29.696  0.00  0.00    +0.065 C 
BRANCH  29  31
ATOM     30  C   UNL A   1     -31.292   3.453  30.119  0.00  0.00    +0.030 C 
ATOM     31  C   UNL A   1     -30.255   2.550  29.358  0.00  0.00    +0.098 C 
ATOM     32  C   UNL A   1     -30.525   2.491  27.800  0.00  0.00    +0.030 C 
BRANCH  31  33
ATOM     33  O   UNL A   1     -28.994   2.926  29.947  0.00  0.00    -0.329 OA
BRANCH  33  35
ATOM     34  O   UNL A   1     -28.773   4.708  28.647  0.00  0.00    -0.184 OA
ATOM     35  C   UNL A   1     -28.548   4.259  29.983  0.00  0.00    +0.329 C 
ENDBRANCH  33  35
ENDBRANCH  31  33
ENDBRANCH  29  31
ENDBRANCH  28  29
ENDBRANCH  25  28
ENDBRANCH   1  26
BRANCH   1  36
ATOM     36  C   UNL A   1     -24.855  -1.012  30.143  0.00  0.00    +0.046 C 
BRANCH  36  37
ATOM     37  C   UNL A   1     -24.973  -2.505  29.788  0.00  0.00    -0.021 C 
ATOM     38  C   UNL A   1     -23.906  -3.173  29.146  0.00  0.00    -0.004 C 
ATOM     39  C   UNL A   1     -23.989  -4.549  28.853  0.00  0.00    -0.000 C 
ATOM     40  C   UNL A   1     -25.137  -5.280  29.205  0.00  0.00    -0.000 C 
ATOM     41  C   UNL A   1     -26.232  -4.611  29.784  0.00  0.00    -0.000 C 
ATOM     42  C   UNL A   1     -26.155  -3.232  30.065  0.00  0.00    -0.004 C 
ENDBRANCH  36  37
BRANCH  36  43
ATOM     43  C   UNL A   1     -25.387  -0.679  31.571  0.00  0.00    +0.077 C 
ATOM     44  C   UNL A   1     -25.189   0.773  32.028  0.00  0.00    +0.019 C 
ATOM     45  C   UNL A   1     -25.336   0.684  33.544  0.00  0.00    +0.020 C 
ATOM     46  C   UNL A   1     -24.829  -0.715  33.905  0.00  0.00    +0.089 C 
ATOM     47  N   UNL A   1     -24.758  -1.481  32.646  0.00  0.00    -0.219 NA
ENDBRANCH  36  43
ENDBRANCH   1  36
TORSDOF 16
