MODEL 4459
MODEL 1
REMARK VINA RESULT:    -6.628      0.000      0.000
REMARK INTER + INTRA:          -9.696
REMARK INTER:                  -8.566
REMARK INTRA:                  -1.130
REMARK UNBOUND:                -1.130
REMARK  Name = No_4459-gen_results/8p0m/2024-11-27-11-27-31/
REMARK  5 active torsions:
REMARK  status: ('A' for Active; 'I' for Inactive)
REMARK    1  A    between atoms: C_2  and  C_15
REMARK    2  A    between atoms: C_3  and  O_14
REMARK    3  A    between atoms: C_4  and  C_7
REMARK    4  A    between atoms: C_7  and  C_8
REMARK    5  A    between atoms: O_14  and  C_18
REMARK                            x       y       z     vdW  Elec       q    Type
REMARK                         _______ _______ _______ _____ _____    ______ ____
ROOT
ATOM      1  C   UNL A   1     -25.474  -2.264  30.418  0.00  0.00    +0.044 A 
ATOM      2  C   UNL A   1     -25.108  -2.981  29.738  0.00  0.00    +0.083 A 
ATOM      3  C   UNL A   1     -24.701  -1.018  30.541  0.00  0.00    +0.142 A 
ATOM      4  C   UNL A   1     -23.651  -0.869  29.926  0.00  0.00    +0.017 A 
ATOM      5  C   UNL A   1     -23.153  -1.820  29.002  0.00  0.00    -0.001 A 
ATOM      6  C   UNL A   1     -23.902  -2.958  28.899  0.00  0.00    +0.006 A 
ENDROOT
BRANCH   2   7
ATOM      7  C   UNL A   1     -25.929  -4.347  29.541  0.00  0.00    +0.388 C 
ATOM      8  O   UNL A   1     -27.068  -4.493  29.968  0.00  0.00    -0.241 OA
ATOM      9  O   UNL A   1     -25.276  -5.317  29.100  0.00  0.00    -0.241 OA
ENDBRANCH   2   7
BRANCH   4  10
ATOM     10  C   UNL A   1     -22.721   0.323  29.820  0.00  0.00    +0.056 C 
BRANCH  10  11
ATOM     11  C   UNL A   1     -22.967   1.176  28.715  0.00  0.00    -0.018 A 
ATOM     12  C   UNL A   1     -24.168   1.623  28.394  0.00  0.00    -0.004 A 
ATOM     13  C   UNL A   1     -24.508   2.003  27.191  0.00  0.00    -0.000 A 
ATOM     14  C   UNL A   1     -23.494   2.219  26.216  0.00  0.00    -0.000 A 
ATOM     15  C   UNL A   1     -22.214   1.921  26.563  0.00  0.00    -0.000 A 
ATOM     16  C   UNL A   1     -21.927   1.343  27.822  0.00  0.00    -0.004 A 
ENDBRANCH  10  11
ENDBRANCH   4  10
BRANCH   3  17
ATOM     17  O   UNL A   1     -25.062  -0.028  31.462  0.00  0.00    -0.451 OA
BRANCH  17  18
ATOM     18  C   UNL A   1     -25.329  -0.298  32.763  0.00  0.00    +0.175 C 
ATOM     19  C   UNL A   1     -24.338  -0.752  33.600  0.00  0.00    +0.015 C 
ATOM     20  C   UNL A   1     -24.478  -0.970  34.707  0.00  0.00    +0.034 C 
ENDBRANCH  17  18
ENDBRANCH   3  17
TORSDOF 5
ENDMDL
ENDMDL
