REMARK  Name = No_4459-gen_results/8p0m/2024-11-27-11-27-31/
REMARK  5 active torsions:
REMARK  status: ('A' for Active; 'I' for Inactive)
REMARK    1  A    between atoms: C_2  and  C_15
REMARK    2  A    between atoms: C_3  and  O_14
REMARK    3  A    between atoms: C_4  and  C_7
REMARK    4  A    between atoms: C_7  and  C_8
REMARK    5  A    between atoms: O_14  and  C_18
REMARK                            x       y       z     vdW  Elec       q    Type
REMARK                         _______ _______ _______ _____ _____    ______ ____
ROOT
ATOM      1  C   UNL A   1     -28.016  -0.814  28.878  0.00  0.00    +0.044 A 
ATOM      2  C   UNL A   1     -28.469  -0.785  29.829  0.00  0.00    +0.083 A 
ATOM      3  C   UNL A   1     -26.546  -0.876  28.850  0.00  0.00    +0.142 A 
ATOM      4  C   UNL A   1     -25.897  -0.827  29.889  0.00  0.00    +0.017 A 
ATOM      5  C   UNL A   1     -26.494  -0.798  31.174  0.00  0.00    -0.001 A 
ATOM      6  C   UNL A   1     -27.859  -0.758  31.165  0.00  0.00    +0.006 A 
ENDROOT
BRANCH   2   7
ATOM      7  C   UNL A   1     -30.072  -0.749  29.919  0.00  0.00    +0.388 C 
ATOM      8  O   UNL A   1     -30.663  -0.207  30.846  0.00  0.00    -0.241 OA
ATOM      9  O   UNL A   1     -30.680  -1.469  29.099  0.00  0.00    -0.241 OA
ENDBRANCH   2   7
BRANCH   4  10
ATOM     10  C   UNL A   1     -24.407  -0.945  30.139  0.00  0.00    +0.056 C 
BRANCH  10  11
ATOM     11  C   UNL A   1     -23.616   0.052  29.515  0.00  0.00    -0.018 A 
ATOM     12  C   UNL A   1     -23.903   1.341  29.556  0.00  0.00    -0.004 A 
ATOM     13  C   UNL A   1     -23.503   2.207  28.663  0.00  0.00    -0.000 A 
ATOM     14  C   UNL A   1     -22.486   1.836  27.740  0.00  0.00    -0.000 A 
ATOM     15  C   UNL A   1     -22.044   0.551  27.773  0.00  0.00    -0.000 A 
ATOM     16  C   UNL A   1     -22.641  -0.391  28.643  0.00  0.00    -0.004 A 
ENDBRANCH  10  11
ENDBRANCH   4  10
BRANCH   3  17
ATOM     17  O   UNL A   1     -25.841  -0.852  27.641  0.00  0.00    -0.451 OA
BRANCH  17  18
ATOM     18  C   UNL A   1     -26.180  -0.040  26.611  0.00  0.00    +0.175 C 
ATOM     19  C   UNL A   1     -26.487   1.281  26.834  0.00  0.00    +0.015 C 
ATOM     20  C   UNL A   1     -26.749   2.030  26.019  0.00  0.00    +0.034 C 
ENDBRANCH  17  18
ENDBRANCH   3  17
TORSDOF 5
