REMARK  Name = outputs/IAG933/test6/raw/output_446_IAG933_linker_design_.xyz
REMARK  10 active torsions:
REMARK  status: ('A' for Active; 'I' for Inactive)
REMARK    1  A    between atoms: C_1  and  C_2
REMARK    2  A    between atoms: C_1  and  C_8
REMARK    3  A    between atoms: C_1  and  N_34
REMARK    4  A    between atoms: C_13  and  C_35
REMARK    5  A    between atoms: C_14  and  C_15
REMARK    6  A    between atoms: C_21  and  O_22
REMARK    7  A    between atoms: O_22  and  C_23
REMARK    8  A    between atoms: C_23  and  C_24
REMARK    9  A    between atoms: C_29  and  N_34
REMARK   10  A    between atoms: N_34  and  C_37
REMARK                            x       y       z     vdW  Elec       q    Type
REMARK                         _______ _______ _______ _____ _____    ______ ____
ROOT
ATOM      1  C   UNL A   1     -21.916   1.763  27.179  0.00  0.00    +0.234 C 
ATOM      2  O   UNL A   1     -21.767   2.436  26.004  0.00  0.00    -0.308 OA
ATOM      3  C   UNL A   1     -21.857   1.141  28.120  0.00  0.00    +0.387 C 
ATOM      4  F   UNL A   1     -20.638   1.254  27.896  0.00  0.00    -0.179 F 
ATOM      5  C   UNL A   1     -24.290   1.093  27.658  0.00  0.00    +0.016 C 
ATOM      6  C   UNL A   1     -24.397   1.494  26.527  0.00  0.00    +0.167 C 
ATOM      7  F   UNL A   1     -22.194  -0.098  29.927  0.00  0.00    -0.004 F 
ATOM      8  C   UNL A   1     -23.937   0.559  28.613  0.00  0.00    +0.361 C 
ATOM      9  O   UNL A   1     -23.998   1.753  25.299  0.00  0.00    -0.444 OA
ATOM     10  N   UNL A   1     -22.682   0.504  28.883  0.00  0.00    +0.022 N 
ATOM     11  C   UNL A   1     -22.747   2.352  24.956  0.00  0.00    +0.361 C 
ENDROOT
BRANCH   6  12
ATOM     12  C   UNL A   1     -25.688   1.614  26.461  0.00  0.00    +0.135 C 
ATOM     13  C   UNL A   1     -26.250   2.920  26.395  0.00  0.00    +0.063 C 
ATOM     14  C   UNL A   1     -27.438   3.091  25.645  0.00  0.00    +0.103 C 
ATOM     15  N   UNL A   1     -28.075   2.089  25.003  0.00  0.00    -0.212 NA
ATOM     16  C   UNL A   1     -27.543   0.849  25.079  0.00  0.00    +0.235 C 
ATOM     17  C   UNL A   1     -26.354   0.576  25.777  0.00  0.00    +0.248 C 
ATOM     18  F   UNL A   1     -25.860  -0.681  25.795  0.00  0.00    -0.226 F 
BRANCH  13  19
ATOM     19  C   UNL A   1     -25.642   4.093  27.123  0.00  0.00    +0.263 C 
ATOM     20  N   UNL A   1     -25.614   5.252  26.449  0.00  0.00    -0.200 NA
ATOM     21  C   UNL A   1     -25.026   6.479  26.963  0.00  0.00    +0.139 C 
ATOM     22  O   UNL A   1     -25.143   3.966  28.243  0.00  0.00    -0.269 OA
ENDBRANCH  13  19
BRANCH  16  23
ATOM     23  O   UNL A   1     -28.193  -0.208  24.477  0.00  0.00    -0.459 OA
BRANCH  23  24
ATOM     24  C   UNL A   1     -29.460   0.005  23.866  0.00  0.00    +0.242 C 
BRANCH  24  25
ATOM     25  C   UNL A   1     -30.065  -1.377  23.573  0.00  0.00    +0.229 C 
ATOM     26  O   UNL A   1     -30.729  -1.878  24.721  0.00  0.00    -0.216 OA
ENDBRANCH  24  25
ENDBRANCH  23  24
ENDBRANCH  16  23
ENDBRANCH   6  12
BRANCH   8  27
ATOM     27  N   UNL A   1     -25.099  -0.104  29.140  0.00  0.00    -0.098 N 
BRANCH  27  28
ATOM     28  C   UNL A   1     -26.341  -0.050  28.789  0.00  0.00    +0.284 C 
ATOM     29  N   UNL A   1     -27.389  -0.270  28.468  0.00  0.00    -0.146 NA
ENDBRANCH  27  28
BRANCH  27  30
ATOM     30  C   UNL A   1     -24.855  -1.012  30.143  0.00  0.00    +0.214 C 
BRANCH  30  31
ATOM     31  C   UNL A   1     -24.973  -2.505  29.788  0.00  0.00    +0.022 C 
ATOM     32  C   UNL A   1     -23.906  -3.173  29.146  0.00  0.00    -0.000 C 
ATOM     33  C   UNL A   1     -23.989  -4.549  28.853  0.00  0.00    -0.000 C 
ATOM     34  C   UNL A   1     -25.137  -5.280  29.205  0.00  0.00    -0.000 C 
ATOM     35  C   UNL A   1     -26.232  -4.611  29.784  0.00  0.00    -0.000 C 
ATOM     36  C   UNL A   1     -26.155  -3.232  30.065  0.00  0.00    -0.000 C 
ENDBRANCH  30  31
BRANCH  30  37
ATOM     37  C   UNL A   1     -25.387  -0.679  31.571  0.00  0.00    +0.121 C 
ATOM     38  C   UNL A   1     -25.189   0.773  32.028  0.00  0.00    +0.023 C 
ATOM     39  C   UNL A   1     -25.336   0.684  33.544  0.00  0.00    +0.020 C 
ATOM     40  C   UNL A   1     -24.829  -0.715  33.905  0.00  0.00    +0.089 C 
ATOM     41  N   UNL A   1     -24.758  -1.481  32.646  0.00  0.00    -0.215 NA
ENDBRANCH  30  37
ENDBRANCH  27  30
ENDBRANCH   8  27
TORSDOF 10
