REMARK  Name = No_4460-gen_results/8p0m/2024-11-27-11-27-31/
REMARK  6 active torsions:
REMARK  status: ('A' for Active; 'I' for Inactive)
REMARK    1  A    between atoms: C_4  and  C_22
REMARK    2  A    between atoms: C_9  and  C_11
REMARK    3  A    between atoms: C_10  and  C_14
REMARK    4  A    between atoms: C_14  and  O_16
REMARK    5  A    between atoms: O_16  and  C_17
REMARK    6  A    between atoms: C_17  and  C_18
REMARK                            x       y       z     vdW  Elec       q    Type
REMARK                         _______ _______ _______ _____ _____    ______ ____
ROOT
ATOM      1  C   UNL A   1     -28.016  -0.814  28.878  0.00  0.00    +0.000 A 
ATOM      2  C   UNL A   1     -28.469  -0.785  29.829  0.00  0.00    +0.000 A 
ATOM      3  C   UNL A   1     -27.087   0.290  28.638  0.00  0.00    +0.000 A 
ATOM      4  C   UNL A   1     -26.252   0.411  27.422  0.00  0.00    +0.004 A 
ATOM      5  C   UNL A   1     -28.314  -0.127  30.710  0.00  0.00    +0.000 A 
ATOM      6  C   UNL A   1     -27.483   1.008  30.810  0.00  0.00    +0.000 A 
ATOM      7  C   UNL A   1     -26.777   1.172  29.687  0.00  0.00    +0.006 A 
ATOM      8  C   UNL A   1     -24.953   0.351  27.669  0.00  0.00    +0.007 A 
ATOM      9  C   UNL A   1     -24.328   0.979  28.773  0.00  0.00    +0.086 A 
ATOM     10  C   UNL A   1     -25.299   1.377  29.828  0.00  0.00    +0.082 A 
ENDROOT
BRANCH   4  11
ATOM     11  C   UNL A   1     -26.854   0.561  26.180  0.00  0.00    +0.047 A 
ATOM     12  C   UNL A   1     -27.964   1.230  25.922  0.00  0.00    +0.143 A 
ATOM     13  C   UNL A   1     -26.361  -0.358  25.148  0.00  0.00    +0.101 A 
ATOM     14  C   UNL A   1     -28.711   1.165  24.803  0.00  0.00    +0.050 A 
ATOM     15  N   UNL A   1     -27.051  -0.377  23.988  0.00  0.00    -0.242 NA
ATOM     16  C   UNL A   1     -28.178   0.341  23.819  0.00  0.00    +0.101 A 
ATOM     17  F   UNL A   1     -28.505   2.022  26.933  0.00  0.00    -0.204 F 
ENDBRANCH   4  11
BRANCH   9  18
ATOM     18  C   UNL A   1     -22.962   1.383  28.760  0.00  0.00    +0.388 C 
ATOM     19  O   UNL A   1     -22.115   1.016  29.440  0.00  0.00    -0.240 OA
ATOM     20  O   UNL A   1     -22.581   2.266  27.733  0.00  0.00    -0.240 OA
ENDBRANCH   9  18
BRANCH  10  21
ATOM     21  C   UNL A   1     -24.740   2.182  30.951  0.00  0.00    +0.342 C 
ATOM     22  O   UNL A   1     -23.805   2.806  31.042  0.00  0.00    -0.245 OA
BRANCH  21  23
ATOM     23  O   UNL A   1     -25.687   2.432  31.950  0.00  0.00    -0.436 OA
BRANCH  23  24
ATOM     24  C   UNL A   1     -25.450   3.543  32.710  0.00  0.00    +0.311 C 
BRANCH  24  25
ATOM     25  C   UNL A   1     -26.431   4.654  32.484  0.00  0.00    +0.438 C 
ATOM     26  F   UNL A   1     -27.396   4.279  31.981  0.00  0.00    -0.166 F 
ATOM     27  F   UNL A   1     -26.720   5.184  33.751  0.00  0.00    -0.166 F 
ATOM     28  F   UNL A   1     -25.844   5.659  31.831  0.00  0.00    -0.166 F 
ENDBRANCH  24  25
ENDBRANCH  23  24
ENDBRANCH  21  23
ENDBRANCH  10  21
TORSDOF 6
