MODEL 4460
MODEL 1
REMARK VINA RESULT:    -7.306      0.000      0.000
REMARK INTER + INTRA:         -11.664
REMARK INTER:                  -9.869
REMARK INTRA:                  -1.795
REMARK UNBOUND:                -1.795
REMARK  Name = No_4460-gen_results/8p0m/2024-11-27-11-27-31/
REMARK  6 active torsions:
REMARK  status: ('A' for Active; 'I' for Inactive)
REMARK    1  A    between atoms: C_4  and  C_22
REMARK    2  A    between atoms: C_9  and  C_11
REMARK    3  A    between atoms: C_10  and  C_14
REMARK    4  A    between atoms: C_14  and  O_16
REMARK    5  A    between atoms: O_16  and  C_17
REMARK    6  A    between atoms: C_17  and  C_18
REMARK                            x       y       z     vdW  Elec       q    Type
REMARK                         _______ _______ _______ _____ _____    ______ ____
ROOT
ATOM      1  C   UNL A   1     -22.526  -1.345  28.910  0.00  0.00    +0.000 A 
ATOM      2  C   UNL A   1     -21.786  -0.654  29.201  0.00  0.00    +0.000 A 
ATOM      3  C   UNL A   1     -23.867  -0.766  28.827  0.00  0.00    +0.000 A 
ATOM      4  C   UNL A   1     -25.053  -1.506  28.340  0.00  0.00    +0.004 A 
ATOM      5  C   UNL A   1     -21.814   0.442  29.375  0.00  0.00    +0.000 A 
ATOM      6  C   UNL A   1     -22.937   1.295  29.356  0.00  0.00    +0.000 A 
ATOM      7  C   UNL A   1     -24.031   0.620  28.989  0.00  0.00    +0.006 A 
ATOM      8  C   UNL A   1     -25.571  -0.999  27.233  0.00  0.00    +0.007 A 
ATOM      9  C   UNL A   1     -25.708   0.389  26.988  0.00  0.00    +0.086 A 
ATOM     10  C   UNL A   1     -24.874   1.215  27.902  0.00  0.00    +0.082 A 
ENDROOT
BRANCH   4  11
ATOM     11  C   UNL A   1     -25.506  -2.621  29.033  0.00  0.00    +0.047 A 
ATOM     12  C   UNL A   1     -25.035  -3.851  28.934  0.00  0.00    +0.143 A 
ATOM     13  C   UNL A   1     -26.806  -2.443  29.690  0.00  0.00    +0.101 A 
ATOM     14  C   UNL A   1     -25.619  -4.983  29.372  0.00  0.00    +0.050 A 
ATOM     15  N   UNL A   1     -27.369  -3.556  30.207  0.00  0.00    -0.242 NA
ATOM     16  C   UNL A   1     -26.812  -4.773  30.052  0.00  0.00    +0.101 A 
ATOM     17  F   UNL A   1     -23.856  -4.049  28.217  0.00  0.00    -0.204 F 
ENDBRANCH   4  11
BRANCH   9  18
ATOM     18  C   UNL A   1     -26.705   0.925  26.122  0.00  0.00    +0.388 C 
ATOM     19  O   UNL A   1     -26.603   1.180  25.009  0.00  0.00    -0.240 OA
ATOM     20  O   UNL A   1     -27.993   1.073  26.668  0.00  0.00    -0.240 OA
ENDBRANCH   9  18
BRANCH  10  21
ATOM     21  C   UNL A   1     -25.081   2.689  27.812  0.00  0.00    +0.342 C 
ATOM     22  O   UNL A   1     -25.827   3.379  28.301  0.00  0.00    -0.245 OA
BRANCH  21  23
ATOM     23  O   UNL A   1     -23.981   3.348  27.254  0.00  0.00    -0.436 OA
BRANCH  23  24
ATOM     24  C   UNL A   1     -23.901   3.294  25.890  0.00  0.00    +0.311 C 
BRANCH  24  25
ATOM     25  C   UNL A   1     -22.830   2.376  25.380  0.00  0.00    +0.438 C 
ATOM     26  F   UNL A   1     -22.133   2.020  26.224  0.00  0.00    -0.166 F 
ATOM     27  F   UNL A   1     -23.494   1.281  24.807  0.00  0.00    -0.166 F 
ATOM     28  F   UNL A   1     -22.187   2.945  24.359  0.00  0.00    -0.166 F 
ENDBRANCH  24  25
ENDBRANCH  23  24
ENDBRANCH  21  23
ENDBRANCH  10  21
TORSDOF 6
ENDMDL
ENDMDL
