MODEL 4461
MODEL 1
REMARK VINA RESULT:    -4.523      0.000      0.000
REMARK INTER + INTRA:          -4.523
REMARK INTER:                  -4.523
REMARK INTRA:                   0.000
REMARK UNBOUND:                 0.000
REMARK  Name = No_4461-gen_results/8p0m/2024-11-27-11-27-31/
REMARK  0 active torsions:
REMARK  status: ('A' for Active; 'I' for Inactive)
REMARK                            x       y       z     vdW  Elec       q    Type
REMARK                         _______ _______ _______ _____ _____    ______ ____
ROOT
ATOM      1  C   UNL A   1     -24.017  -4.400  28.651  0.00  0.00    +0.030 A 
ATOM      2  C   UNL A   1     -24.899  -4.930  28.878  0.00  0.00    +0.140 A 
ATOM      3  C   UNL A   1     -24.045  -2.923  28.975  0.00  0.00    +0.002 A 
ATOM      4  C   UNL A   1     -25.150  -2.388  29.670  0.00  0.00    +0.000 A 
ATOM      5  C   UNL A   1     -26.148  -4.629  29.615  0.00  0.00    +0.030 A 
ATOM      6  C   UNL A   1     -26.206  -3.280  29.935  0.00  0.00    +0.002 A 
ATOM      7  F   UNL A   1     -24.862  -6.349  28.577  0.00  0.00    -0.204 F 
ENDROOT
TORSDOF 0
ENDMDL
ENDMDL
