REMARK  Name = No_4462-gen_results/8p0m/2024-11-27-11-27-31/
REMARK  1 active torsions:
REMARK  status: ('A' for Active; 'I' for Inactive)
REMARK    1  A    between atoms: C_2  and  C_3
REMARK                            x       y       z     vdW  Elec       q    Type
REMARK                         _______ _______ _______ _____ _____    ______ ____
ROOT
ATOM      1  C   UNL A   1     -26.810   0.189  27.651  0.00  0.00    +0.071 A 
ATOM      2  C   UNL A   1     -27.410   0.604  26.524  0.00  0.00    +0.004 A 
ATOM      3  C   UNL A   1     -25.286   0.328  27.583  0.00  0.00    +0.004 A 
ATOM      4  C   UNL A   1     -24.640   1.069  26.603  0.00  0.00    -0.000 A 
ATOM      5  C   UNL A   1     -26.776   1.231  25.404  0.00  0.00    -0.000 A 
ATOM      6  C   UNL A   1     -25.378   1.500  25.497  0.00  0.00    -0.000 A 
ATOM      7  C   UNL A   1     -23.258   1.336  26.789  0.00  0.00    -0.000 A 
ATOM      8  C   UNL A   1     -22.681   2.487  26.319  0.00  0.00    -0.000 A 
ATOM      9  C   UNL A   1     -22.540   0.637  27.871  0.00  0.00    -0.000 A 
ATOM     10  C   UNL A   1     -21.183   0.984  28.144  0.00  0.00    -0.000 A 
ATOM     11  C   UNL A   1     -20.622   2.090  27.535  0.00  0.00    +0.000 A 
ATOM     12  C   UNL A   1     -23.347   3.175  25.341  0.00  0.00    -0.000 A 
ATOM     13  C   UNL A   1     -21.311   2.720  26.637  0.00  0.00    -0.000 A 
ATOM     14  C   UNL A   1     -24.718   2.768  24.986  0.00  0.00    -0.000 A 
ENDROOT
BRANCH   1  16
ATOM     15  F   UNL A   1     -28.073  -1.254  28.532  0.00  0.00    -0.166 F 
ATOM     16  C   UNL A   1     -27.359  -0.379  28.722  0.00  0.00    +0.419 C 
ATOM     17  F   UNL A   1     -27.948   0.640  29.485  0.00  0.00    -0.166 F 
ATOM     18  F   UNL A   1     -26.568  -0.678  29.832  0.00  0.00    -0.166 F 
ENDBRANCH   1  16
TORSDOF 1
