MODEL 4462
MODEL 1
REMARK VINA RESULT:    -7.690      0.000      0.000
REMARK INTER + INTRA:          -8.374
REMARK INTER:                  -8.140
REMARK INTRA:                  -0.234
REMARK UNBOUND:                -0.234
REMARK  Name = No_4462-gen_results/8p0m/2024-11-27-11-27-31/
REMARK  1 active torsions:
REMARK  status: ('A' for Active; 'I' for Inactive)
REMARK    1  A    between atoms: C_2  and  C_3
REMARK                            x       y       z     vdW  Elec       q    Type
REMARK                         _______ _______ _______ _____ _____    ______ ____
ROOT
ATOM      1  C   UNL A   1     -22.888   0.667  28.828  0.00  0.00    +0.071 A 
ATOM      2  C   UNL A   1     -23.453   1.409  29.794  0.00  0.00    +0.004 A 
ATOM      3  C   UNL A   1     -23.206  -0.824  28.980  0.00  0.00    +0.004 A 
ATOM      4  C   UNL A   1     -24.198  -1.300  29.827  0.00  0.00    -0.000 A 
ATOM      5  C   UNL A   1     -24.361   0.948  30.800  0.00  0.00    -0.000 A 
ATOM      6  C   UNL A   1     -24.759  -0.421  30.758  0.00  0.00    -0.000 A 
ATOM      7  C   UNL A   1     -24.574  -2.663  29.694  0.00  0.00    -0.000 A 
ATOM      8  C   UNL A   1     -25.853  -3.082  29.952  0.00  0.00    -0.000 A 
ATOM      9  C   UNL A   1     -23.754  -3.544  28.841  0.00  0.00    -0.000 A 
ATOM     10  C   UNL A   1     -24.187  -4.883  28.604  0.00  0.00    -0.000 A 
ATOM     11  C   UNL A   1     -25.449  -5.277  29.006  0.00  0.00    +0.000 A 
ATOM     12  C   UNL A   1     -26.646  -2.263  30.709  0.00  0.00    -0.000 A 
ATOM     13  C   UNL A   1     -26.167  -4.448  29.696  0.00  0.00    -0.000 A 
ATOM     14  C   UNL A   1     -26.170  -0.908  31.038  0.00  0.00    -0.000 A 
ENDROOT
BRANCH   1  16
ATOM     15  F   UNL A   1     -21.048   0.516  27.805  0.00  0.00    -0.166 F 
ATOM     16  C   UNL A   1     -22.057   1.054  27.864  0.00  0.00    +0.419 C 
ATOM     17  F   UNL A   1     -21.919   2.447  27.959  0.00  0.00    -0.166 F 
ATOM     18  F   UNL A   1     -22.539   1.246  26.568  0.00  0.00    -0.166 F 
ENDBRANCH   1  16
TORSDOF 1
ENDMDL
ENDMDL
