REMARK  Name = outputs/IAG933/test6/raw/output_4463_IAG933_linker_design_.xyz
REMARK  13 active torsions:
REMARK  status: ('A' for Active; 'I' for Inactive)
REMARK    1  A    between atoms: C_1  and  C_2
REMARK    2  A    between atoms: C_1  and  C_8
REMARK    3  A    between atoms: C_1  and  C_28
REMARK    4  A    between atoms: C_13  and  C_30
REMARK    5  A    between atoms: C_14  and  C_15
REMARK    6  A    between atoms: C_21  and  O_22
REMARK    7  A    between atoms: O_22  and  C_23
REMARK    8  A    between atoms: C_23  and  C_24
REMARK    9  A    between atoms: C_24  and  O_25
REMARK   10  A    between atoms: O_25  and  C_41
REMARK   11  A    between atoms: N_33  and  C_46
REMARK   12  A    between atoms: C_41  and  C_44
REMARK   13  A    between atoms: C_44  and  C_45
REMARK                            x       y       z     vdW  Elec       q    Type
REMARK                         _______ _______ _______ _____ _____    ______ ____
ROOT
ATOM      1  C   UNL A   1     -25.688   1.614  26.461  0.00  0.00    +0.099 C 
ATOM      2  C   UNL A   1     -26.250   2.920  26.395  0.00  0.00    +0.059 C 
ATOM      3  C   UNL A   1     -27.438   3.091  25.645  0.00  0.00    +0.102 C 
ATOM      4  N   UNL A   1     -28.075   2.089  25.003  0.00  0.00    -0.212 NA
ATOM      5  C   UNL A   1     -27.543   0.849  25.079  0.00  0.00    +0.234 C 
ATOM      6  C   UNL A   1     -26.354   0.576  25.777  0.00  0.00    +0.244 C 
ATOM      7  F   UNL A   1     -25.860  -0.681  25.795  0.00  0.00    -0.227 F 
ENDROOT
BRANCH   1   8
ATOM      8  C   UNL A   1     -24.189   1.586  26.467  0.00  0.00    +0.067 C 
ATOM      9  C   UNL A   1     -22.120   1.330  27.467  0.00  0.00    +0.224 C 
ATOM     10  C   UNL A   1     -23.257   2.153  25.608  0.00  0.00    +0.179 C 
ATOM     11  O   UNL A   1     -21.977   2.050  26.247  0.00  0.00    -0.444 OA
ATOM     12  C   UNL A   1     -23.440   0.972  27.518  0.00  0.00    +0.220 C 
BRANCH  12  14
ATOM     13  C   UNL A   1     -23.882  -0.167  29.514  0.00  0.00    +0.399 C 
ATOM     14  N   UNL A   1     -24.105   0.190  28.230  0.00  0.00    -0.003 NA
ATOM     15  N   UNL A   1     -22.852   0.275  30.214  0.00  0.00    +0.193 NA
BRANCH  13  16
ATOM     16  C   UNL A   1     -24.855  -1.012  30.143  0.00  0.00    +0.153 C 
BRANCH  16  17
ATOM     17  C   UNL A   1     -24.973  -2.505  29.788  0.00  0.00    -0.009 C 
ATOM     18  C   UNL A   1     -23.906  -3.173  29.146  0.00  0.00    -0.004 C 
ATOM     19  C   UNL A   1     -23.989  -4.549  28.853  0.00  0.00    -0.000 C 
ATOM     20  C   UNL A   1     -25.137  -5.280  29.205  0.00  0.00    -0.000 C 
ATOM     21  C   UNL A   1     -26.232  -4.611  29.784  0.00  0.00    -0.000 C 
ATOM     22  C   UNL A   1     -26.155  -3.232  30.065  0.00  0.00    -0.004 C 
ENDBRANCH  16  17
BRANCH  16  23
ATOM     23  C   UNL A   1     -25.387  -0.679  31.571  0.00  0.00    +0.089 C 
ATOM     24  C   UNL A   1     -25.189   0.773  32.028  0.00  0.00    +0.020 C 
ATOM     25  C   UNL A   1     -25.336   0.684  33.544  0.00  0.00    +0.020 C 
ATOM     26  C   UNL A   1     -24.829  -0.715  33.905  0.00  0.00    +0.089 C 
ATOM     27  N   UNL A   1     -24.758  -1.481  32.646  0.00  0.00    -0.218 NA
ENDBRANCH  16  23
ENDBRANCH  13  16
ENDBRANCH  12  14
ENDBRANCH   1   8
BRANCH   2  28
ATOM     28  C   UNL A   1     -25.642   4.093  27.123  0.00  0.00    +0.263 C 
ATOM     29  N   UNL A   1     -25.614   5.252  26.449  0.00  0.00    -0.200 NA
ATOM     30  C   UNL A   1     -25.026   6.479  26.963  0.00  0.00    +0.139 C 
ATOM     31  O   UNL A   1     -25.143   3.966  28.243  0.00  0.00    -0.269 OA
ENDBRANCH   2  28
BRANCH   5  32
ATOM     32  O   UNL A   1     -28.193  -0.208  24.477  0.00  0.00    -0.459 OA
BRANCH  32  33
ATOM     33  C   UNL A   1     -29.460   0.005  23.866  0.00  0.00    +0.239 C 
BRANCH  33  34
ATOM     34  C   UNL A   1     -30.065  -1.377  23.573  0.00  0.00    +0.189 C 
BRANCH  34  35
ATOM     35  O   UNL A   1     -30.729  -1.878  24.721  0.00  0.00    -0.350 OA
BRANCH  35  36
ATOM     36  C   UNL A   1     -31.738  -1.083  25.262  0.00  0.00    +0.144 C 
BRANCH  36  37
ATOM     37  C   UNL A   1     -31.152  -0.440  26.592  0.00  0.00    +0.052 C 
BRANCH  37  47
ATOM     38  C   UNL A   1     -27.857   2.186  29.677  0.00  0.00    +0.001 C 
ATOM     39  C   UNL A   1     -30.442   2.060  28.318  0.00  0.00    +0.020 C 
ATOM     40  N   UNL A   1     -30.836  -0.265  28.911  0.00  0.00    -0.213 N 
ATOM     41  C   UNL A   1     -28.999   2.135  28.952  0.00  0.00    +0.002 C 
ATOM     42  C   UNL A   1     -29.119   2.263  30.420  0.00  0.00    +0.009 C 
ATOM     43  C   UNL A   1     -29.329   1.028  31.277  0.00  0.00    +0.086 C 
ATOM     44  N   UNL A   1     -33.096  -1.004  28.327  0.00  0.00    -0.069 NA
ATOM     45  C   UNL A   1     -29.611  -0.064  30.070  0.00  0.00    +0.233 C 
ATOM     46  O   UNL A   1     -31.674  -2.341  29.250  0.00  0.00    -0.249 OA
ATOM     47  C   UNL A   1     -30.908   0.539  27.817  0.00  0.00    +0.086 C 
ATOM     48  C   UNL A   1     -31.840  -1.244  28.908  0.00  0.00    +0.349 C 
ATOM     49  O   UNL A   1     -28.706  -0.856  29.882  0.00  0.00    -0.274 OA
ENDBRANCH  37  47
ENDBRANCH  36  37
ENDBRANCH  35  36
ENDBRANCH  34  35
ENDBRANCH  33  34
ENDBRANCH  32  33
ENDBRANCH   5  32
TORSDOF 13
