MODEL 4463
MODEL 1
REMARK VINA RESULT:    -6.545      0.000      0.000
REMARK INTER + INTRA:          -7.294
REMARK INTER:                  -6.928
REMARK INTRA:                  -0.365
REMARK UNBOUND:                -0.365
REMARK  Name = No_4463-gen_results/8p0m/2024-11-27-11-27-31/
REMARK  1 active torsions:
REMARK  status: ('A' for Active; 'I' for Inactive)
REMARK    1  A    between atoms: C_2  and  C_7
REMARK                            x       y       z     vdW  Elec       q    Type
REMARK                         _______ _______ _______ _____ _____    ______ ____
ROOT
ATOM      1  C   UNL A   1     -24.068  -3.870  28.830  0.00  0.00    +0.000 A 
ATOM      2  C   UNL A   1     -24.446  -2.746  29.068  0.00  0.00    +0.000 A 
ATOM      3  C   UNL A   1     -25.698  -2.513  29.627  0.00  0.00    +0.000 A 
ATOM      4  C   UNL A   1     -26.603  -3.601  29.898  0.00  0.00    +0.000 A 
ATOM      5  C   UNL A   1     -26.094  -4.864  29.570  0.00  0.00    +0.000 A 
ATOM      6  C   UNL A   1     -24.909  -5.030  29.027  0.00  0.00    +0.000 A 
ENDROOT
BRANCH   2   7
ATOM      7  C   UNL A   1     -23.659  -1.507  28.829  0.00  0.00    +0.000 A 
ATOM      8  C   UNL A   1     -22.556  -1.185  29.244  0.00  0.00    +0.000 A 
ATOM      9  C   UNL A   1     -21.812   0.016  28.846  0.00  0.00    +0.000 A 
ATOM     10  C   UNL A   1     -22.447   0.879  27.929  0.00  0.00    +0.000 A 
ATOM     11  C   UNL A   1     -24.417  -0.547  27.983  0.00  0.00    +0.000 A 
ATOM     12  C   UNL A   1     -23.748   0.586  27.531  0.00  0.00    +0.000 A 
ENDBRANCH   2   7
TORSDOF 1
ENDMDL
ENDMDL
