MODEL 4464
MODEL 1
REMARK VINA RESULT:    -6.734      0.000      0.000
REMARK INTER + INTRA:          -8.441
REMARK INTER:                  -8.309
REMARK INTRA:                  -0.132
REMARK UNBOUND:                -0.132
REMARK  Name = No_4464-gen_results/8p0m/2024-11-27-11-27-31/
REMARK  4 active torsions:
REMARK  status: ('A' for Active; 'I' for Inactive)
REMARK    1  A    between atoms: C_1  and  C_2
REMARK    2  A    between atoms: C_1  and  N_8
REMARK    3  A    between atoms: C_5  and  C_17
REMARK    4  A    between atoms: C_9  and  C_10
REMARK                            x       y       z     vdW  Elec       q    Type
REMARK                         _______ _______ _______ _____ _____    ______ ____
ROOT
ATOM      1  C   UNL A   1     -23.614  -2.067  29.012  0.00  0.00    +0.142 C 
ENDROOT
BRANCH   1   2
ATOM      2  C   UNL A   1     -24.671  -2.594  29.271  0.00  0.00    -0.001 A 
ATOM      3  C   UNL A   1     -25.746  -1.922  29.821  0.00  0.00    -0.002 A 
ATOM      4  C   UNL A   1     -27.005  -2.522  30.221  0.00  0.00    +0.008 A 
ATOM      5  C   UNL A   1     -27.185  -3.911  30.036  0.00  0.00    +0.098 A 
ATOM      6  C   UNL A   1     -26.066  -4.626  29.475  0.00  0.00    +0.008 A 
ATOM      7  C   UNL A   1     -24.868  -4.041  29.138  0.00  0.00    -0.002 A 
BRANCH   5   8
ATOM      8  C   UNL A   1     -28.385  -4.581  30.416  0.00  0.00    +0.477 C 
ATOM      9  N   UNL A   1     -28.817  -4.475  31.630  0.00  0.00    +0.205 NA
ATOM     10  N   UNL A   1     -29.282  -4.922  29.461  0.00  0.00    +0.205 NA
ENDBRANCH   5   8
ENDBRANCH   1   2
BRANCH   1  11
ATOM     11  N   UNL A   1     -23.117  -1.079  29.848  0.00  0.00    -0.197 NA
ATOM     12  C   UNL A   1     -22.989   0.241  29.533  0.00  0.00    +0.265 C 
ATOM     13  O   UNL A   1     -23.080   0.971  30.598  0.00  0.00    -0.268 OA
BRANCH  12  14
ATOM     14  C   UNL A   1     -23.158   0.671  28.374  0.00  0.00    +0.055 A 
ATOM     15  C   UNL A   1     -22.044   1.195  27.810  0.00  0.00    +0.005 A 
ATOM     16  C   UNL A   1     -22.138   1.908  26.522  0.00  0.00    +0.000 A 
ATOM     17  C   UNL A   1     -23.317   1.887  25.862  0.00  0.00    +0.000 A 
ATOM     18  C   UNL A   1     -24.312   1.111  26.308  0.00  0.00    +0.000 A 
ATOM     19  C   UNL A   1     -24.223   0.550  27.608  0.00  0.00    +0.005 A 
ENDBRANCH  12  14
ENDBRANCH   1  11
TORSDOF 4
ENDMDL
ENDMDL
