MODEL 4465
MODEL 1
REMARK VINA RESULT:    -6.580      0.000      0.000
REMARK INTER + INTRA:          -7.041
REMARK INTER:                  -6.965
REMARK INTRA:                  -0.076
REMARK UNBOUND:                -0.076
REMARK  Name = No_4465-gen_results/8p0m/2024-11-27-11-27-31/
REMARK  1 active torsions:
REMARK  status: ('A' for Active; 'I' for Inactive)
REMARK    1  A    between atoms: C_5  and  C_13
REMARK                            x       y       z     vdW  Elec       q    Type
REMARK                         _______ _______ _______ _____ _____    ______ ____
ROOT
ATOM      1  C   UNL A   1     -24.891  -2.612  30.042  0.00  0.00    +0.116 A 
ATOM      2  C   UNL A   1     -24.950  -1.433  30.306  0.00  0.00    +0.027 A 
ATOM      3  C   UNL A   1     -23.850  -0.598  30.324  0.00  0.00    +0.078 A 
ATOM      4  C   UNL A   1     -23.856   0.801  30.709  0.00  0.00    +0.015 A 
ATOM      5  C   UNL A   1     -25.079   1.395  31.093  0.00  0.00    +0.098 A 
ATOM      6  C   UNL A   1     -26.232   0.531  31.092  0.00  0.00    +0.008 A 
ATOM      7  C   UNL A   1     -26.195  -0.802  30.759  0.00  0.00    +0.002 A 
ATOM      8  N   UNL A   1     -26.109  -3.380  30.075  0.00  0.00    -0.241 NA
ATOM      9  C   UNL A   1     -26.134  -4.704  29.690  0.00  0.00    +0.099 A 
ATOM     10  C   UNL A   1     -25.091  -5.058  28.942  0.00  0.00    +0.024 A 
ATOM     11  C   UNL A   1     -24.050  -4.288  28.646  0.00  0.00    +0.041 A 
ATOM     12  C   UNL A   1     -24.016  -3.031  29.106  0.00  0.00    +0.166 A 
ATOM     13  O   UNL A   1     -22.927  -2.304  28.887  0.00  0.00    -0.419 OA
ATOM     14  C   UNL A   1     -22.790  -1.046  29.550  0.00  0.00    +0.346 A 
ATOM     15  O   UNL A   1     -21.699  -0.429  29.334  0.00  0.00    -0.244 OA
ENDROOT
BRANCH   5  16
ATOM     16  C   UNL A   1     -25.182   2.776  31.478  0.00  0.00    +0.477 C 
ATOM     17  N   UNL A   1     -25.133   3.101  32.718  0.00  0.00    +0.205 NA
ATOM     18  N   UNL A   1     -25.201   3.715  30.490  0.00  0.00    +0.205 NA
ENDBRANCH   5  16
TORSDOF 1
ENDMDL
ENDMDL
