REMARK  Name = outputs/IAG933/test6/raw/output_4465_IAG933_linker_design_.xyz
REMARK  9 active torsions:
REMARK  status: ('A' for Active; 'I' for Inactive)
REMARK    1  A    between atoms: C_1  and  C_2
REMARK    2  A    between atoms: C_13  and  C_30
REMARK    3  A    between atoms: C_14  and  C_15
REMARK    4  A    between atoms: C_21  and  O_22
REMARK    5  A    between atoms: O_22  and  C_23
REMARK    6  A    between atoms: C_23  and  C_24
REMARK    7  A    between atoms: C_28  and  C_32
REMARK    8  A    between atoms: C_29  and  O_43
REMARK    9  A    between atoms: C_31  and  N_42
REMARK                            x       y       z     vdW  Elec       q    Type
REMARK                         _______ _______ _______ _____ _____    ______ ____
ROOT
ATOM      1  C   UNL A   1     -23.229   1.827  26.680  0.00  0.00    +0.185 C 
ATOM      2  C   UNL A   1     -24.372   1.349  27.221  0.00  0.00    +0.114 C 
ATOM      3  C   UNL A   1     -24.034   0.649  28.472  0.00  0.00    +0.185 C 
ATOM      4  C   UNL A   1     -21.985   1.686  27.307  0.00  0.00    +0.320 C 
ATOM      5  O   UNL A   1     -21.593   0.912  28.337  0.00  0.00    -0.395 OA
ATOM      6  O   UNL A   1     -22.279  -0.894  29.190  0.00  0.00    -0.248 OA
ATOM      7  F   UNL A   1     -20.905   2.315  26.941  0.00  0.00    -0.160 F 
ATOM      8  C   UNL A   1     -22.666   0.263  28.636  0.00  0.00    +0.340 C 
ENDROOT
BRANCH   3  17
ATOM      9  C   UNL A   1     -24.855  -1.012  30.143  0.00  0.00    +0.113 C 
ATOM     10  C   UNL A   1     -25.387  -0.679  31.571  0.00  0.00    +0.095 C 
ATOM     11  C   UNL A   1     -25.189   0.773  32.028  0.00  0.00    +0.045 C 
ATOM     12  C   UNL A   1     -25.336   0.684  33.544  0.00  0.00    +0.022 C 
ATOM     13  C   UNL A   1     -24.829  -0.715  33.905  0.00  0.00    +0.089 C 
ATOM     14  N   UNL A   1     -24.758  -1.481  32.646  0.00  0.00    -0.218 NA
ATOM     15  C   UNL A   1     -25.797   2.010  31.329  0.00  0.00    +0.186 C 
ATOM     16  N   UNL A   1     -25.041   2.130  30.094  0.00  0.00    -0.139 NA
ATOM     17  N   UNL A   1     -24.857   0.438  29.651  0.00  0.00    -0.190 NA
BRANCH   9  18
ATOM     18  C   UNL A   1     -24.973  -2.505  29.788  0.00  0.00    -0.005 C 
ATOM     19  C   UNL A   1     -23.906  -3.173  29.146  0.00  0.00    -0.003 C 
ATOM     20  C   UNL A   1     -23.989  -4.549  28.853  0.00  0.00    -0.000 C 
ATOM     21  C   UNL A   1     -25.137  -5.280  29.205  0.00  0.00    -0.000 C 
ATOM     22  C   UNL A   1     -26.232  -4.611  29.784  0.00  0.00    -0.000 C 
ATOM     23  C   UNL A   1     -26.155  -3.232  30.065  0.00  0.00    -0.003 C 
ENDBRANCH   9  18
BRANCH  15  24
ATOM     24  C   UNL A   1     -26.037   3.312  32.060  0.00  0.00    +0.413 C 
ATOM     25  F   UNL A   1     -27.230   3.217  32.691  0.00  0.00    -0.168 F 
ATOM     26  F   UNL A   1     -24.976   3.549  32.939  0.00  0.00    -0.168 F 
ATOM     27  F   UNL A   1     -26.000   4.318  31.200  0.00  0.00    -0.168 F 
ENDBRANCH  15  24
ENDBRANCH   3  17
BRANCH   2  28
ATOM     28  C   UNL A   1     -25.688   1.614  26.461  0.00  0.00    +0.025 C 
ATOM     29  C   UNL A   1     -26.250   2.920  26.395  0.00  0.00    +0.073 C 
ATOM     30  C   UNL A   1     -27.438   3.091  25.645  0.00  0.00    +0.106 C 
ATOM     31  N   UNL A   1     -28.075   2.089  25.003  0.00  0.00    -0.208 NA
ATOM     32  C   UNL A   1     -27.543   0.849  25.079  0.00  0.00    +0.253 C 
ATOM     33  C   UNL A   1     -26.354   0.576  25.777  0.00  0.00    +0.190 C 
ATOM     34  F   UNL A   1     -25.860  -0.681  25.795  0.00  0.00    -0.200 F 
BRANCH  29  35
ATOM     35  C   UNL A   1     -25.642   4.093  27.123  0.00  0.00    +0.266 C 
ATOM     36  N   UNL A   1     -25.614   5.252  26.449  0.00  0.00    -0.200 NA
ATOM     37  C   UNL A   1     -25.026   6.479  26.963  0.00  0.00    +0.139 C 
ATOM     38  O   UNL A   1     -25.143   3.966  28.243  0.00  0.00    -0.268 OA
ENDBRANCH  29  35
BRANCH  32  39
ATOM     39  O   UNL A   1     -28.193  -0.208  24.477  0.00  0.00    -0.456 OA
BRANCH  39  40
ATOM     40  C   UNL A   1     -29.460   0.005  23.866  0.00  0.00    +0.243 C 
BRANCH  40  41
ATOM     41  C   UNL A   1     -30.065  -1.377  23.573  0.00  0.00    +0.229 C 
ATOM     42  O   UNL A   1     -30.729  -1.878  24.721  0.00  0.00    -0.216 OA
ENDBRANCH  40  41
ENDBRANCH  39  40
ENDBRANCH  32  39
ENDBRANCH   2  28
BRANCH   1  44
ATOM     43  C   UNL A   1     -22.094   2.614  24.650  0.00  0.00    +0.252 C 
ATOM     44  O   UNL A   1     -23.238   2.507  25.460  0.00  0.00    -0.470 OA
ENDBRANCH   1  44
TORSDOF 9
