MODEL 4466
MODEL 1
REMARK VINA RESULT:    -6.092      0.000      0.000
REMARK INTER + INTRA:          -6.514
REMARK INTER:                  -6.448
REMARK INTRA:                  -0.066
REMARK UNBOUND:                -0.066
REMARK  Name = No_4466-gen_results/8p0m/2024-11-27-11-27-31/
REMARK  1 active torsions:
REMARK  status: ('A' for Active; 'I' for Inactive)
REMARK    1  A    between atoms: C_5  and  C_11
REMARK                            x       y       z     vdW  Elec       q    Type
REMARK                         _______ _______ _______ _____ _____    ______ ____
ROOT
ATOM      1  C   UNL A   1     -30.812  -9.611  29.644  0.00  0.00    +0.099 A 
ATOM      2  C   UNL A   1     -30.092 -10.189  30.425  0.00  0.00    +0.019 A 
ATOM      3  C   UNL A   1     -29.216 -11.180  29.996  0.00  0.00    +0.003 A 
ATOM      4  C   UNL A   1     -28.290 -11.969  30.858  0.00  0.00    +0.005 A 
ATOM      5  C   UNL A   1     -28.195 -11.551  32.218  0.00  0.00    +0.057 A 
ATOM      6  C   UNL A   1     -29.049 -10.504  32.618  0.00  0.00    +0.005 A 
ATOM      7  C   UNL A   1     -29.903  -9.866  31.804  0.00  0.00    +0.002 A 
ATOM      8  N   UNL A   1     -31.048 -10.137  28.349  0.00  0.00    -0.242 NA
ATOM      9  C   UNL A   1     -30.147 -11.038  27.811  0.00  0.00    +0.099 A 
ATOM     10  C   UNL A   1     -29.239 -11.684  28.632  0.00  0.00    +0.021 A 
ENDROOT
BRANCH   5  11
ATOM     11  C   UNL A   1     -27.262 -12.251  33.105  0.00  0.00    +0.284 C 
ATOM     12  N   UNL A   1     -27.489 -12.242  34.385  0.00  0.00    -0.084 NA
ATOM     13  O   UNL A   1     -26.381 -13.041  32.593  0.00  0.00    -0.267 OA
ENDBRANCH   5  11
TORSDOF 1
ENDMDL
ENDMDL
