MODEL 4467
MODEL 1
REMARK VINA RESULT:    -7.597      0.000      0.000
REMARK INTER + INTRA:          -9.563
REMARK INTER:                  -9.374
REMARK INTRA:                  -0.190
REMARK UNBOUND:                -0.190
REMARK  Name = No_4467-gen_results/8p0m/2024-11-27-11-27-31/
REMARK  4 active torsions:
REMARK  status: ('A' for Active; 'I' for Inactive)
REMARK    1  A    between atoms: C_1  and  C_2
REMARK    2  A    between atoms: C_1  and  C_8
REMARK    3  A    between atoms: C_5  and  C_14
REMARK    4  A    between atoms: C_7  and  C_18
REMARK                            x       y       z     vdW  Elec       q    Type
REMARK                         _______ _______ _______ _____ _____    ______ ____
ROOT
ATOM      1  C   UNL A   1     -25.210  -0.554  28.871  0.00  0.00    +0.068 A 
ATOM      2  N   UNL A   1     -25.519  -0.375  27.579  0.00  0.00    -0.248 NA
ATOM      3  C   UNL A   1     -24.747   0.337  26.601  0.00  0.00    +0.102 A 
ATOM      4  C   UNL A   1     -23.775   1.176  27.053  0.00  0.00    +0.091 A 
ATOM      5  C   UNL A   1     -23.463   1.092  28.436  0.00  0.00    +0.011 A 
ATOM      6  C   UNL A   1     -24.166   0.317  29.295  0.00  0.00    +0.069 A 
ENDROOT
BRANCH   4   7
ATOM      7  C   UNL A   1     -23.076   2.002  26.080  0.00  0.00    +0.420 C 
ATOM      8  F   UNL A   1     -23.171   1.681  24.911  0.00  0.00    -0.166 F 
ATOM      9  F   UNL A   1     -21.641   2.004  26.304  0.00  0.00    -0.166 F 
ATOM     10  F   UNL A   1     -23.487   3.327  26.225  0.00  0.00    -0.166 F 
ENDBRANCH   4   7
BRANCH   6  11
ATOM     11  C   UNL A   1     -23.756   0.313  30.699  0.00  0.00    +0.266 C 
ATOM     12  O   UNL A   1     -23.974   1.161  31.473  0.00  0.00    -0.268 OA
ATOM     13  N   UNL A   1     -23.073  -0.858  31.129  0.00  0.00    -0.200 NA
ATOM     14  C   UNL A   1     -22.746  -1.106  32.510  0.00  0.00    +0.139 C 
ENDBRANCH   6  11
BRANCH   1  15
ATOM     15  C   UNL A   1     -25.896  -1.166  29.657  0.00  0.00    +0.072 C 
BRANCH  15  16
ATOM     16  C   UNL A   1     -25.693  -2.694  29.499  0.00  0.00    -0.016 A 
ATOM     17  C   UNL A   1     -26.295  -3.434  29.827  0.00  0.00    -0.004 A 
ATOM     18  C   UNL A   1     -26.028  -4.960  29.596  0.00  0.00    -0.000 A 
ATOM     19  C   UNL A   1     -24.873  -5.259  28.922  0.00  0.00    -0.000 A 
ATOM     20  C   UNL A   1     -24.277  -2.956  28.837  0.00  0.00    -0.004 A 
ATOM     21  C   UNL A   1     -23.980  -4.282  28.572  0.00  0.00    -0.000 A 
ENDBRANCH  15  16
ENDBRANCH   1  15
TORSDOF 4
ENDMDL
ENDMDL
