REMARK  Name = No_4467-gen_results/8p0m/2024-11-27-11-27-31/
REMARK  4 active torsions:
REMARK  status: ('A' for Active; 'I' for Inactive)
REMARK    1  A    between atoms: C_1  and  C_2
REMARK    2  A    between atoms: C_1  and  C_8
REMARK    3  A    between atoms: C_5  and  C_14
REMARK    4  A    between atoms: C_7  and  C_18
REMARK                            x       y       z     vdW  Elec       q    Type
REMARK                         _______ _______ _______ _____ _____    ______ ____
ROOT
ATOM      1  C   UNL A   1     -27.064  -0.119  28.608  0.00  0.00    +0.068 A 
ATOM      2  N   UNL A   1     -25.818  -0.343  29.049  0.00  0.00    -0.248 NA
ATOM      3  C   UNL A   1     -24.651   0.444  28.765  0.00  0.00    +0.102 A 
ATOM      4  C   UNL A   1     -24.715   1.312  27.719  0.00  0.00    +0.091 A 
ATOM      5  C   UNL A   1     -26.000   1.524  27.153  0.00  0.00    +0.011 A 
ATOM      6  C   UNL A   1     -27.090   0.820  27.538  0.00  0.00    +0.069 A 
ENDROOT
BRANCH   4   7
ATOM      7  C   UNL A   1     -23.499   2.017  27.339  0.00  0.00    +0.420 C 
ATOM      8  F   UNL A   1     -23.345   2.258  26.157  0.00  0.00    -0.166 F 
ATOM      9  F   UNL A   1     -22.307   1.259  27.677  0.00  0.00    -0.166 F 
ATOM     10  F   UNL A   1     -23.414   3.206  28.063  0.00  0.00    -0.166 F 
ENDBRANCH   4   7
BRANCH   6  11
ATOM     11  C   UNL A   1     -28.362   1.122  26.882  0.00  0.00    +0.266 C 
ATOM     12  O   UNL A   1     -28.718   0.687  25.858  0.00  0.00    -0.268 OA
ATOM     13  N   UNL A   1     -29.226   1.991  27.603  0.00  0.00    -0.200 NA
ATOM     14  C   UNL A   1     -30.579   2.262  27.190  0.00  0.00    +0.139 C 
ENDBRANCH   6  11
BRANCH   1  15
ATOM     15  C   UNL A   1     -28.016  -0.814  28.878  0.00  0.00    +0.072 C 
BRANCH  15  16
ATOM     16  C   UNL A   1     -28.636  -0.403  30.238  0.00  0.00    -0.016 A 
ATOM     17  C   UNL A   1     -28.495   0.457  30.746  0.00  0.00    -0.004 A 
ATOM     18  C   UNL A   1     -29.189   0.805  32.106  0.00  0.00    -0.000 A 
ATOM     19  C   UNL A   1     -30.013  -0.167  32.611  0.00  0.00    -0.000 A 
ATOM     20  C   UNL A   1     -29.458  -1.629  30.816  0.00  0.00    -0.004 A 
ATOM     21  C   UNL A   1     -30.128  -1.389  32.004  0.00  0.00    -0.000 A 
ENDBRANCH  15  16
ENDBRANCH   1  15
TORSDOF 4
