MODEL 4468
MODEL 1
REMARK VINA RESULT:    -7.952      0.000      0.000
REMARK INTER + INTRA:         -10.981
REMARK INTER:                  -9.811
REMARK INTRA:                  -1.170
REMARK UNBOUND:                -1.170
REMARK  Name = No_4468-gen_results/8p0m/2024-11-27-11-27-31/
REMARK  4 active torsions:
REMARK  status: ('A' for Active; 'I' for Inactive)
REMARK    1  A    between atoms: C_1  and  O_18
REMARK    2  A    between atoms: C_3  and  C_8
REMARK    3  A    between atoms: C_13  and  C_14
REMARK    4  A    between atoms: O_18  and  C_19
REMARK                            x       y       z     vdW  Elec       q    Type
REMARK                         _______ _______ _______ _____ _____    ______ ____
ROOT
ATOM      1  C   UNL A   1     -24.937  -0.353  28.098  0.00  0.00    +0.166 A 
ATOM      2  C   UNL A   1     -25.905  -0.135  27.407  0.00  0.00    +0.039 A 
ATOM      3  C   UNL A   1     -25.878   0.681  26.277  0.00  0.00    +0.003 A 
ATOM      4  C   UNL A   1     -24.646   1.360  25.926  0.00  0.00    +0.003 A 
ATOM      5  C   UNL A   1     -23.561   1.065  26.782  0.00  0.00    +0.033 A 
ATOM      6  C   UNL A   1     -23.685   0.288  27.828  0.00  0.00    +0.174 A 
ATOM      7  F   UNL A   1     -22.609   0.091  28.578  0.00  0.00    -0.201 F 
ENDROOT
BRANCH   3   8
ATOM      8  C   UNL A   1     -27.038   1.002  25.381  0.00  0.00    +0.000 A 
ATOM      9  C   UNL A   1     -27.216   2.191  24.838  0.00  0.00    -0.000 A 
ATOM     10  C   UNL A   1     -28.319   2.426  24.002  0.00  0.00    -0.000 A 
ATOM     11  C   UNL A   1     -29.151   1.320  23.543  0.00  0.00    +0.004 A 
ATOM     12  C   UNL A   1     -27.854  -0.074  24.912  0.00  0.00    +0.004 A 
ATOM     13  C   UNL A   1     -28.882   0.133  24.023  0.00  0.00    +0.071 A 
BRANCH  13  14
ATOM     14  C   UNL A   1     -29.683  -1.051  23.609  0.00  0.00    +0.419 C 
ATOM     15  F   UNL A   1     -30.190  -1.742  24.603  0.00  0.00    -0.166 F 
ATOM     16  F   UNL A   1     -28.940  -1.934  22.853  0.00  0.00    -0.166 F 
ATOM     17  F   UNL A   1     -30.847  -0.822  22.959  0.00  0.00    -0.166 F 
ENDBRANCH  13  14
ENDBRANCH   3   8
BRANCH   1  18
ATOM     18  O   UNL A   1     -24.961  -1.122  29.218  0.00  0.00    -0.468 OA
BRANCH  18  19
ATOM     19  C   UNL A   1     -24.943  -2.464  29.137  0.00  0.00    +0.243 C 
ATOM     20  C   UNL A   1     -26.070  -3.004  29.636  0.00  0.00    +0.282 C 
ATOM     21  O   UNL A   1     -26.966  -2.447  30.055  0.00  0.00    -0.269 OA
ATOM     22  N   UNL A   1     -26.135  -4.439  29.635  0.00  0.00    -0.202 NA
ATOM     23  C   UNL A   1     -25.068  -5.290  29.202  0.00  0.00    +0.115 C 
ATOM     24  C   UNL A   1     -24.091  -4.535  28.600  0.00  0.00    +0.028 C 
ATOM     25  C   UNL A   1     -23.838  -3.195  28.623  0.00  0.00    +0.055 C 
ENDBRANCH  18  19
ENDBRANCH   1  18
TORSDOF 4
ENDMDL
ENDMDL
