MODEL 4469
MODEL 1
REMARK VINA RESULT:    -5.911      0.000      0.000
REMARK INTER + INTRA:          -6.778
REMARK INTER:                  -6.602
REMARK INTRA:                  -0.176
REMARK UNBOUND:                -0.176
REMARK  Name = No_4469-gen_results/8p0m/2024-11-27-11-27-31/
REMARK  2 active torsions:
REMARK  status: ('A' for Active; 'I' for Inactive)
REMARK    1  A    between atoms: C_6  and  C_7
REMARK    2  A    between atoms: N_9  and  C_10
REMARK                            x       y       z     vdW  Elec       q    Type
REMARK                         _______ _______ _______ _____ _____    ______ ____
ROOT
ATOM      1  C   UNL A   1     -25.890  -2.828  29.680  0.00  0.00    +0.005 A 
ATOM      2  C   UNL A   1     -26.469  -3.879  29.832  0.00  0.00    +0.000 A 
ATOM      3  C   UNL A   1     -25.863  -5.087  29.503  0.00  0.00    +0.000 A 
ATOM      4  C   UNL A   1     -24.893  -5.180  29.030  0.00  0.00    +0.000 A 
ATOM      5  C   UNL A   1     -24.042  -4.001  28.718  0.00  0.00    +0.005 A 
ATOM      6  C   UNL A   1     -24.588  -2.849  29.033  0.00  0.00    +0.055 A 
ENDROOT
BRANCH   6   7
ATOM      7  C   UNL A   1     -23.800  -1.625  28.723  0.00  0.00    +0.269 C 
ATOM      8  O   UNL A   1     -22.594  -1.637  28.913  0.00  0.00    -0.268 OA
ATOM      9  N   UNL A   1     -24.350  -0.702  27.955  0.00  0.00    -0.174 NA
BRANCH   9  10
ATOM     10  C   UNL A   1     -23.945   0.466  27.635  0.00  0.00    +0.084 C 
ATOM     11  C   UNL A   1     -23.776   0.995  26.783  0.00  0.00    -0.008 C 
ATOM     12  C   UNL A   1     -23.287   2.373  26.491  0.00  0.00    +0.032 C 
ENDBRANCH   9  10
ENDBRANCH   6   7
TORSDOF 2
ENDMDL
ENDMDL
