REMARK  Name = outputs/IAG933/test6/raw/output_4469_IAG933_linker_design_.xyz
REMARK  8 active torsions:
REMARK  status: ('A' for Active; 'I' for Inactive)
REMARK    1  A    between atoms: C_1  and  C_2
REMARK    2  A    between atoms: C_1  and  C_8
REMARK    3  A    between atoms: C_1  and  N_32
REMARK    4  A    between atoms: C_13  and  C_38
REMARK    5  A    between atoms: C_14  and  C_15
REMARK    6  A    between atoms: C_21  and  O_22
REMARK    7  A    between atoms: O_22  and  C_23
REMARK    8  A    between atoms: C_23  and  C_24
REMARK                            x       y       z     vdW  Elec       q    Type
REMARK                         _______ _______ _______ _____ _____    ______ ____
ROOT
ATOM      1  C   UNL A   1     -25.375   0.529  28.518  0.00  0.00    +0.246 C 
ATOM      2  C   UNL A   1     -23.061  -0.134  29.096  0.00  0.00    +0.282 C 
ATOM      3  N   UNL A   1     -23.514   1.659  27.474  0.00  0.00    -0.209 N 
ATOM      4  C   UNL A   1     -21.307   1.115  28.088  0.00  0.00    +0.222 C 
ATOM      5  N   UNL A   1     -24.477  -0.058  29.246  0.00  0.00    -0.247 N 
ATOM      6  O   UNL A   1     -21.305   1.665  26.748  0.00  0.00    -0.433 OA
ATOM      7  O   UNL A   1     -26.669   0.457  28.622  0.00  0.00    -0.273 OA
ATOM      8  O   UNL A   1     -23.066   2.643  25.419  0.00  0.00    -0.226 OA
ATOM      9  C   UNL A   1     -22.669   2.026  26.445  0.00  0.00    +0.407 C 
ATOM     10  C   UNL A   1     -22.691   1.241  28.702  0.00  0.00    +0.281 C 
ATOM     11  C   UNL A   1     -24.810   1.160  27.565  0.00  0.00    +0.165 C 
ATOM     12  O   UNL A   1     -22.290  -0.660  30.119  0.00  0.00    -0.196 OA
ATOM     13  C   UNL A   1     -20.238   0.153  28.546  0.00  0.00    +0.052 C 
ATOM     14  F   UNL A   1     -22.730   2.140  29.679  0.00  0.00    -0.211 F 
ENDROOT
BRANCH  11  15
ATOM     15  C   UNL A   1     -25.688   1.614  26.461  0.00  0.00    +0.097 C 
ATOM     16  C   UNL A   1     -26.250   2.920  26.395  0.00  0.00    +0.057 C 
ATOM     17  C   UNL A   1     -27.438   3.091  25.645  0.00  0.00    +0.102 C 
ATOM     18  N   UNL A   1     -28.075   2.089  25.003  0.00  0.00    -0.212 NA
ATOM     19  C   UNL A   1     -27.543   0.849  25.079  0.00  0.00    +0.234 C 
ATOM     20  C   UNL A   1     -26.354   0.576  25.777  0.00  0.00    +0.242 C 
ATOM     21  F   UNL A   1     -25.860  -0.681  25.795  0.00  0.00    -0.227 F 
BRANCH  16  22
ATOM     22  C   UNL A   1     -25.642   4.093  27.123  0.00  0.00    +0.263 C 
ATOM     23  N   UNL A   1     -25.614   5.252  26.449  0.00  0.00    -0.200 NA
ATOM     24  C   UNL A   1     -25.026   6.479  26.963  0.00  0.00    +0.139 C 
ATOM     25  O   UNL A   1     -25.143   3.966  28.243  0.00  0.00    -0.269 OA
ENDBRANCH  16  22
BRANCH  19  26
ATOM     26  O   UNL A   1     -28.193  -0.208  24.477  0.00  0.00    -0.459 OA
BRANCH  26  27
ATOM     27  C   UNL A   1     -29.460   0.005  23.866  0.00  0.00    +0.242 C 
BRANCH  27  28
ATOM     28  C   UNL A   1     -30.065  -1.377  23.573  0.00  0.00    +0.229 C 
ATOM     29  O   UNL A   1     -30.729  -1.878  24.721  0.00  0.00    -0.216 OA
ENDBRANCH  27  28
ENDBRANCH  26  27
ENDBRANCH  19  26
ENDBRANCH  11  15
BRANCH   5  30
ATOM     30  C   UNL A   1     -24.855  -1.012  30.143  0.00  0.00    +0.116 C 
BRANCH  30  31
ATOM     31  C   UNL A   1     -24.973  -2.505  29.788  0.00  0.00    -0.003 C 
ATOM     32  C   UNL A   1     -23.906  -3.173  29.146  0.00  0.00    -0.003 C 
ATOM     33  C   UNL A   1     -23.989  -4.549  28.853  0.00  0.00    -0.000 C 
ATOM     34  C   UNL A   1     -25.137  -5.280  29.205  0.00  0.00    -0.000 C 
ATOM     35  C   UNL A   1     -26.232  -4.611  29.784  0.00  0.00    -0.000 C 
ATOM     36  C   UNL A   1     -26.155  -3.232  30.065  0.00  0.00    -0.003 C 
ENDBRANCH  30  31
BRANCH  30  37
ATOM     37  C   UNL A   1     -25.387  -0.679  31.571  0.00  0.00    +0.095 C 
ATOM     38  C   UNL A   1     -25.189   0.773  32.028  0.00  0.00    +0.021 C 
ATOM     39  C   UNL A   1     -25.336   0.684  33.544  0.00  0.00    +0.020 C 
ATOM     40  C   UNL A   1     -24.829  -0.715  33.905  0.00  0.00    +0.089 C 
ATOM     41  N   UNL A   1     -24.758  -1.481  32.646  0.00  0.00    -0.217 NA
ENDBRANCH  30  37
ENDBRANCH   5  30
TORSDOF 8
