MODEL 446
MODEL 1
REMARK VINA RESULT:    -7.016      0.000      0.000
REMARK INTER + INTRA:         -13.007
REMARK INTER:                  -9.887
REMARK INTRA:                  -3.120
REMARK UNBOUND:                -3.120
REMARK  Name = No_446-gen_results/8p0m/2024-11-27-11-27-31/
REMARK  7 active torsions:
REMARK  status: ('A' for Active; 'I' for Inactive)
REMARK    1  A    between atoms: C_2  and  C_23
REMARK    2  A    between atoms: C_15  and  C_16
REMARK    3  A    between atoms: C_20  and  C_26
REMARK    4  A    between atoms: C_23  and  O_24
REMARK    5  A    between atoms: O_24  and  C_31
REMARK    6  A    between atoms: C_26  and  C_27
REMARK    7  A    between atoms: C_32  and  C_33
REMARK                            x       y       z     vdW  Elec       q    Type
REMARK                         _______ _______ _______ _____ _____    ______ ____
ROOT
ATOM      1  C   UNL A   1     -32.653 -12.363  10.742  0.00  0.00    +0.021 A 
ATOM      2  C   UNL A   1     -33.529 -12.451  10.162  0.00  0.00    +0.077 A 
ATOM      3  C   UNL A   1     -31.824 -11.170  10.506  0.00  0.00    +0.055 A 
ATOM      4  C   UNL A   1     -32.276 -10.134   9.638  0.00  0.00    -0.004 A 
ATOM      5  C   UNL A   1     -31.499  -8.954   9.383  0.00  0.00    +0.055 C 
ATOM      6  C   UNL A   1     -34.277 -11.538   9.274  0.00  0.00    +0.006 A 
ATOM      7  C   UNL A   1     -33.558 -10.318   9.041  0.00  0.00    -0.003 A 
ATOM      8  C   UNL A   1     -30.259  -8.839   9.700  0.00  0.00    -0.004 A 
ATOM      9  C   UNL A   1     -29.440  -7.705   9.263  0.00  0.00    -0.003 A 
ATOM     10  C   UNL A   1     -28.062  -7.724   9.446  0.00  0.00    -0.000 A 
ATOM     11  C   UNL A   1     -27.414  -9.024   9.433  0.00  0.00    +0.001 A 
ATOM     12  C   UNL A   1     -28.220 -10.220   9.604  0.00  0.00    +0.015 A 
ATOM     13  C   UNL A   1     -29.552 -10.157   9.629  0.00  0.00    +0.055 A 
ATOM     14  N   UNL A   1     -30.421 -11.129  10.611  0.00  0.00    -0.234 N 
ATOM     15  C   UNL A   1     -29.649 -12.110  11.277  0.00  0.00    +0.257 C 
ATOM     16  O   UNL A   1     -29.111 -11.664  12.251  0.00  0.00    -0.269 OA
ENDROOT
BRANCH  15  17
ATOM     17  C   UNL A   1     -29.622 -13.398  10.810  0.00  0.00    +0.054 A 
ATOM     18  C   UNL A   1     -30.179 -14.368  11.463  0.00  0.00    +0.004 A 
ATOM     19  C   UNL A   1     -30.285 -15.702  10.968  0.00  0.00    -0.000 A 
ATOM     20  C   UNL A   1     -29.576 -16.068   9.783  0.00  0.00    -0.001 A 
ATOM     21  C   UNL A   1     -28.914 -15.031   9.125  0.00  0.00    +0.019 A 
ATOM     22  C   UNL A   1     -28.885 -13.769   9.530  0.00  0.00    +0.003 A 
BRANCH  21  23
ATOM     23  C   UNL A   1     -28.171 -15.446   7.859  0.00  0.00    +0.276 C 
ATOM     24  O   UNL A   1     -27.694 -14.346   7.192  0.00  0.00    -0.206 OA
BRANCH  23  25
ATOM     25  C   UNL A   1     -27.336 -16.459   7.900  0.00  0.00    +0.399 C 
ATOM     26  O   UNL A   1     -27.296 -17.375   7.138  0.00  0.00    -0.242 OA
ATOM     27  O   UNL A   1     -26.269 -16.321   8.680  0.00  0.00    -0.242 OA
ENDBRANCH  23  25
ENDBRANCH  21  23
ENDBRANCH  15  17
BRANCH   2  28
ATOM     28  C   UNL A   1     -34.484 -13.752  10.439  0.00  0.00    +0.346 C 
ATOM     29  O   UNL A   1     -35.720 -13.742  10.412  0.00  0.00    -0.244 OA
BRANCH  28  30
ATOM     30  O   UNL A   1     -33.868 -14.766  10.534  0.00  0.00    -0.418 OA
BRANCH  30  31
ATOM     31  C   UNL A   1     -33.760 -15.762   9.528  0.00  0.00    +0.183 C 
ATOM     32  C   UNL A   1     -33.147 -15.224   8.525  0.00  0.00    +0.041 C 
BRANCH  32  33
ATOM     33  C   UNL A   1     -32.577 -15.649   7.642  0.00  0.00    -0.001 C 
ATOM     34  C   UNL A   1     -31.622 -14.984   6.672  0.00  0.00    -0.026 C 
ATOM     35  C   UNL A   1     -31.525 -13.646   6.818  0.00  0.00    +0.031 C 
ENDBRANCH  32  33
ENDBRANCH  30  31
ENDBRANCH  28  30
ENDBRANCH   2  28
TORSDOF 7
ENDMDL
ENDMDL
