REMARK  Name = outputs/IAG933/test6/raw/output_4470_IAG933_linker_design_.xyz
REMARK  13 active torsions:
REMARK  status: ('A' for Active; 'I' for Inactive)
REMARK    1  A    between atoms: C_1  and  C_2
REMARK    2  A    between atoms: C_1  and  C_8
REMARK    3  A    between atoms: C_1  and  C_30
REMARK    4  A    between atoms: C_13  and  C_31
REMARK    5  A    between atoms: C_14  and  C_15
REMARK    6  A    between atoms: C_21  and  O_22
REMARK    7  A    between atoms: O_22  and  C_23
REMARK    8  A    between atoms: C_23  and  C_24
REMARK    9  A    between atoms: C_30  and  O_40
REMARK   10  A    between atoms: C_30  and  C_42
REMARK   11  A    between atoms: C_31  and  C_42
REMARK   12  A    between atoms: C_34  and  O_40
REMARK   13  A    between atoms: C_38  and  C_42
REMARK                            x       y       z     vdW  Elec       q    Type
REMARK                         _______ _______ _______ _____ _____    ______ ____
ROOT
ATOM      1  C   UNL A   1     -24.965   0.007  28.946  0.00  0.00    +0.122 C 
ENDROOT
BRANCH   1   2
ATOM      2  C   UNL A   1     -24.855  -1.012  30.143  0.00  0.00    +0.066 C 
BRANCH   2   3
ATOM      3  C   UNL A   1     -24.973  -2.505  29.788  0.00  0.00    -0.019 C 
ATOM      4  C   UNL A   1     -23.906  -3.173  29.146  0.00  0.00    -0.004 C 
ATOM      5  C   UNL A   1     -23.989  -4.549  28.853  0.00  0.00    -0.000 C 
ATOM      6  C   UNL A   1     -25.137  -5.280  29.205  0.00  0.00    -0.000 C 
ATOM      7  C   UNL A   1     -26.232  -4.611  29.784  0.00  0.00    -0.000 C 
ATOM      8  C   UNL A   1     -26.155  -3.232  30.065  0.00  0.00    -0.004 C 
ENDBRANCH   2   3
BRANCH   2   9
ATOM      9  C   UNL A   1     -25.387  -0.679  31.571  0.00  0.00    +0.079 C 
ATOM     10  C   UNL A   1     -25.189   0.773  32.028  0.00  0.00    +0.019 C 
ATOM     11  C   UNL A   1     -25.336   0.684  33.544  0.00  0.00    +0.020 C 
ATOM     12  C   UNL A   1     -24.829  -0.715  33.905  0.00  0.00    +0.089 C 
ATOM     13  N   UNL A   1     -24.758  -1.481  32.646  0.00  0.00    -0.219 NA
ENDBRANCH   2   9
ENDBRANCH   1   2
BRANCH   1  14
ATOM     14  O   UNL A   1     -26.341   0.025  28.555  0.00  0.00    -0.358 OA
BRANCH  14  18
ATOM     15  C   UNL A   1     -27.416   1.861  29.747  0.00  0.00    +0.032 C 
ATOM     16  C   UNL A   1     -28.840   2.400  29.539  0.00  0.00    +0.033 C 
ATOM     17  C   UNL A   1     -30.629   2.208  27.876  0.00  0.00    +0.003 C 
ATOM     18  C   UNL A   1     -27.505   0.413  29.276  0.00  0.00    +0.115 C 
ATOM     19  C   UNL A   1     -28.675   0.312  28.334  0.00  0.00    +0.030 C 
ATOM     20  O   UNL A   1     -28.154   4.760  29.732  0.00  0.00    -0.223 OA
ATOM     21  C   UNL A   1     -29.645   1.409  28.754  0.00  0.00    +0.005 C 
ATOM     22  C   UNL A   1     -30.218   3.674  28.033  0.00  0.00    +0.033 C 
ATOM     23  C   UNL A   1     -28.896   3.747  28.827  0.00  0.00    +0.152 C 
ENDBRANCH  14  18
ENDBRANCH   1  14
BRANCH   1  24
ATOM     24  C   UNL A   1     -23.990   0.315  27.724  0.00  0.00    +0.046 C 
BRANCH  24  26
ATOM     25  N   UNL A   1     -23.033   1.935  29.388  0.00  0.00    -0.133 NA
ATOM     26  C   UNL A   1     -22.681   0.895  28.389  0.00  0.00    +0.094 C 
ATOM     27  C   UNL A   1     -21.703   1.431  27.342  0.00  0.00    +0.021 C 
ENDBRANCH  24  26
BRANCH  24  28
ATOM     28  C   UNL A   1     -24.236   1.385  26.559  0.00  0.00    +0.012 C 
BRANCH  28  29
ATOM     29  C   UNL A   1     -25.688   1.614  26.461  0.00  0.00    +0.070 C 
ATOM     30  C   UNL A   1     -26.250   2.920  26.395  0.00  0.00    +0.055 C 
ATOM     31  C   UNL A   1     -27.438   3.091  25.645  0.00  0.00    +0.102 C 
ATOM     32  N   UNL A   1     -28.075   2.089  25.003  0.00  0.00    -0.212 NA
ATOM     33  C   UNL A   1     -27.543   0.849  25.079  0.00  0.00    +0.234 C 
ATOM     34  C   UNL A   1     -26.354   0.576  25.777  0.00  0.00    +0.240 C 
ATOM     35  F   UNL A   1     -25.860  -0.681  25.795  0.00  0.00    -0.227 F 
BRANCH  30  36
ATOM     36  C   UNL A   1     -25.642   4.093  27.123  0.00  0.00    +0.262 C 
ATOM     37  N   UNL A   1     -25.614   5.252  26.449  0.00  0.00    -0.200 NA
ATOM     38  C   UNL A   1     -25.026   6.479  26.963  0.00  0.00    +0.139 C 
ATOM     39  O   UNL A   1     -25.143   3.966  28.243  0.00  0.00    -0.269 OA
ENDBRANCH  30  36
BRANCH  33  40
ATOM     40  O   UNL A   1     -28.193  -0.208  24.477  0.00  0.00    -0.459 OA
BRANCH  40  41
ATOM     41  C   UNL A   1     -29.460   0.005  23.866  0.00  0.00    +0.242 C 
BRANCH  41  42
ATOM     42  C   UNL A   1     -30.065  -1.377  23.573  0.00  0.00    +0.229 C 
ATOM     43  O   UNL A   1     -30.729  -1.878  24.721  0.00  0.00    -0.216 OA
ENDBRANCH  41  42
ENDBRANCH  40  41
ENDBRANCH  33  40
ENDBRANCH  28  29
ENDBRANCH  24  28
ENDBRANCH   1  24
TORSDOF 13
