MODEL 4471
MODEL 1
REMARK VINA RESULT:    -7.048      0.000      0.000
REMARK INTER + INTRA:          -7.827
REMARK INTER:                  -7.460
REMARK INTRA:                  -0.367
REMARK UNBOUND:                -0.367
REMARK  Name = No_4471-gen_results/8p0m/2024-11-27-11-27-31/
REMARK  1 active torsions:
REMARK  status: ('A' for Active; 'I' for Inactive)
REMARK    1  A    between atoms: C_6  and  C_8
REMARK                            x       y       z     vdW  Elec       q    Type
REMARK                         _______ _______ _______ _____ _____    ______ ____
ROOT
ATOM      1 CL   UNL A   1     -22.478   2.449  26.450  0.00  0.00    -0.082 Cl
ATOM      2  C   UNL A   1     -23.422   1.685  26.583  0.00  0.00    +0.058 A 
ATOM      3  C   UNL A   1     -23.302   0.707  27.523  0.00  0.00    +0.011 A 
ATOM      4  C   UNL A   1     -24.388  -0.287  27.824  0.00  0.00    +0.001 A 
ATOM      5  C   UNL A   1     -25.545  -0.119  27.041  0.00  0.00    +0.000 A 
ATOM      6  C   UNL A   1     -25.639   0.800  26.113  0.00  0.00    +0.001 A 
ATOM      7  C   UNL A   1     -24.599   1.680  25.846  0.00  0.00    +0.011 A 
ATOM      8  C   UNL A   1     -24.183  -1.263  28.847  0.00  0.00    +0.000 A 
ATOM      9  C   UNL A   1     -23.120  -1.401  29.415  0.00  0.00    +0.000 A 
ATOM     10  C   UNL A   1     -21.951  -0.527  29.115  0.00  0.00    +0.000 A 
ATOM     11  C   UNL A   1     -22.106   0.414  28.207  0.00  0.00    +0.001 A 
ENDROOT
BRANCH   6  12
ATOM     12  C   UNL A   1     -26.869   0.887  25.296  0.00  0.00    +0.001 A 
ATOM     13  C   UNL A   1     -27.467   2.067  25.108  0.00  0.00    +0.001 A 
ATOM     14  C   UNL A   1     -28.626   2.248  24.346  0.00  0.00    +0.012 A 
ATOM     15  C   UNL A   1     -29.153   1.058  23.760  0.00  0.00    +0.068 A 
ATOM     16  C   UNL A   1     -27.426  -0.239  24.757  0.00  0.00    +0.012 A 
ATOM     17  C   UNL A   1     -28.550  -0.150  23.982  0.00  0.00    +0.068 A 
ATOM     18 CL   UNL A   1     -30.523   1.293  22.731  0.00  0.00    -0.081 Cl
ATOM     19 CL   UNL A   1     -29.194  -1.563  23.285  0.00  0.00    -0.081 Cl
ENDBRANCH   6  12
TORSDOF 1
ENDMDL
ENDMDL
