MODEL 4472
MODEL 1
REMARK VINA RESULT:    -5.139      0.000      0.000
REMARK INTER + INTRA:          -6.293
REMARK INTER:                  -6.041
REMARK INTRA:                  -0.252
REMARK UNBOUND:                -0.252
REMARK  Name = No_4472-gen_results/8p0m/2024-11-27-11-27-31/
REMARK  3 active torsions:
REMARK  status: ('A' for Active; 'I' for Inactive)
REMARK    1  A    between atoms: C_4  and  C_5
REMARK    2  A    between atoms: N_8  and  C_9
REMARK    3  A    between atoms: C_9  and  C_10
REMARK                            x       y       z     vdW  Elec       q    Type
REMARK                         _______ _______ _______ _____ _____    ______ ____
ROOT
ATOM      1  C   UNL A   1     -24.622  -5.187  28.898  0.00  0.00    +0.000 A 
ATOM      2  C   UNL A   1     -25.568  -5.181  29.362  0.00  0.00    +0.000 A 
ATOM      3  C   UNL A   1     -23.999  -3.944  28.654  0.00  0.00    +0.002 A 
ATOM      4  C   UNL A   1     -24.599  -2.747  28.993  0.00  0.00    +0.019 A 
ATOM      5  C   UNL A   1     -26.443  -4.129  29.862  0.00  0.00    +0.000 A 
ATOM      6  C   UNL A   1     -25.862  -2.817  29.636  0.00  0.00    +0.002 A 
ENDROOT
BRANCH   4   7
ATOM      7  C   UNL A   1     -23.989  -1.447  28.761  0.00  0.00    +0.093 C 
ATOM      8  N   UNL A   1     -23.300  -0.945  29.298  0.00  0.00    -0.264 NA
BRANCH   8   9
ATOM      9  C   UNL A   1     -23.035  -1.088  30.538  0.00  0.00    +0.152 C 
BRANCH   9  10
ATOM     10  C   UNL A   1     -23.664  -0.355  31.611  0.00  0.00    -0.000 C 
ATOM     11  C   UNL A   1     -23.589  -1.073  32.711  0.00  0.00    -0.003 C 
ENDBRANCH   9  10
ENDBRANCH   8   9
ENDBRANCH   4   7
TORSDOF 3
ENDMDL
ENDMDL
