REMARK  Name = outputs/IAG933/test6/raw/output_4473_IAG933_linker_design_.xyz
REMARK  12 active torsions:
REMARK  status: ('A' for Active; 'I' for Inactive)
REMARK    1  A    between atoms: C_1  and  C_2
REMARK    2  A    between atoms: C_1  and  C_8
REMARK    3  A    between atoms: C_1  and  C_28
REMARK    4  A    between atoms: C_13  and  C_38
REMARK    5  A    between atoms: C_14  and  C_15
REMARK    6  A    between atoms: C_15  and  O_18
REMARK    7  A    between atoms: O_18  and  C_39
REMARK    8  A    between atoms: C_21  and  O_22
REMARK    9  A    between atoms: O_22  and  C_23
REMARK   10  A    between atoms: C_23  and  C_24
REMARK   11  A    between atoms: C_28  and  O_40
REMARK   12  A    between atoms: C_34  and  O_40
REMARK                            x       y       z     vdW  Elec       q    Type
REMARK                         _______ _______ _______ _____ _____    ______ ____
ROOT
ATOM      1  C   UNL A   1     -25.688   1.614  26.461  0.00  0.00    +0.099 C 
ATOM      2  C   UNL A   1     -26.250   2.920  26.395  0.00  0.00    +0.057 C 
ATOM      3  C   UNL A   1     -27.438   3.091  25.645  0.00  0.00    +0.102 C 
ATOM      4  N   UNL A   1     -28.075   2.089  25.003  0.00  0.00    -0.212 NA
ATOM      5  C   UNL A   1     -27.543   0.849  25.079  0.00  0.00    +0.234 C 
ATOM      6  C   UNL A   1     -26.354   0.576  25.777  0.00  0.00    +0.244 C 
ATOM      7  F   UNL A   1     -25.860  -0.681  25.795  0.00  0.00    -0.227 F 
ENDROOT
BRANCH   1  13
ATOM      8  C   UNL A   1     -21.671   2.212  26.834  0.00  0.00    +0.042 C 
ATOM      9  C   UNL A   1     -22.975   2.296  26.356  0.00  0.00    +0.195 C 
ATOM     10  C   UNL A   1     -23.702   0.614  27.856  0.00  0.00    +0.138 C 
ATOM     11  O   UNL A   1     -23.288   3.164  25.434  0.00  0.00    -0.287 OA
ATOM     12  C   UNL A   1     -22.452   0.659  28.517  0.00  0.00    +0.037 C 
ATOM     13  C   UNL A   1     -24.009   1.554  26.919  0.00  0.00    +0.058 C 
ATOM     14  C   UNL A   1     -21.460   1.463  28.002  0.00  0.00    +0.006 C 
BRANCH  10  15
ATOM     15  O   UNL A   1     -24.524  -0.459  28.003  0.00  0.00    -0.475 OA
BRANCH  15  16
ATOM     16  C   UNL A   1     -25.515  -0.250  29.027  0.00  0.00    +0.211 C 
BRANCH  16  17
ATOM     17  C   UNL A   1     -24.855  -1.012  30.143  0.00  0.00    +0.082 C 
BRANCH  17  18
ATOM     18  C   UNL A   1     -24.973  -2.505  29.788  0.00  0.00    -0.018 C 
ATOM     19  C   UNL A   1     -23.906  -3.173  29.146  0.00  0.00    -0.004 C 
ATOM     20  C   UNL A   1     -23.989  -4.549  28.853  0.00  0.00    -0.000 C 
ATOM     21  C   UNL A   1     -25.137  -5.280  29.205  0.00  0.00    -0.000 C 
ATOM     22  C   UNL A   1     -26.232  -4.611  29.784  0.00  0.00    -0.000 C 
ATOM     23  C   UNL A   1     -26.155  -3.232  30.065  0.00  0.00    -0.004 C 
ENDBRANCH  17  18
BRANCH  17  24
ATOM     24  C   UNL A   1     -25.387  -0.679  31.571  0.00  0.00    +0.080 C 
ATOM     25  C   UNL A   1     -25.189   0.773  32.028  0.00  0.00    +0.019 C 
ATOM     26  C   UNL A   1     -25.336   0.684  33.544  0.00  0.00    +0.020 C 
ATOM     27  C   UNL A   1     -24.829  -0.715  33.905  0.00  0.00    +0.089 C 
ATOM     28  N   UNL A   1     -24.758  -1.481  32.646  0.00  0.00    -0.219 NA
ENDBRANCH  17  24
ENDBRANCH  16  17
ENDBRANCH  15  16
ENDBRANCH  10  15
ENDBRANCH   1  13
BRANCH   2  29
ATOM     29  C   UNL A   1     -25.642   4.093  27.123  0.00  0.00    +0.223 C 
ATOM     30  N   UNL A   1     -25.614   5.252  26.449  0.00  0.00    -0.236 NA
ATOM     31  C   UNL A   1     -25.026   6.479  26.963  0.00  0.00    +0.155 C 
BRANCH  29  32
ATOM     32  O   UNL A   1     -25.143   3.966  28.243  0.00  0.00    -0.437 OA
BRANCH  32  37
ATOM     33  C   UNL A   1     -25.996   4.880  30.572  0.00  0.00    +0.038 C 
ATOM     34  C   UNL A   1     -27.192   5.031  31.285  0.00  0.00    +0.003 C 
ATOM     35  C   UNL A   1     -28.286   3.607  29.695  0.00  0.00    +0.003 C 
ATOM     36  C   UNL A   1     -27.088   3.369  29.082  0.00  0.00    +0.038 C 
ATOM     37  C   UNL A   1     -25.986   4.085  29.390  0.00  0.00    +0.147 C 
ATOM     38  C   UNL A   1     -28.326   4.426  30.801  0.00  0.00    +0.000 C 
ENDBRANCH  32  37
ENDBRANCH  29  32
ENDBRANCH   2  29
BRANCH   5  39
ATOM     39  O   UNL A   1     -28.193  -0.208  24.477  0.00  0.00    -0.459 OA
BRANCH  39  40
ATOM     40  C   UNL A   1     -29.460   0.005  23.866  0.00  0.00    +0.242 C 
BRANCH  40  41
ATOM     41  C   UNL A   1     -30.065  -1.377  23.573  0.00  0.00    +0.229 C 
ATOM     42  O   UNL A   1     -30.729  -1.878  24.721  0.00  0.00    -0.216 OA
ENDBRANCH  40  41
ENDBRANCH  39  40
ENDBRANCH   5  39
TORSDOF 12
