REMARK  Name = outputs/IAG933/test6/raw/output_4474_IAG933_linker_design_.xyz
REMARK  9 active torsions:
REMARK  status: ('A' for Active; 'I' for Inactive)
REMARK    1  A    between atoms: C_1  and  C_2
REMARK    2  A    between atoms: C_1  and  C_8
REMARK    3  A    between atoms: C_1  and  C_32
REMARK    4  A    between atoms: C_13  and  N_35
REMARK    5  A    between atoms: C_14  and  C_15
REMARK    6  A    between atoms: C_21  and  O_22
REMARK    7  A    between atoms: O_22  and  C_23
REMARK    8  A    between atoms: C_23  and  C_24
REMARK    9  A    between atoms: C_30  and  O_31
REMARK                            x       y       z     vdW  Elec       q    Type
REMARK                         _______ _______ _______ _____ _____    ______ ____
ROOT
ATOM      1  C   UNL A   1     -25.263   0.847  28.662  0.00  0.00    +0.188 C 
ATOM      2  C   UNL A   1     -23.519   1.318  27.142  0.00  0.00    +0.195 C 
ATOM      3  C   UNL A   1     -24.424  -0.053  29.308  0.00  0.00    -0.007 C 
ATOM      4  C   UNL A   1     -21.246   1.044  27.880  0.00  0.00    +0.262 C 
ATOM      5  N   UNL A   1     -26.491   1.218  29.121  0.00  0.00    -0.106 NA
ATOM      6  N   UNL A   1     -24.823   1.288  27.419  0.00  0.00    -0.257 N 
ATOM      7  C   UNL A   1     -20.884  -0.727  29.064  0.00  0.00    +0.097 C 
ATOM      8  C   UNL A   1     -22.602   0.860  28.024  0.00  0.00    +0.071 C 
ATOM      9  N   UNL A   1     -20.445   0.061  28.163  0.00  0.00    -0.183 NA
ATOM     10  F   UNL A   1     -20.733   2.172  27.441  0.00  0.00    -0.212 F 
ATOM     11  C   UNL A   1     -22.101  -0.685  29.762  0.00  0.00    +0.045 C 
ATOM     12  C   UNL A   1     -23.043   0.036  29.054  0.00  0.00    -0.021 C 
ENDROOT
BRANCH   6  13
ATOM     13  C   UNL A   1     -25.688   1.614  26.461  0.00  0.00    +0.147 C 
ATOM     14  C   UNL A   1     -26.250   2.920  26.395  0.00  0.00    +0.073 C 
ATOM     15  C   UNL A   1     -27.438   3.091  25.645  0.00  0.00    +0.104 C 
ATOM     16  N   UNL A   1     -28.075   2.089  25.003  0.00  0.00    -0.212 NA
ATOM     17  C   UNL A   1     -27.543   0.849  25.079  0.00  0.00    +0.236 C 
ATOM     18  C   UNL A   1     -26.354   0.576  25.777  0.00  0.00    +0.258 C 
ATOM     19  F   UNL A   1     -25.860  -0.681  25.795  0.00  0.00    -0.225 F 
BRANCH  14  20
ATOM     20  C   UNL A   1     -25.642   4.093  27.123  0.00  0.00    +0.264 C 
ATOM     21  N   UNL A   1     -25.614   5.252  26.449  0.00  0.00    -0.200 NA
ATOM     22  C   UNL A   1     -25.026   6.479  26.963  0.00  0.00    +0.139 C 
ATOM     23  O   UNL A   1     -25.143   3.966  28.243  0.00  0.00    -0.269 OA
ENDBRANCH  14  20
BRANCH  17  24
ATOM     24  O   UNL A   1     -28.193  -0.208  24.477  0.00  0.00    -0.459 OA
BRANCH  24  25
ATOM     25  C   UNL A   1     -29.460   0.005  23.866  0.00  0.00    +0.242 C 
BRANCH  25  26
ATOM     26  C   UNL A   1     -30.065  -1.377  23.573  0.00  0.00    +0.229 C 
ATOM     27  O   UNL A   1     -30.729  -1.878  24.721  0.00  0.00    -0.216 OA
ENDBRANCH  25  26
ENDBRANCH  24  25
ENDBRANCH  17  24
ENDBRANCH   6  13
BRANCH   2  29
ATOM     28  C   UNL A   1     -23.023   2.685  25.001  0.00  0.00    +0.254 C 
ATOM     29  O   UNL A   1     -22.928   1.819  26.063  0.00  0.00    -0.459 OA
ENDBRANCH   2  29
BRANCH   3  30
ATOM     30  C   UNL A   1     -24.855  -1.012  30.143  0.00  0.00    +0.059 C 
BRANCH  30  31
ATOM     31  C   UNL A   1     -24.973  -2.505  29.788  0.00  0.00    -0.017 C 
ATOM     32  C   UNL A   1     -23.906  -3.173  29.146  0.00  0.00    -0.004 C 
ATOM     33  C   UNL A   1     -23.989  -4.549  28.853  0.00  0.00    -0.000 C 
ATOM     34  C   UNL A   1     -25.137  -5.280  29.205  0.00  0.00    -0.000 C 
ATOM     35  C   UNL A   1     -26.232  -4.611  29.784  0.00  0.00    -0.000 C 
ATOM     36  C   UNL A   1     -26.155  -3.232  30.065  0.00  0.00    -0.004 C 
ENDBRANCH  30  31
BRANCH  30  37
ATOM     37  C   UNL A   1     -25.387  -0.679  31.571  0.00  0.00    +0.081 C 
ATOM     38  C   UNL A   1     -25.189   0.773  32.028  0.00  0.00    +0.019 C 
ATOM     39  C   UNL A   1     -25.336   0.684  33.544  0.00  0.00    +0.020 C 
ATOM     40  C   UNL A   1     -24.829  -0.715  33.905  0.00  0.00    +0.089 C 
ATOM     41  N   UNL A   1     -24.758  -1.481  32.646  0.00  0.00    -0.219 NA
ENDBRANCH  30  37
ENDBRANCH   3  30
TORSDOF 9
