MODEL 4474
MODEL 1
REMARK VINA RESULT:    -6.286      0.000      0.000
REMARK INTER + INTRA:          -8.496
REMARK INTER:                  -7.756
REMARK INTRA:                  -0.740
REMARK UNBOUND:                -0.740
REMARK  Name = No_4474-gen_results/8p0m/2024-11-27-11-27-31/
REMARK  4 active torsions:
REMARK  status: ('A' for Active; 'I' for Inactive)
REMARK    1  A    between atoms: C_2  and  O_7
REMARK    2  A    between atoms: C_4  and  C_9
REMARK    3  A    between atoms: O_7  and  C_8
REMARK    4  A    between atoms: C_8  and  C_13
REMARK                            x       y       z     vdW  Elec       q    Type
REMARK                         _______ _______ _______ _____ _____    ______ ____
ROOT
ATOM      1  C   UNL A   1     -24.212   1.385  29.091  0.00  0.00    +0.037 A 
ATOM      2  C   UNL A   1     -23.309   0.975  29.446  0.00  0.00    +0.139 A 
ATOM      3  C   UNL A   1     -24.192   1.944  27.730  0.00  0.00    +0.007 A 
ATOM      4  C   UNL A   1     -23.040   1.798  26.903  0.00  0.00    +0.072 A 
ATOM      5  C   UNL A   1     -22.014   0.655  28.786  0.00  0.00    +0.037 A 
ATOM      6  C   UNL A   1     -21.953   1.167  27.524  0.00  0.00    +0.007 A 
ENDROOT
BRANCH   4   7
ATOM      7  C   UNL A   1     -22.967   2.333  25.567  0.00  0.00    +0.419 C 
ATOM      8  F   UNL A   1     -21.735   2.397  25.159  0.00  0.00    -0.166 F 
ATOM      9  F   UNL A   1     -23.611   1.551  24.662  0.00  0.00    -0.166 F 
ATOM     10  F   UNL A   1     -23.503   3.564  25.449  0.00  0.00    -0.166 F 
ENDBRANCH   4   7
BRANCH   2  11
ATOM     11  O   UNL A   1     -23.310   0.412  30.793  0.00  0.00    -0.471 OA
BRANCH  11  12
ATOM     12  C   UNL A   1     -23.096  -0.751  31.136  0.00  0.00    +0.232 C 
BRANCH  12  13
ATOM     13  C   UNL A   1     -24.016  -1.610  30.753  0.00  0.00    +0.021 A 
ATOM     14  C   UNL A   1     -23.775  -2.511  29.649  0.00  0.00    -0.001 A 
ATOM     15  C   UNL A   1     -24.779  -3.249  29.085  0.00  0.00    -0.000 A 
ATOM     16  C   UNL A   1     -26.113  -3.178  29.613  0.00  0.00    -0.000 A 
ATOM     17  C   UNL A   1     -26.392  -2.290  30.641  0.00  0.00    -0.000 A 
ATOM     18  C   UNL A   1     -25.389  -1.475  31.146  0.00  0.00    -0.001 A 
ENDBRANCH  12  13
ENDBRANCH  11  12
ENDBRANCH   2  11
TORSDOF 4
ENDMDL
ENDMDL
