MODEL 4476
MODEL 1
REMARK VINA RESULT:    -6.259      0.000      0.000
REMARK INTER + INTRA:          -9.292
REMARK INTER:                  -8.455
REMARK INTRA:                  -0.837
REMARK UNBOUND:                -0.837
REMARK  Name = No_4476-gen_results/8p0m/2024-11-27-11-27-31/
REMARK  6 active torsions:
REMARK  status: ('A' for Active; 'I' for Inactive)
REMARK    1  A    between atoms: C_1  and  C_8
REMARK    2  A    between atoms: C_3  and  C_17
REMARK    3  A    between atoms: C_5  and  C_11
REMARK    4  A    between atoms: C_12  and  C_14
REMARK    5  A    between atoms: C_17  and  C_18
REMARK    6  A    between atoms: C_18  and  C_20
REMARK                            x       y       z     vdW  Elec       q    Type
REMARK                         _______ _______ _______ _____ _____    ______ ____
ROOT
ATOM      1  C   UNL A   1      -7.669   0.341  36.291  0.00  0.00    +0.009 C 
ATOM      2  C   UNL A   1      -8.750   0.631  35.834  0.00  0.00    -0.045 C 
ATOM      3  C   UNL A   1      -9.960   0.272  36.427  0.00  0.00    +0.019 C 
ATOM      4  C   UNL A   1     -11.318   0.572  35.934  0.00  0.00    +0.008 C 
ATOM      5  C   UNL A   1     -11.395   1.496  34.848  0.00  0.00    +0.019 C 
ATOM      6  C   UNL A   1     -10.203   1.919  34.251  0.00  0.00    +0.008 C 
ATOM      7  C   UNL A   1      -8.981   1.547  34.694  0.00  0.00    +0.022 C 
ENDROOT
BRANCH   1   8
ATOM      8  C   UNL A   1      -6.713  -0.209  35.283  0.00  0.00    +0.229 C 
ATOM      9 BR   UNL A   1      -6.862  -1.492  34.532  0.00  0.00    -0.041 Br
ATOM     10  O   UNL A   1      -5.708   0.731  34.934  0.00  0.00    -0.206 OA
ENDBRANCH   1   8
BRANCH   5  11
ATOM     11  C   UNL A   1     -12.748   1.835  34.373  0.00  0.00    -0.038 C 
ATOM     12  C   UNL A   1     -13.341   2.920  34.852  0.00  0.00    +0.078 C 
ATOM     13  C   UNL A   1     -13.146   1.199  33.175  0.00  0.00    +0.027 C 
BRANCH  12  14
ATOM     14  C   UNL A   1     -14.148   2.856  36.064  0.00  0.00    +0.387 C 
ATOM     15  O   UNL A   1     -13.750   2.590  37.061  0.00  0.00    -0.241 OA
ATOM     16  O   UNL A   1     -15.402   3.294  35.904  0.00  0.00    -0.241 OA
ENDBRANCH  12  14
ENDBRANCH   5  11
BRANCH   3  17
ATOM     17  C   UNL A   1      -9.987  -0.651  37.608  0.00  0.00    +0.012 C 
BRANCH  17  18
ATOM     18  C   UNL A   1     -10.990  -1.176  38.025  0.00  0.00    +0.065 C 
ATOM     19  C   UNL A   1     -11.655  -0.610  39.149  0.00  0.00    +0.008 C 
BRANCH  18  20
ATOM     20  C   UNL A   1     -11.529  -2.498  37.685  0.00  0.00    +0.207 C 
ATOM     21  O   UNL A   1     -12.342  -2.970  38.588  0.00  0.00    -0.288 OA
ENDBRANCH  18  20
ENDBRANCH  17  18
ENDBRANCH   3  17
TORSDOF 6
ENDMDL
ENDMDL
