MODEL 4478
MODEL 1
REMARK VINA RESULT:    -6.493      0.000      0.000
REMARK INTER + INTRA:          -7.198
REMARK INTER:                  -6.872
REMARK INTRA:                  -0.325
REMARK UNBOUND:                -0.325
REMARK  Name = No_4478-gen_results/8p0m/2024-11-27-11-27-31/
REMARK  1 active torsions:
REMARK  status: ('A' for Active; 'I' for Inactive)
REMARK    1  A    between atoms: C_3  and  C_7
REMARK                            x       y       z     vdW  Elec       q    Type
REMARK                         _______ _______ _______ _____ _____    ______ ____
ROOT
ATOM      1  C   UNL A   1     -26.498  -3.569  29.892  0.00  0.00    +0.000 A 
ATOM      2  C   UNL A   1     -25.844  -2.583  29.643  0.00  0.00    +0.000 A 
ATOM      3  C   UNL A   1     -24.604  -2.621  29.007  0.00  0.00    +0.000 A 
ATOM      4  C   UNL A   1     -24.022  -3.905  28.669  0.00  0.00    +0.000 A 
ATOM      5  C   UNL A   1     -24.839  -5.012  28.998  0.00  0.00    +0.000 A 
ATOM      6  C   UNL A   1     -25.991  -4.877  29.604  0.00  0.00    +0.000 A 
ENDROOT
BRANCH   3   7
ATOM      7  C   UNL A   1     -23.753  -1.453  28.659  0.00  0.00    +0.000 A 
ATOM      8  C   UNL A   1     -22.593  -1.251  29.230  0.00  0.00    +0.000 A 
ATOM      9  C   UNL A   1     -21.864  -0.082  28.978  0.00  0.00    +0.000 A 
ATOM     10  C   UNL A   1     -22.320   0.949  28.192  0.00  0.00    +0.000 A 
ATOM     11  C   UNL A   1     -24.308  -0.381  27.849  0.00  0.00    +0.000 A 
ATOM     12  C   UNL A   1     -23.554   0.805  27.619  0.00  0.00    +0.000 A 
ENDBRANCH   3   7
TORSDOF 1
ENDMDL
ENDMDL
