REMARK  Name = outputs/IAG933/test6/raw/output_4478_IAG933_linker_design_.xyz
REMARK  9 active torsions:
REMARK  status: ('A' for Active; 'I' for Inactive)
REMARK    1  A    between atoms: C_1  and  C_2
REMARK    2  A    between atoms: C_1  and  C_8
REMARK    3  A    between atoms: C_1  and  C_34
REMARK    4  A    between atoms: C_13  and  C_47
REMARK    5  A    between atoms: C_14  and  C_15
REMARK    6  A    between atoms: C_21  and  O_22
REMARK    7  A    between atoms: O_22  and  C_23
REMARK    8  A    between atoms: C_23  and  C_24
REMARK    9  A    between atoms: C_28  and  C_44
REMARK                            x       y       z     vdW  Elec       q    Type
REMARK                         _______ _______ _______ _____ _____    ______ ____
ROOT
ATOM      1  C   UNL A   1     -23.488   1.582  27.033  0.00  0.00    +0.188 C 
ATOM      2  C   UNL A   1     -23.057   0.337  29.180  0.00  0.00    -0.005 C 
ATOM      3  C   UNL A   1     -24.526   0.131  29.328  0.00  0.00    -0.021 C 
ATOM      4  C   UNL A   1     -21.083   1.287  27.720  0.00  0.00    +0.034 C 
ATOM      5  O   UNL A   1     -22.903   1.929  25.916  0.00  0.00    -0.287 OA
ATOM      6  C   UNL A   1     -22.478   1.319  28.223  0.00  0.00    +0.016 C 
ATOM      7  C   UNL A   1     -25.473   1.041  28.704  0.00  0.00    -0.027 C 
ATOM      8  C   UNL A   1     -24.861   1.309  27.367  0.00  0.00    +0.019 C 
ENDROOT
BRANCH   7   9
ATOM      9  C   UNL A   1     -26.945   1.126  29.336  0.00  0.00    +0.022 C 
ATOM     10  C   UNL A   1     -29.694   2.388  30.271  0.00  0.00    +0.093 C 
ATOM     11  C   UNL A   1     -29.232   1.450  31.556  0.00  0.00    +0.030 C 
ATOM     12  C   UNL A   1     -29.976   1.293  29.122  0.00  0.00    +0.027 C 
ATOM     13  C   UNL A   1     -29.375  -0.159  29.173  0.00  0.00    +0.003 C 
ATOM     14  C   UNL A   1     -30.673   4.564  30.405  0.00  0.00    +0.115 C 
ATOM     15  C   UNL A   1     -27.775  -0.144  28.821  0.00  0.00    +0.004 C 
ATOM     16  C   UNL A   1     -27.469   2.616  29.433  0.00  0.00    +0.007 C 
ATOM     17  C   UNL A   1     -31.112   5.763  31.297  0.00  0.00    +0.032 C 
ATOM     18  C   UNL A   1     -28.912   3.275  29.235  0.00  0.00    +0.028 C 
ATOM     19  O   UNL A   1     -30.233   3.430  31.160  0.00  0.00    -0.361 OA
ATOM     20  C   UNL A   1     -29.493   4.780  29.458  0.00  0.00    +0.032 C 
ENDBRANCH   7   9
BRANCH   8  21
ATOM     21  C   UNL A   1     -25.688   1.614  26.461  0.00  0.00    +0.095 C 
ATOM     22  C   UNL A   1     -26.250   2.920  26.395  0.00  0.00    +0.059 C 
ATOM     23  C   UNL A   1     -27.438   3.091  25.645  0.00  0.00    +0.102 C 
ATOM     24  N   UNL A   1     -28.075   2.089  25.003  0.00  0.00    -0.212 NA
ATOM     25  C   UNL A   1     -27.543   0.849  25.079  0.00  0.00    +0.234 C 
ATOM     26  C   UNL A   1     -26.354   0.576  25.777  0.00  0.00    +0.244 C 
ATOM     27  F   UNL A   1     -25.860  -0.681  25.795  0.00  0.00    -0.227 F 
BRANCH  22  28
ATOM     28  C   UNL A   1     -25.642   4.093  27.123  0.00  0.00    +0.263 C 
ATOM     29  N   UNL A   1     -25.614   5.252  26.449  0.00  0.00    -0.200 NA
ATOM     30  C   UNL A   1     -25.026   6.479  26.963  0.00  0.00    +0.139 C 
ATOM     31  O   UNL A   1     -25.143   3.966  28.243  0.00  0.00    -0.269 OA
ENDBRANCH  22  28
BRANCH  25  32
ATOM     32  O   UNL A   1     -28.193  -0.208  24.477  0.00  0.00    -0.459 OA
BRANCH  32  33
ATOM     33  C   UNL A   1     -29.460   0.005  23.866  0.00  0.00    +0.242 C 
BRANCH  33  34
ATOM     34  C   UNL A   1     -30.065  -1.377  23.573  0.00  0.00    +0.229 C 
ATOM     35  O   UNL A   1     -30.729  -1.878  24.721  0.00  0.00    -0.216 OA
ENDBRANCH  33  34
ENDBRANCH  32  33
ENDBRANCH  25  32
ENDBRANCH   8  21
BRANCH   3  36
ATOM     36  C   UNL A   1     -24.855  -1.012  30.143  0.00  0.00    +0.060 C 
BRANCH  36  37
ATOM     37  C   UNL A   1     -24.973  -2.505  29.788  0.00  0.00    -0.017 C 
ATOM     38  C   UNL A   1     -23.906  -3.173  29.146  0.00  0.00    -0.004 C 
ATOM     39  C   UNL A   1     -23.989  -4.549  28.853  0.00  0.00    -0.000 C 
ATOM     40  C   UNL A   1     -25.137  -5.280  29.205  0.00  0.00    -0.000 C 
ATOM     41  C   UNL A   1     -26.232  -4.611  29.784  0.00  0.00    -0.000 C 
ATOM     42  C   UNL A   1     -26.155  -3.232  30.065  0.00  0.00    -0.004 C 
ENDBRANCH  36  37
BRANCH  36  43
ATOM     43  C   UNL A   1     -25.387  -0.679  31.571  0.00  0.00    +0.081 C 
ATOM     44  C   UNL A   1     -25.189   0.773  32.028  0.00  0.00    +0.019 C 
ATOM     45  C   UNL A   1     -25.336   0.684  33.544  0.00  0.00    +0.020 C 
ATOM     46  C   UNL A   1     -24.829  -0.715  33.905  0.00  0.00    +0.089 C 
ATOM     47  N   UNL A   1     -24.758  -1.481  32.646  0.00  0.00    -0.219 NA
ENDBRANCH  36  43
ENDBRANCH   3  36
TORSDOF 9
