MODEL 4479
MODEL 1
REMARK VINA RESULT:    -4.537      0.000      0.000
REMARK INTER + INTRA:          -4.537
REMARK INTER:                  -4.537
REMARK INTRA:                   0.000
REMARK UNBOUND:                 0.000
REMARK  Name = No_4479-gen_results/8p0m/2024-11-27-11-27-31/
REMARK  0 active torsions:
REMARK  status: ('A' for Active; 'I' for Inactive)
REMARK                            x       y       z     vdW  Elec       q    Type
REMARK                         _______ _______ _______ _____ _____    ______ ____
ROOT
ATOM      1  C   UNL A   1     -23.997  -4.442  28.629  0.00  0.00    +0.030 A 
ATOM      2  C   UNL A   1     -24.872  -4.988  28.843  0.00  0.00    +0.140 A 
ATOM      3  C   UNL A   1     -24.018  -3.007  28.957  0.00  0.00    +0.002 A 
ATOM      4  C   UNL A   1     -25.123  -2.441  29.658  0.00  0.00    +0.000 A 
ATOM      5  C   UNL A   1     -26.109  -4.660  29.603  0.00  0.00    +0.030 A 
ATOM      6  C   UNL A   1     -26.170  -3.335  29.917  0.00  0.00    +0.002 A 
ATOM      7  F   UNL A   1     -24.853  -6.396  28.538  0.00  0.00    -0.204 F 
ENDROOT
TORSDOF 0
ENDMDL
ENDMDL
