MODEL 447
MODEL 1
REMARK VINA RESULT:    -9.233      0.000      0.000
REMARK INTER + INTRA:         -10.110
REMARK INTER:                 -10.313
REMARK INTRA:                   0.203
REMARK UNBOUND:                 0.203
REMARK  Name = No_447-gen_results/8p0m/2024-11-27-11-27-31/
REMARK  2 active torsions:
REMARK  status: ('A' for Active; 'I' for Inactive)
REMARK    1  A    between atoms: C_7  and  C_17
REMARK    2  A    between atoms: C_33  and  O_34
REMARK                            x       y       z     vdW  Elec       q    Type
REMARK                         _______ _______ _______ _____ _____    ______ ____
ROOT
ATOM      1  O   UNL A   1     -12.600   2.244  33.859  0.00  0.00    -0.288 OA
ATOM      2  C   UNL A   1     -11.663   1.677  34.434  0.00  0.00    +0.211 C 
ATOM      3  C   UNL A   1     -10.599   1.334  34.216  0.00  0.00    +0.208 C 
ATOM      4  C   UNL A   1      -9.501   0.864  35.143  0.00  0.00    +0.069 C 
ATOM      5  C   UNL A   1      -9.884   0.735  36.449  0.00  0.00    +0.008 C 
ATOM      6  C   UNL A   1     -11.141   1.125  36.815  0.00  0.00    +0.015 C 
ATOM      7  C   UNL A   1     -12.023   1.529  35.995  0.00  0.00    +0.087 C 
ATOM      8  C   UNL A   1      -8.167   0.425  34.732  0.00  0.00    +0.033 C 
ATOM      9  C   UNL A   1      -7.048   0.936  35.390  0.00  0.00    -0.034 C 
ATOM     10  C   UNL A   1      -7.198   1.900  36.394  0.00  0.00    -0.048 C 
ATOM     11  C   UNL A   1      -6.084   2.651  36.761  0.00  0.00    +0.026 C 
ATOM     12  C   UNL A   1      -8.421   2.339  37.000  0.00  0.00    +0.022 C 
ATOM     13  C   UNL A   1      -8.768   1.628  37.205  0.00  0.00    +0.005 C 
ATOM     14  C   UNL A   1      -9.765  -0.845  36.751  0.00  0.00    +0.001 C 
ATOM     15  C   UNL A   1     -11.785   0.257  37.913  0.00  0.00    +0.032 C 
ATOM     16  C   UNL A   1     -10.877  -0.963  37.857  0.00  0.00    +0.003 C 
ATOM     17  C   UNL A   1     -11.732  -2.268  37.680  0.00  0.00    +0.000 C 
ATOM     18  C   UNL A   1     -10.116  -1.049  39.288  0.00  0.00    +0.005 C 
ATOM     19  O   UNL A   1     -10.344   0.904  32.911  0.00  0.00    -0.288 OA
ATOM     20  C   UNL A   1     -10.933  -1.580  40.411  0.00  0.00    +0.026 C 
ATOM     21  C   UNL A   1     -11.800  -0.762  40.901  0.00  0.00    -0.024 A 
ATOM     22  C   UNL A   1     -12.142  -0.793  41.999  0.00  0.00    -0.004 A 
ATOM     23  C   UNL A   1     -13.097   0.196  42.614  0.00  0.00    -0.000 A 
ATOM     24  C   UNL A   1     -13.296   1.145  42.079  0.00  0.00    -0.000 A 
ATOM     25  C   UNL A   1     -12.898   1.410  40.709  0.00  0.00    -0.002 A 
ATOM     26  C   UNL A   1     -12.036   0.444  40.186  0.00  0.00    +0.001 A 
ATOM     27  C   UNL A   1     -11.622   0.578  38.798  0.00  0.00    +0.137 C 
ENDROOT
BRANCH   7  28
ATOM     28  C   UNL A   1     -12.927   2.734  36.374  0.00  0.00    -0.015 A 
ATOM     29  C   UNL A   1     -12.228   3.767  36.558  0.00  0.00    -0.004 A 
ATOM     30  C   UNL A   1     -12.739   4.602  37.346  0.00  0.00    -0.000 A 
ATOM     31  C   UNL A   1     -14.071   4.526  37.731  0.00  0.00    -0.000 A 
ATOM     32  C   UNL A   1     -14.774   3.375  37.529  0.00  0.00    -0.000 A 
ATOM     33  C   UNL A   1     -14.243   2.775  36.392  0.00  0.00    -0.004 A 
ENDBRANCH   7  28
BRANCH  27  34
ATOM     34  O   UNL A   1     -10.804   1.748  39.051  0.00  0.00    -0.349 OA
ATOM     35  C   UNL A   1     -10.170   1.936  40.265  0.00  0.00    +0.174 C 
ENDBRANCH  27  34
TORSDOF 2
ENDMDL
ENDMDL
