REMARK  Name = outputs/IAG933/test6/raw/output_4480_IAG933_linker_design_.xyz
REMARK  11 active torsions:
REMARK  status: ('A' for Active; 'I' for Inactive)
REMARK    1  A    between atoms: C_1  and  C_2
REMARK    2  A    between atoms: C_1  and  C_8
REMARK    3  A    between atoms: C_9  and  C_37
REMARK    4  A    between atoms: C_13  and  N_42
REMARK    5  A    between atoms: C_14  and  C_15
REMARK    6  A    between atoms: C_21  and  O_22
REMARK    7  A    between atoms: O_22  and  C_23
REMARK    8  A    between atoms: C_23  and  C_24
REMARK    9  A    between atoms: C_29  and  C_36
REMARK   10  A    between atoms: C_29  and  C_37
REMARK   11  A    between atoms: C_29  and  N_41
REMARK                            x       y       z     vdW  Elec       q    Type
REMARK                         _______ _______ _______ _____ _____    ______ ____
ROOT
ATOM      1  C   UNL A   1     -22.890   2.550  25.307  0.00  0.00    +0.055 C 
ATOM      2  C   UNL A   1     -24.226   1.241  28.422  0.00  0.00    +0.223 A 
ATOM      3  N   UNL A   1     -22.858   0.854  28.731  0.00  0.00    -0.184 NA
ATOM      4  C   UNL A   1     -22.278   1.325  27.640  0.00  0.00    +0.237 A 
ATOM      5  C   UNL A   1     -23.196   1.821  26.596  0.00  0.00    +0.090 A 
ATOM      6  F   UNL A   1     -20.987   1.387  27.484  0.00  0.00    -0.182 F 
ATOM      7  N   UNL A   1     -25.340   1.615  29.226  0.00  0.00    -0.207 NA
ATOM      8  N   UNL A   1     -24.497   1.515  27.078  0.00  0.00    -0.276 N 
ENDROOT
BRANCH   8   9
ATOM      9  C   UNL A   1     -25.688   1.614  26.461  0.00  0.00    +0.104 C 
ATOM     10  C   UNL A   1     -26.250   2.920  26.395  0.00  0.00    +0.093 C 
ATOM     11  C   UNL A   1     -27.438   3.091  25.645  0.00  0.00    +0.108 C 
ATOM     12  N   UNL A   1     -28.075   2.089  25.003  0.00  0.00    -0.208 NA
ATOM     13  C   UNL A   1     -27.543   0.849  25.079  0.00  0.00    +0.255 C 
ATOM     14  C   UNL A   1     -26.354   0.576  25.777  0.00  0.00    +0.209 C 
ATOM     15  F   UNL A   1     -25.860  -0.681  25.795  0.00  0.00    -0.198 F 
BRANCH  10  16
ATOM     16  C   UNL A   1     -25.642   4.093  27.123  0.00  0.00    +0.268 C 
ATOM     17  N   UNL A   1     -25.614   5.252  26.449  0.00  0.00    -0.200 NA
ATOM     18  C   UNL A   1     -25.026   6.479  26.963  0.00  0.00    +0.139 C 
ATOM     19  O   UNL A   1     -25.143   3.966  28.243  0.00  0.00    -0.268 OA
ENDBRANCH  10  16
BRANCH  13  20
ATOM     20  O   UNL A   1     -28.193  -0.208  24.477  0.00  0.00    -0.456 OA
BRANCH  20  21
ATOM     21  C   UNL A   1     -29.460   0.005  23.866  0.00  0.00    +0.243 C 
BRANCH  21  22
ATOM     22  C   UNL A   1     -30.065  -1.377  23.573  0.00  0.00    +0.229 C 
ATOM     23  O   UNL A   1     -30.729  -1.878  24.721  0.00  0.00    -0.216 OA
ENDBRANCH  21  22
ENDBRANCH  20  21
ENDBRANCH  13  20
ENDBRANCH   8   9
BRANCH   7  24
ATOM     24  C   UNL A   1     -25.927   2.501  30.176  0.00  0.00    +0.096 C 
BRANCH  24  28
ATOM     25  O   UNL A   1     -26.952   6.538  30.539  0.00  0.00    -0.354 OA
ATOM     26  C   UNL A   1     -25.410   4.853  31.416  0.00  0.00    +0.034 C 
ATOM     27  C   UNL A   1     -25.699   6.352  31.256  0.00  0.00    +0.142 C 
ATOM     28  C   UNL A   1     -26.078   3.955  30.338  0.00  0.00    +0.025 C 
ATOM     29  C   UNL A   1     -27.642   4.028  30.600  0.00  0.00    +0.034 C 
ATOM     30  C   UNL A   1     -27.999   5.544  30.817  0.00  0.00    +0.142 C 
ENDBRANCH  24  28
BRANCH  24  31
ATOM     31  C   UNL A   1     -26.247   1.729  31.463  0.00  0.00    +0.023 C 
BRANCH  31  33
ATOM     32  C   UNL A   1     -25.387  -0.679  31.571  0.00  0.00    +0.077 C 
ATOM     33  C   UNL A   1     -25.189   0.773  32.028  0.00  0.00    +0.019 C 
ATOM     34  C   UNL A   1     -25.336   0.684  33.544  0.00  0.00    +0.020 C 
ATOM     35  C   UNL A   1     -24.829  -0.715  33.905  0.00  0.00    +0.089 C 
ATOM     36  N   UNL A   1     -24.758  -1.481  32.646  0.00  0.00    -0.219 NA
BRANCH  32  37
ATOM     37  C   UNL A   1     -24.855  -1.012  30.143  0.00  0.00    +0.044 C 
BRANCH  37  38
ATOM     38  C   UNL A   1     -24.973  -2.505  29.788  0.00  0.00    -0.021 C 
ATOM     39  C   UNL A   1     -23.906  -3.173  29.146  0.00  0.00    -0.004 C 
ATOM     40  C   UNL A   1     -23.989  -4.549  28.853  0.00  0.00    -0.000 C 
ATOM     41  C   UNL A   1     -25.137  -5.280  29.205  0.00  0.00    -0.000 C 
ATOM     42  C   UNL A   1     -26.232  -4.611  29.784  0.00  0.00    -0.000 C 
ATOM     43  C   UNL A   1     -26.155  -3.232  30.065  0.00  0.00    -0.004 C 
ENDBRANCH  37  38
ENDBRANCH  32  37
ENDBRANCH  31  33
ENDBRANCH  24  31
ENDBRANCH   7  24
TORSDOF 11
