MODEL 4480
MODEL 1
REMARK VINA RESULT:    -6.200      0.000      0.000
REMARK INTER + INTRA:          -6.636
REMARK INTER:                  -6.562
REMARK INTRA:                  -0.074
REMARK UNBOUND:                -0.074
REMARK  Name = No_4480-gen_results/8p0m/2024-11-27-11-27-31/
REMARK  1 active torsions:
REMARK  status: ('A' for Active; 'I' for Inactive)
REMARK    1  A    between atoms: C_7  and  C_15
REMARK                            x       y       z     vdW  Elec       q    Type
REMARK                         _______ _______ _______ _____ _____    ______ ____
ROOT
ATOM      1  C   UNL A   1     -26.305  -4.291  29.677  0.00  0.00    +0.000 A 
ATOM      2  C   UNL A   1     -26.075  -3.105  29.666  0.00  0.00    +0.002 A 
ATOM      3  C   UNL A   1     -24.884  -2.609  29.145  0.00  0.00    +0.000 A 
ATOM      4  C   UNL A   1     -23.868  -3.498  28.645  0.00  0.00    +0.000 A 
ATOM      5  C   UNL A   1     -24.207  -4.855  28.717  0.00  0.00    +0.000 A 
ATOM      6  C   UNL A   1     -25.340  -5.273  29.234  0.00  0.00    +0.000 A 
ATOM      7  C   UNL A   1     -26.994  -2.047  30.165  0.00  0.00    +0.021 A 
ATOM      8  C   UNL A   1     -27.043  -0.863  29.665  0.00  0.00    +0.002 A 
ATOM      9  C   UNL A   1     -25.764  -0.300  29.056  0.00  0.00    +0.000 A 
ATOM     10  C   UNL A   1     -24.767  -1.197  28.693  0.00  0.00    +0.000 A 
ATOM     11  C   UNL A   1     -25.640   1.121  28.761  0.00  0.00    +0.000 A 
ATOM     12  C   UNL A   1     -24.364   1.699  28.770  0.00  0.00    +0.000 A 
ATOM     13  C   UNL A   1     -23.243   0.856  28.450  0.00  0.00    +0.000 A 
ATOM     14  C   UNL A   1     -23.409  -0.628  28.501  0.00  0.00    +0.000 A 
ENDROOT
BRANCH   7  15
ATOM     15  C   UNL A   1     -28.100  -2.541  31.031  0.00  0.00    +0.122 C 
ATOM     16  N   UNL A   1     -28.945  -1.780  31.390  0.00  0.00    -0.146 NA
ENDBRANCH   7  15
TORSDOF 1
ENDMDL
ENDMDL
