MODEL 4482
MODEL 1
REMARK VINA RESULT:    -7.411      0.000      0.000
REMARK INTER + INTRA:          -8.729
REMARK INTER:                  -8.278
REMARK INTRA:                  -0.451
REMARK UNBOUND:                -0.451
REMARK  Name = No_4482-gen_results/8p0m/2024-11-27-11-27-31/
REMARK  2 active torsions:
REMARK  status: ('A' for Active; 'I' for Inactive)
REMARK    1  A    between atoms: C_2  and  C_14
REMARK    2  A    between atoms: C_3  and  C_4
REMARK                            x       y       z     vdW  Elec       q    Type
REMARK                         _______ _______ _______ _____ _____    ______ ____
ROOT
ATOM      1  C   UNL A   1     -23.825  -0.938  29.784  0.00  0.00    +0.255 C 
ATOM      2  N   UNL A   1     -24.616  -2.006  29.596  0.00  0.00    -0.224 N 
ATOM      3  C   UNL A   1     -25.628  -2.249  30.431  0.00  0.00    +0.232 C 
ATOM      4  C   UNL A   1     -23.968  -3.262  29.353  0.00  0.00    +0.134 C 
ATOM      5  C   UNL A   1     -24.311  -4.135  28.740  0.00  0.00    +0.173 C 
ATOM      6  C   UNL A   1     -25.654  -4.658  29.328  0.00  0.00    +0.044 C 
ATOM      7  C   UNL A   1     -26.422  -3.504  29.939  0.00  0.00    +0.088 C 
ATOM      8  O   UNL A   1     -26.130  -1.586  31.252  0.00  0.00    -0.275 OA
ATOM      9  O   UNL A   1     -23.063  -0.923  30.704  0.00  0.00    -0.270 OA
ATOM     10  O   UNL A   1     -23.733  -5.134  28.088  0.00  0.00    -0.221 OA
ENDROOT
BRANCH   1  13
ATOM     11  C   UNL A   1     -24.590   0.092  27.482  0.00  0.00    +0.011 A 
ATOM     12  C   UNL A   1     -24.239   0.697  26.694  0.00  0.00    +0.080 A 
ATOM     13  C   UNL A   1     -23.649  -0.058  28.656  0.00  0.00    +0.054 A 
ATOM     14  C   UNL A   1     -23.093   1.612  26.597  0.00  0.00    +0.007 A 
ATOM     15  C   UNL A   1     -22.201   1.552  27.646  0.00  0.00    +0.000 A 
ATOM     16  C   UNL A   1     -22.454   0.745  28.725  0.00  0.00    +0.004 A 
BRANCH  12  17
ATOM     17  C   UNL A   1     -25.163   0.828  25.413  0.00  0.00    +0.388 C 
ATOM     18  O   UNL A   1     -24.977   0.022  24.386  0.00  0.00    -0.241 OA
ATOM     19  O   UNL A   1     -26.101   1.597  25.461  0.00  0.00    -0.241 OA
ENDBRANCH  12  17
ENDBRANCH   1  13
TORSDOF 2
ENDMDL
ENDMDL
