REMARK  Name = outputs/IAG933/test6/raw/output_4482_IAG933_linker_design_.xyz
REMARK  12 active torsions:
REMARK  status: ('A' for Active; 'I' for Inactive)
REMARK    1  A    between atoms: C_1  and  C_2
REMARK    2  A    between atoms: C_1  and  C_8
REMARK    3  A    between atoms: C_1  and  C_40
REMARK    4  A    between atoms: C_13  and  C_28
REMARK    5  A    between atoms: C_14  and  C_15
REMARK    6  A    between atoms: C_21  and  O_22
REMARK    7  A    between atoms: O_22  and  C_23
REMARK    8  A    between atoms: C_23  and  C_24
REMARK    9  A    between atoms: C_30  and  N_31
REMARK   10  A    between atoms: C_30  and  C_44
REMARK   11  A    between atoms: C_39  and  C_40
REMARK   12  A    between atoms: C_40  and  C_44
REMARK                            x       y       z     vdW  Elec       q    Type
REMARK                         _______ _______ _______ _____ _____    ______ ____
ROOT
ATOM      1  C   UNL A   1     -24.678   1.296  27.231  0.00  0.00    +0.080 C 
ATOM      2  C   UNL A   1     -21.270   1.725  27.381  0.00  0.00    +0.199 C 
ATOM      3  C   UNL A   1     -22.097  -0.271  29.141  0.00  0.00    +0.042 C 
ATOM      4  O   UNL A   1     -20.368   1.042  28.053  0.00  0.00    -0.446 OA
ATOM      5  N   UNL A   1     -23.497   1.920  26.732  0.00  0.00    -0.242 NA
ATOM      6  C   UNL A   1     -23.130   0.496  28.446  0.00  0.00    +0.021 C 
ATOM      7  C   UNL A   1     -24.611   0.503  28.278  0.00  0.00    -0.003 C 
ATOM      8  C   UNL A   1     -22.669   1.356  27.554  0.00  0.00    +0.119 C 
ATOM      9  C   UNL A   1     -20.699  -0.130  28.736  0.00  0.00    +0.180 C 
ENDROOT
BRANCH   1  10
ATOM     10  C   UNL A   1     -25.688   1.614  26.461  0.00  0.00    +0.055 C 
ATOM     11  C   UNL A   1     -26.250   2.920  26.395  0.00  0.00    +0.078 C 
ATOM     12  C   UNL A   1     -27.438   3.091  25.645  0.00  0.00    +0.107 C 
ATOM     13  N   UNL A   1     -28.075   2.089  25.003  0.00  0.00    -0.208 NA
ATOM     14  C   UNL A   1     -27.543   0.849  25.079  0.00  0.00    +0.253 C 
ATOM     15  C   UNL A   1     -26.354   0.576  25.777  0.00  0.00    +0.195 C 
ATOM     16  F   UNL A   1     -25.860  -0.681  25.795  0.00  0.00    -0.199 F 
BRANCH  11  17
ATOM     17  C   UNL A   1     -25.642   4.093  27.123  0.00  0.00    +0.267 C 
ATOM     18  N   UNL A   1     -25.614   5.252  26.449  0.00  0.00    -0.200 NA
ATOM     19  C   UNL A   1     -25.026   6.479  26.963  0.00  0.00    +0.139 C 
ATOM     20  O   UNL A   1     -25.143   3.966  28.243  0.00  0.00    -0.268 OA
ENDBRANCH  11  17
BRANCH  14  21
ATOM     21  O   UNL A   1     -28.193  -0.208  24.477  0.00  0.00    -0.456 OA
BRANCH  21  22
ATOM     22  C   UNL A   1     -29.460   0.005  23.866  0.00  0.00    +0.243 C 
BRANCH  22  23
ATOM     23  C   UNL A   1     -30.065  -1.377  23.573  0.00  0.00    +0.229 C 
ATOM     24  O   UNL A   1     -30.729  -1.878  24.721  0.00  0.00    -0.216 OA
ENDBRANCH  22  23
ENDBRANCH  21  22
ENDBRANCH  14  21
ENDBRANCH   1  10
BRANCH   7  25
ATOM     25  C   UNL A   1     -25.611  -0.190  29.001  0.00  0.00    +0.031 C 
BRANCH  25  26
ATOM     26  C   UNL A   1     -24.855  -1.012  30.143  0.00  0.00    +0.043 C 
BRANCH  26  27
ATOM     27  C   UNL A   1     -24.973  -2.505  29.788  0.00  0.00    -0.021 C 
ATOM     28  C   UNL A   1     -23.906  -3.173  29.146  0.00  0.00    -0.004 C 
ATOM     29  C   UNL A   1     -23.989  -4.549  28.853  0.00  0.00    -0.000 C 
ATOM     30  C   UNL A   1     -25.137  -5.280  29.205  0.00  0.00    -0.000 C 
ATOM     31  C   UNL A   1     -26.232  -4.611  29.784  0.00  0.00    -0.000 C 
ATOM     32  C   UNL A   1     -26.155  -3.232  30.065  0.00  0.00    -0.004 C 
ENDBRANCH  26  27
BRANCH  26  33
ATOM     33  C   UNL A   1     -25.387  -0.679  31.571  0.00  0.00    +0.077 C 
ATOM     34  C   UNL A   1     -25.189   0.773  32.028  0.00  0.00    +0.019 C 
ATOM     35  C   UNL A   1     -25.336   0.684  33.544  0.00  0.00    +0.020 C 
ATOM     36  C   UNL A   1     -24.829  -0.715  33.905  0.00  0.00    +0.089 C 
ATOM     37  N   UNL A   1     -24.758  -1.481  32.646  0.00  0.00    -0.219 NA
ENDBRANCH  26  33
ENDBRANCH  25  26
BRANCH  25  38
ATOM     38  C   UNL A   1     -27.164  -0.049  28.689  0.00  0.00    +0.026 C 
BRANCH  38  39
ATOM     39  C   UNL A   1     -28.069   0.867  29.586  0.00  0.00    +0.095 C 
BRANCH  39  40
ATOM     40  N   UNL A   1     -28.692   2.101  29.067  0.00  0.00    -0.268 N 
ATOM     41  C   UNL A   1     -29.892   1.956  28.237  0.00  0.00    +0.105 C 
ATOM     42  C   UNL A   1     -30.614   3.311  28.308  0.00  0.00    +0.190 C 
ATOM     43  O   UNL A   1     -29.890   4.115  29.206  0.00  0.00    -0.451 OA
ATOM     44  C   UNL A   1     -28.717   3.414  29.623  0.00  0.00    +0.306 C 
ENDBRANCH  39  40
ENDBRANCH  38  39
ENDBRANCH  25  38
ENDBRANCH   7  25
TORSDOF 12
