MODEL 4484
MODEL 1
REMARK VINA RESULT:    -7.065      0.000      0.000
REMARK INTER + INTRA:          -7.957
REMARK INTER:                  -7.478
REMARK INTRA:                  -0.478
REMARK UNBOUND:                -0.478
REMARK  Name = No_4484-gen_results/8p0m/2024-11-27-11-27-31/
REMARK  1 active torsions:
REMARK  status: ('A' for Active; 'I' for Inactive)
REMARK    1  A    between atoms: C_6  and  C_13
REMARK                            x       y       z     vdW  Elec       q    Type
REMARK                         _______ _______ _______ _____ _____    ______ ____
ROOT
ATOM      1  F   UNL A   1     -21.082   2.150  27.377  0.00  0.00    -0.203 F 
ATOM      2  C   UNL A   1     -22.072   1.576  27.359  0.00  0.00    +0.151 A 
ATOM      3  C   UNL A   1     -23.001   1.758  26.532  0.00  0.00    +0.085 A 
ATOM      4  C   UNL A   1     -22.212   0.519  28.463  0.00  0.00    +0.031 A 
ATOM      5  C   UNL A   1     -23.458  -0.216  28.543  0.00  0.00    +0.005 A 
ATOM      6  C   UNL A   1     -24.300   1.002  26.642  0.00  0.00    +0.013 A 
ATOM      7  C   UNL A   1     -23.654  -1.232  29.572  0.00  0.00    +0.042 A 
ATOM      8  C   UNL A   1     -24.508   0.040  27.624  0.00  0.00    +0.001 A 
ATOM      9  C   UNL A   1     -24.910  -1.333  30.165  0.00  0.00    +0.196 A 
ATOM     10  C   UNL A   1     -26.085  -0.891  29.333  0.00  0.00    +0.042 A 
ATOM     11  C   UNL A   1     -25.823  -0.344  28.056  0.00  0.00    +0.003 A 
ATOM     12  O   UNL A   1     -25.240  -2.197  31.107  0.00  0.00    -0.287 OA
ATOM     13 CL   UNL A   1     -22.702   2.579  25.126  0.00  0.00    -0.080 Cl
ENDROOT
BRANCH   6  14
ATOM     14  C   UNL A   1     -25.431   1.306  25.665  0.00  0.00    +0.001 A 
ATOM     15  C   UNL A   1     -25.817   0.287  24.859  0.00  0.00    +0.000 A 
ATOM     16  C   UNL A   1     -26.997   0.361  24.199  0.00  0.00    +0.000 A 
ATOM     17  C   UNL A   1     -27.708   1.574  24.188  0.00  0.00    +0.000 A 
ATOM     18  C   UNL A   1     -27.327   2.579  25.053  0.00  0.00    +0.000 A 
ATOM     19  C   UNL A   1     -26.199   2.422  25.867  0.00  0.00    +0.000 A 
ENDBRANCH   6  14
TORSDOF 1
ENDMDL
ENDMDL
