MODEL 4485
MODEL 1
REMARK VINA RESULT:    -6.269      0.000      0.000
REMARK INTER + INTRA:          -7.220
REMARK INTER:                  -7.002
REMARK INTRA:                  -0.219
REMARK UNBOUND:                -0.219
REMARK  Name = No_4485-gen_results/8p0m/2024-11-27-11-27-31/
REMARK  2 active torsions:
REMARK  status: ('A' for Active; 'I' for Inactive)
REMARK    1  A    between atoms: C_4  and  C_11
REMARK    2  A    between atoms: C_11  and  C_13
REMARK                            x       y       z     vdW  Elec       q    Type
REMARK                         _______ _______ _______ _____ _____    ______ ____
ROOT
ATOM      1  C   UNL A   1     -23.995  -4.686  28.549  0.00  0.00    -0.000 A 
ATOM      2  C   UNL A   1     -23.876  -3.483  28.586  0.00  0.00    -0.000 A 
ATOM      3  C   UNL A   1     -24.802  -2.633  29.190  0.00  0.00    -0.004 A 
ATOM      4  C   UNL A   1     -24.742  -1.161  29.270  0.00  0.00    -0.015 A 
ATOM      5  C   UNL A   1     -25.739  -0.310  29.867  0.00  0.00    -0.004 A 
ATOM      6  C   UNL A   1     -26.728  -0.986  30.590  0.00  0.00    -0.000 A 
ATOM      7  C   UNL A   1     -25.291  -5.266  29.044  0.00  0.00    -0.000 A 
ATOM      8  C   UNL A   1     -26.218  -4.518  29.732  0.00  0.00    -0.000 A 
ATOM      9  C   UNL A   1     -26.052  -3.146  29.809  0.00  0.00    -0.000 A 
ATOM     10  C   UNL A   1     -26.957  -2.343  30.502  0.00  0.00    -0.000 A 
ENDROOT
BRANCH   4  11
ATOM     11  C   UNL A   1     -23.589  -0.423  28.660  0.00  0.00    +0.087 C 
ATOM     12  C   UNL A   1     -23.786   0.276  27.556  0.00  0.00    +0.013 C 
BRANCH  11  13
ATOM     13  C   UNL A   1     -22.333  -0.459  29.381  0.00  0.00    +0.211 C 
ATOM     14  O   UNL A   1     -21.374  -1.010  28.977  0.00  0.00    -0.288 OA
ENDBRANCH  11  13
ENDBRANCH   4  11
TORSDOF 2
ENDMDL
ENDMDL
