REMARK  Name = No_4485-gen_results/8p0m/2024-11-27-11-27-31/
REMARK  2 active torsions:
REMARK  status: ('A' for Active; 'I' for Inactive)
REMARK    1  A    between atoms: C_4  and  C_11
REMARK    2  A    between atoms: C_11  and  C_13
REMARK                            x       y       z     vdW  Elec       q    Type
REMARK                         _______ _______ _______ _____ _____    ______ ____
ROOT
ATOM      1  C   UNL A   1     -28.016  -0.814  28.878  0.00  0.00    -0.000 A 
ATOM      2  C   UNL A   1     -27.064  -0.119  28.608  0.00  0.00    -0.000 A 
ATOM      3  C   UNL A   1     -25.765  -0.390  29.036  0.00  0.00    -0.004 A 
ATOM      4  C   UNL A   1     -24.552   0.406  28.765  0.00  0.00    -0.015 A 
ATOM      5  C   UNL A   1     -23.230   0.118  29.258  0.00  0.00    -0.004 A 
ATOM      6  C   UNL A   1     -23.094  -1.131  29.873  0.00  0.00    -0.000 A 
ATOM      7  C   UNL A   1     -27.798  -1.934  29.856  0.00  0.00    -0.000 A 
ATOM      8  C   UNL A   1     -26.542  -2.327  30.258  0.00  0.00    -0.000 A 
ATOM      9  C   UNL A   1     -25.451  -1.552  29.908  0.00  0.00    -0.000 A 
ATOM     10  C   UNL A   1     -24.156  -1.910  30.281  0.00  0.00    -0.000 A 
ENDROOT
BRANCH   4  11
ATOM     11  C   UNL A   1     -24.645   1.658  27.946  0.00  0.00    +0.087 C 
ATOM     12  C   UNL A   1     -25.076   1.579  26.699  0.00  0.00    +0.013 C 
BRANCH  11  13
ATOM     13  C   UNL A   1     -24.331   2.903  28.616  0.00  0.00    +0.211 C 
ATOM     14  O   UNL A   1     -24.135   2.979  29.775  0.00  0.00    -0.288 OA
ENDBRANCH  11  13
ENDBRANCH   4  11
TORSDOF 2
