MODEL 4486
MODEL 1
REMARK VINA RESULT:    -4.967      0.000      0.000
REMARK INTER + INTRA:          -5.287
REMARK INTER:                  -5.257
REMARK INTRA:                  -0.030
REMARK UNBOUND:                -0.030
REMARK  Name = No_4486-gen_results/8p0m/2024-11-27-11-27-31/
REMARK  1 active torsions:
REMARK  status: ('A' for Active; 'I' for Inactive)
REMARK    1  A    between atoms: C_4  and  C_7
REMARK                            x       y       z     vdW  Elec       q    Type
REMARK                         _______ _______ _______ _____ _____    ______ ____
ROOT
ATOM      1  C   UNL A   1     -28.839 -11.656  30.326  0.00  0.00    +0.000 A 
ATOM      2  C   UNL A   1     -29.508 -10.843  30.357  0.00  0.00    +0.000 A 
ATOM      3  C   UNL A   1     -27.874 -12.094  31.351  0.00  0.00    +0.007 A 
ATOM      4  C   UNL A   1     -28.016 -11.331  32.621  0.00  0.00    +0.080 A 
ATOM      5  C   UNL A   1     -29.001 -10.329  32.712  0.00  0.00    +0.007 A 
ATOM      6  C   UNL A   1     -29.779 -10.070  31.622  0.00  0.00    +0.000 A 
ENDROOT
BRANCH   4   7
ATOM      7  C   UNL A   1     -27.153 -11.647  33.735  0.00  0.00    +0.388 C 
ATOM      8  O   UNL A   1     -26.795 -12.756  33.812  0.00  0.00    -0.241 OA
ATOM      9  O   UNL A   1     -27.114 -10.854  34.769  0.00  0.00    -0.241 OA
ENDBRANCH   4   7
TORSDOF 1
ENDMDL
ENDMDL
