REMARK  Name = outputs/IAG933/test6/raw/output_4486_IAG933_linker_design_.xyz
REMARK  13 active torsions:
REMARK  status: ('A' for Active; 'I' for Inactive)
REMARK    1  A    between atoms: C_1  and  C_2
REMARK    2  A    between atoms: C_1  and  C_8
REMARK    3  A    between atoms: C_1  and  S_44
REMARK    4  A    between atoms: C_13  and  C_30
REMARK    5  A    between atoms: C_14  and  C_15
REMARK    6  A    between atoms: C_21  and  O_22
REMARK    7  A    between atoms: O_22  and  C_23
REMARK    8  A    between atoms: C_23  and  C_24
REMARK    9  A    between atoms: C_30  and  N_31
REMARK   10  A    between atoms: C_30  and  S_44
REMARK   11  A    between atoms: N_31  and  C_43
REMARK   12  A    between atoms: C_34  and  C_37
REMARK   13  A    between atoms: N_38  and  S_44
REMARK                            x       y       z     vdW  Elec       q    Type
REMARK                         _______ _______ _______ _____ _____    ______ ____
ROOT
ATOM      1  O   UNL A   1     -27.133  -0.439  28.669  0.00  0.00    -0.151 OA
ATOM      2  S   UNL A   1     -25.745   0.105  29.066  0.00  0.00    +0.028 S 
ENDROOT
BRANCH   2   4
ATOM      3  C   UNL A   1     -27.281   2.459  30.127  0.00  0.00    +0.254 C 
ATOM      4  N   UNL A   1     -26.249   1.595  29.790  0.00  0.00    -0.138 NA
ATOM      5  O   UNL A   1     -26.861   3.453  30.684  0.00  0.00    -0.272 OA
BRANCH   3  10
ATOM      6  C   UNL A   1     -31.540   3.098  30.759  0.00  0.00    +0.142 C 
ATOM      7  C   UNL A   1     -30.820   3.845  29.696  0.00  0.00    +0.033 C 
ATOM      8  O   UNL A   1     -30.824   2.125  31.643  0.00  0.00    -0.353 OA
ATOM      9  C   UNL A   1     -29.835   2.468  29.105  0.00  0.00    +0.014 C 
ATOM     10  C   UNL A   1     -28.800   2.234  30.233  0.00  0.00    +0.109 C 
ATOM     11  C   UNL A   1     -29.384   2.296  31.559  0.00  0.00    +0.151 C 
ENDBRANCH   3  10
ENDBRANCH   2   4
BRANCH   2  12
ATOM     12  C   UNL A   1     -24.855  -1.012  30.143  0.00  0.00    +0.114 C 
BRANCH  12  13
ATOM     13  C   UNL A   1     -24.973  -2.505  29.788  0.00  0.00    -0.009 C 
ATOM     14  C   UNL A   1     -23.906  -3.173  29.146  0.00  0.00    -0.003 C 
ATOM     15  C   UNL A   1     -23.989  -4.549  28.853  0.00  0.00    -0.000 C 
ATOM     16  C   UNL A   1     -25.137  -5.280  29.205  0.00  0.00    -0.000 C 
ATOM     17  C   UNL A   1     -26.232  -4.611  29.784  0.00  0.00    -0.000 C 
ATOM     18  C   UNL A   1     -26.155  -3.232  30.065  0.00  0.00    -0.003 C 
ENDBRANCH  12  13
BRANCH  12  19
ATOM     19  C   UNL A   1     -25.387  -0.679  31.571  0.00  0.00    +0.089 C 
ATOM     20  C   UNL A   1     -25.189   0.773  32.028  0.00  0.00    +0.020 C 
ATOM     21  C   UNL A   1     -25.336   0.684  33.544  0.00  0.00    +0.020 C 
ATOM     22  C   UNL A   1     -24.829  -0.715  33.905  0.00  0.00    +0.089 C 
ATOM     23  N   UNL A   1     -24.758  -1.481  32.646  0.00  0.00    -0.218 NA
ENDBRANCH  12  19
ENDBRANCH   2  12
BRANCH   2  24
ATOM     24  C   UNL A   1     -24.985   0.936  27.646  0.00  0.00    +0.141 C 
BRANCH  24  25
ATOM     25  C   UNL A   1     -25.688   1.614  26.461  0.00  0.00    +0.097 C 
ATOM     26  C   UNL A   1     -26.250   2.920  26.395  0.00  0.00    +0.057 C 
ATOM     27  C   UNL A   1     -27.438   3.091  25.645  0.00  0.00    +0.102 C 
ATOM     28  N   UNL A   1     -28.075   2.089  25.003  0.00  0.00    -0.212 NA
ATOM     29  C   UNL A   1     -27.543   0.849  25.079  0.00  0.00    +0.234 C 
ATOM     30  C   UNL A   1     -26.354   0.576  25.777  0.00  0.00    +0.242 C 
ATOM     31  F   UNL A   1     -25.860  -0.681  25.795  0.00  0.00    -0.227 F 
BRANCH  26  32
ATOM     32  C   UNL A   1     -25.642   4.093  27.123  0.00  0.00    +0.263 C 
ATOM     33  N   UNL A   1     -25.614   5.252  26.449  0.00  0.00    -0.200 NA
ATOM     34  C   UNL A   1     -25.026   6.479  26.963  0.00  0.00    +0.139 C 
ATOM     35  O   UNL A   1     -25.143   3.966  28.243  0.00  0.00    -0.269 OA
ENDBRANCH  26  32
BRANCH  29  36
ATOM     36  O   UNL A   1     -28.193  -0.208  24.477  0.00  0.00    -0.459 OA
BRANCH  36  37
ATOM     37  C   UNL A   1     -29.460   0.005  23.866  0.00  0.00    +0.242 C 
BRANCH  37  38
ATOM     38  C   UNL A   1     -30.065  -1.377  23.573  0.00  0.00    +0.229 C 
ATOM     39  O   UNL A   1     -30.729  -1.878  24.721  0.00  0.00    -0.216 OA
ENDBRANCH  37  38
ENDBRANCH  36  37
ENDBRANCH  29  36
ENDBRANCH  24  25
BRANCH  24  40
ATOM     40  N   UNL A   1     -23.554   0.897  27.724  0.00  0.00    -0.263 NA
ATOM     41  C   UNL A   1     -22.833   0.580  28.996  0.00  0.00    +0.090 C 
BRANCH  40  44
ATOM     42  C   UNL A   1     -21.291   1.730  27.302  0.00  0.00    +0.017 C 
ATOM     43  C   UNL A   1     -22.972   1.652  25.369  0.00  0.00    +0.017 C 
ATOM     44  C   UNL A   1     -22.732   1.750  26.868  0.00  0.00    +0.058 C 
ENDBRANCH  40  44
ENDBRANCH  24  40
ENDBRANCH   2  24
TORSDOF 13
