MODEL 4487
MODEL 1
REMARK VINA RESULT:    -4.565      0.000      0.000
REMARK INTER + INTRA:          -5.779
REMARK INTER:                  -5.633
REMARK INTRA:                  -0.146
REMARK UNBOUND:                -0.146
REMARK  Name = No_4487-gen_results/8p0m/2024-11-27-11-27-31/
REMARK  4 active torsions:
REMARK  status: ('A' for Active; 'I' for Inactive)
REMARK    1  A    between atoms: C_1  and  C_2
REMARK    2  A    between atoms: C_1  and  O_4
REMARK    3  A    between atoms: O_4  and  C_8
REMARK    4  A    between atoms: C_8  and  C_9
REMARK                            x       y       z     vdW  Elec       q    Type
REMARK                         _______ _______ _______ _____ _____    ______ ____
ROOT
ATOM      1  C   UNL A   1     -13.598 -19.524  18.704  0.00  0.00    +0.375 C 
ATOM      2  F   UNL A   1     -14.470 -18.779  19.030  0.00  0.00    -0.194 F 
ENDROOT
BRANCH   1   3
ATOM      3  C   UNL A   1     -13.052 -19.684  17.637  0.00  0.00    +0.456 C 
ATOM      4  F   UNL A   1     -13.144 -18.705  16.889  0.00  0.00    -0.165 F 
ATOM      5  F   UNL A   1     -11.631 -19.946  17.705  0.00  0.00    -0.165 F 
ATOM      6  F   UNL A   1     -13.472 -20.801  16.924  0.00  0.00    -0.165 F 
ENDBRANCH   1   3
BRANCH   1   7
ATOM      7  O   UNL A   1     -12.985 -20.078  19.785  0.00  0.00    -0.308 OA
BRANCH   7   8
ATOM      8  C   UNL A   1     -13.554 -21.172  20.583  0.00  0.00    +0.259 C 
BRANCH   8   9
ATOM      9  C   UNL A   1     -12.870 -21.332  21.896  0.00  0.00    +0.395 C 
ATOM     10  O   UNL A   1     -11.913 -20.479  22.039  0.00  0.00    -0.243 OA
ATOM     11  O   UNL A   1     -13.581 -21.728  22.954  0.00  0.00    -0.243 OA
ENDBRANCH   8   9
ENDBRANCH   7   8
ENDBRANCH   1   7
TORSDOF 4
ENDMDL
ENDMDL
