MODEL 4488
MODEL 1
REMARK VINA RESULT:    -8.604      0.000      0.000
REMARK INTER + INTRA:         -13.474
REMARK INTER:                 -11.622
REMARK INTRA:                  -1.852
REMARK UNBOUND:                -1.852
REMARK  Name = No_4488-gen_results/8p0m/2024-11-27-11-27-31/
REMARK  6 active torsions:
REMARK  status: ('A' for Active; 'I' for Inactive)
REMARK    1  A    between atoms: C_2  and  C_11
REMARK    2  A    between atoms: C_3  and  C_7
REMARK    3  A    between atoms: C_6  and  C_14
REMARK    4  A    between atoms: C_19  and  C_20
REMARK    5  A    between atoms: C_25  and  C_26
REMARK    6  A    between atoms: C_31  and  C_32
REMARK                            x       y       z     vdW  Elec       q    Type
REMARK                         _______ _______ _______ _____ _____    ______ ____
ROOT
ATOM      1  C   UNL A   1     -30.952  -2.971   9.036  0.00  0.00    -0.000 A 
ATOM      2  C   UNL A   1     -30.334  -3.668   8.407  0.00  0.00    -0.000 A 
ATOM      3  C   UNL A   1     -30.232  -5.111   8.540  0.00  0.00    -0.000 A 
ATOM      4  C   UNL A   1     -31.733  -3.523  10.164  0.00  0.00    -0.000 A 
ATOM      5  C   UNL A   1     -31.748  -4.878  10.412  0.00  0.00    -0.000 A 
ATOM      6  C   UNL A   1     -30.952  -5.718   9.592  0.00  0.00    +0.000 A 
ENDROOT
BRANCH   1  12
ATOM      7  C   UNL A   1     -30.896   1.286   8.676  0.00  0.00    +0.010 A 
ATOM      8  C   UNL A   1     -30.038   0.675   8.697  0.00  0.00    +0.080 A 
ATOM      9  C   UNL A   1     -32.149   0.537   8.772  0.00  0.00    +0.072 A 
ATOM     10  C   UNL A   1     -32.175  -0.830   8.897  0.00  0.00    +0.004 A 
ATOM     11  C   UNL A   1     -29.767  -0.757   8.822  0.00  0.00    +0.007 A 
ATOM     12  C   UNL A   1     -30.974  -1.491   8.916  0.00  0.00    +0.000 A 
BRANCH   9  13
ATOM     13  C   UNL A   1     -33.472   1.234   8.809  0.00  0.00    +0.419 C 
ATOM     14  F   UNL A   1     -34.076   1.109   7.886  0.00  0.00    -0.166 F 
ATOM     15  F   UNL A   1     -33.304   2.616   8.987  0.00  0.00    -0.166 F 
ATOM     16  F   UNL A   1     -34.164   0.860   9.962  0.00  0.00    -0.166 F 
ENDBRANCH   9  13
BRANCH   8  17
ATOM     17  C   UNL A   1     -28.579   1.423   8.696  0.00  0.00    +0.388 C 
ATOM     18  O   UNL A   1     -27.593   0.755   9.134  0.00  0.00    -0.241 OA
ATOM     19  O   UNL A   1     -28.505   2.604   8.498  0.00  0.00    -0.241 OA
ENDBRANCH   8  17
ENDBRANCH   1  12
BRANCH   6  20
ATOM     20  C   UNL A   1     -30.884  -7.172   9.806  0.00  0.00    +0.000 A 
ATOM     21  C   UNL A   1     -31.862  -7.777  10.537  0.00  0.00    +0.000 A 
ATOM     22  C   UNL A   1     -31.692  -8.983  10.791  0.00  0.00    -0.000 A 
ATOM     23  C   UNL A   1     -29.810  -7.927   9.405  0.00  0.00    +0.000 A 
ATOM     24  C   UNL A   1     -29.597  -9.206   9.659  0.00  0.00    -0.000 A 
ATOM     25  C   UNL A   1     -30.614  -9.858  10.380  0.00  0.00    -0.000 A 
BRANCH  25  26
ATOM     26  C   UNL A   1     -30.486 -11.292  10.660  0.00  0.00    -0.000 A 
ATOM     27  C   UNL A   1     -30.210 -12.069   9.665  0.00  0.00    -0.000 A 
ATOM     28  C   UNL A   1     -30.686 -11.707  12.005  0.00  0.00    -0.000 A 
ATOM     29  C   UNL A   1     -30.042 -13.391   9.865  0.00  0.00    +0.004 A 
ATOM     30  C   UNL A   1     -30.513 -13.114  12.221  0.00  0.00    +0.004 A 
ATOM     31  C   UNL A   1     -30.203 -13.948  11.147  0.00  0.00    +0.071 A 
BRANCH  31  32
ATOM     32  C   UNL A   1     -30.048 -15.392  11.411  0.00  0.00    +0.419 C 
ATOM     33  F   UNL A   1     -29.137 -15.911  10.872  0.00  0.00    -0.166 F 
ATOM     34  F   UNL A   1     -29.879 -15.538  12.744  0.00  0.00    -0.166 F 
ATOM     35  F   UNL A   1     -31.262 -15.921  11.086  0.00  0.00    -0.166 F 
ENDBRANCH  31  32
ENDBRANCH  25  26
ENDBRANCH   6  20
TORSDOF 6
ENDMDL
ENDMDL
