REMARK  Name = outputs/IAG933/test6/raw/output_4489_IAG933_linker_design_.xyz
REMARK  12 active torsions:
REMARK  status: ('A' for Active; 'I' for Inactive)
REMARK    1  A    between atoms: C_1  and  C_2
REMARK    2  A    between atoms: C_1  and  C_8
REMARK    3  A    between atoms: C_1  and  N_41
REMARK    4  A    between atoms: C_13  and  N_35
REMARK    5  A    between atoms: C_14  and  C_15
REMARK    6  A    between atoms: C_21  and  O_22
REMARK    7  A    between atoms: O_22  and  C_23
REMARK    8  A    between atoms: C_23  and  C_24
REMARK    9  A    between atoms: C_28  and  N_29
REMARK   10  A    between atoms: N_29  and  C_36
REMARK   11  A    between atoms: C_32  and  C_36
REMARK   12  A    between atoms: C_37  and  N_41
REMARK                            x       y       z     vdW  Elec       q    Type
REMARK                         _______ _______ _______ _____ _____    ______ ____
ROOT
ATOM      1  C   UNL A   1     -23.288   1.756  29.301  0.00  0.00    +0.103 C 
ATOM      2  C   UNL A   1     -23.498   1.495  26.861  0.00  0.00    +0.071 C 
ATOM      3  C   UNL A   1     -22.782   2.117  25.624  0.00  0.00    +0.183 C 
ATOM      4  C   UNL A   1     -22.736   1.238  28.140  0.00  0.00    +0.093 C 
ATOM      5  N   UNL A   1     -24.754   1.337  27.160  0.00  0.00    -0.249 NA
ATOM      6  C   UNL A   1     -23.377   0.179  28.993  0.00  0.00    +0.098 C 
ATOM      7  C   UNL A   1     -21.400   1.673  27.563  0.00  0.00    +0.151 C 
ATOM      8  O   UNL A   1     -21.442   2.061  26.165  0.00  0.00    -0.347 OA
ENDROOT
BRANCH   5   9
ATOM      9  C   UNL A   1     -25.688   1.614  26.461  0.00  0.00    +0.119 C 
ATOM     10  C   UNL A   1     -26.250   2.920  26.395  0.00  0.00    +0.094 C 
ATOM     11  C   UNL A   1     -27.438   3.091  25.645  0.00  0.00    +0.108 C 
ATOM     12  N   UNL A   1     -28.075   2.089  25.003  0.00  0.00    -0.208 NA
ATOM     13  C   UNL A   1     -27.543   0.849  25.079  0.00  0.00    +0.255 C 
ATOM     14  C   UNL A   1     -26.354   0.576  25.777  0.00  0.00    +0.210 C 
ATOM     15  F   UNL A   1     -25.860  -0.681  25.795  0.00  0.00    -0.198 F 
BRANCH  10  16
ATOM     16  C   UNL A   1     -25.642   4.093  27.123  0.00  0.00    +0.268 C 
ATOM     17  N   UNL A   1     -25.614   5.252  26.449  0.00  0.00    -0.200 NA
ATOM     18  C   UNL A   1     -25.026   6.479  26.963  0.00  0.00    +0.139 C 
ATOM     19  O   UNL A   1     -25.143   3.966  28.243  0.00  0.00    -0.268 OA
ENDBRANCH  10  16
BRANCH  13  20
ATOM     20  O   UNL A   1     -28.193  -0.208  24.477  0.00  0.00    -0.456 OA
BRANCH  20  21
ATOM     21  C   UNL A   1     -29.460   0.005  23.866  0.00  0.00    +0.243 C 
BRANCH  21  22
ATOM     22  C   UNL A   1     -30.065  -1.377  23.573  0.00  0.00    +0.229 C 
ATOM     23  O   UNL A   1     -30.729  -1.878  24.721  0.00  0.00    -0.216 OA
ENDBRANCH  21  22
ENDBRANCH  20  21
ENDBRANCH  13  20
ENDBRANCH   5   9
BRANCH   1  24
ATOM     24  N   UNL A   1     -23.191   2.565  30.581  0.00  0.00    -0.164 NA
BRANCH  24  26
ATOM     25  O   UNL A   1     -25.147   4.199  30.705  0.00  0.00    -0.171 OA
ATOM     26  C   UNL A   1     -24.158   4.002  31.318  0.00  0.00    +0.319 C 
ATOM     27  F   UNL A   1     -24.226   3.358  32.515  0.00  0.00    -0.188 F 
BRANCH  26  28
ATOM     28  C   UNL A   1     -23.058   5.014  31.248  0.00  0.00    +0.083 C 
ATOM     29  C   UNL A   1     -23.496   5.920  32.506  0.00  0.00    +0.007 C 
ENDBRANCH  26  28
ENDBRANCH  24  26
ENDBRANCH   1  24
BRANCH   6  30
ATOM     30  N   UNL A   1     -23.512  -0.553  29.976  0.00  0.00    -0.213 NA
BRANCH  30  31
ATOM     31  C   UNL A   1     -24.855  -1.012  30.143  0.00  0.00    +0.111 C 
BRANCH  31  32
ATOM     32  C   UNL A   1     -24.973  -2.505  29.788  0.00  0.00    -0.005 C 
ATOM     33  C   UNL A   1     -23.906  -3.173  29.146  0.00  0.00    -0.003 C 
ATOM     34  C   UNL A   1     -23.989  -4.549  28.853  0.00  0.00    -0.000 C 
ATOM     35  C   UNL A   1     -25.137  -5.280  29.205  0.00  0.00    -0.000 C 
ATOM     36  C   UNL A   1     -26.232  -4.611  29.784  0.00  0.00    -0.000 C 
ATOM     37  C   UNL A   1     -26.155  -3.232  30.065  0.00  0.00    -0.003 C 
ENDBRANCH  31  32
BRANCH  31  38
ATOM     38  C   UNL A   1     -25.387  -0.679  31.571  0.00  0.00    +0.093 C 
ATOM     39  C   UNL A   1     -25.189   0.773  32.028  0.00  0.00    +0.021 C 
ATOM     40  C   UNL A   1     -25.336   0.684  33.544  0.00  0.00    +0.020 C 
ATOM     41  C   UNL A   1     -24.829  -0.715  33.905  0.00  0.00    +0.089 C 
ATOM     42  N   UNL A   1     -24.758  -1.481  32.646  0.00  0.00    -0.218 NA
ENDBRANCH  31  38
ENDBRANCH  30  31
ENDBRANCH   6  30
TORSDOF 12
