MODEL 4489
MODEL 1
REMARK VINA RESULT:    -4.325      0.000      0.000
REMARK INTER + INTRA:          -4.325
REMARK INTER:                  -4.325
REMARK INTRA:                   0.000
REMARK UNBOUND:                 0.000
REMARK  Name = No_4489-gen_results/8p0m/2024-11-27-11-27-31/
REMARK  0 active torsions:
REMARK  status: ('A' for Active; 'I' for Inactive)
REMARK                            x       y       z     vdW  Elec       q    Type
REMARK                         _______ _______ _______ _____ _____    ______ ____
ROOT
ATOM      1  C   UNL A   1     -24.963  -5.368  29.090  0.00  0.00    +0.000 A 
ATOM      2  C   UNL A   1     -24.172  -4.852  28.624  0.00  0.00    +0.000 A 
ATOM      3  C   UNL A   1     -26.134  -4.774  29.585  0.00  0.00    +0.000 A 
ATOM      4  C   UNL A   1     -26.137  -3.398  29.809  0.00  0.00    +0.000 A 
ATOM      5  C   UNL A   1     -23.990  -3.364  28.712  0.00  0.00    +0.000 A 
ATOM      6  C   UNL A   1     -25.057  -2.726  29.268  0.00  0.00    +0.000 A 
ENDROOT
TORSDOF 0
ENDMDL
ENDMDL
