MODEL 448
MODEL 1
REMARK VINA RESULT:    -3.730      0.000      0.000
REMARK INTER + INTRA:          -4.262
REMARK INTER:                  -4.166
REMARK INTRA:                  -0.096
REMARK UNBOUND:                -0.096
REMARK  Name = No_448-gen_results/8p0m/2024-11-27-11-27-31/
REMARK  2 active torsions:
REMARK  status: ('A' for Active; 'I' for Inactive)
REMARK    1  A    between atoms: C_2  and  C_3
REMARK    2  A    between atoms: C_3  and  C_4
REMARK                            x       y       z     vdW  Elec       q    Type
REMARK                         _______ _______ _______ _____ _____    ______ ____
ROOT
ATOM      1  C   UNL A   1     -24.311  -2.838  28.932  0.00  0.00    +0.103 C 
ENDROOT
BRANCH   1   2
ATOM      2  C   UNL A   1     -24.032  -4.188  28.617  0.00  0.00    -0.017 C 
ATOM      3  C   UNL A   1     -24.901  -5.225  29.020  0.00  0.00    -0.029 C 
ATOM      4  C   UNL A   1     -25.804  -5.031  29.517  0.00  0.00    +0.030 C 
ENDBRANCH   1   2
BRANCH   1   6
ATOM      5  C   UNL A   1     -23.314  -0.712  28.697  0.00  0.00    -0.014 C 
ATOM      6  C   UNL A   1     -23.379  -1.819  29.180  0.00  0.00    -0.073 C 
ENDBRANCH   1   6
TORSDOF 2
ENDMDL
ENDMDL
