REMARK  Name = No_449-gen_results/8p0m/2024-11-27-11-27-31/
REMARK  0 active torsions:
REMARK  status: ('A' for Active; 'I' for Inactive)
REMARK                            x       y       z     vdW  Elec       q    Type
REMARK                         _______ _______ _______ _____ _____    ______ ____
ROOT
ATOM      1  C   UNL A   1     -28.016  -0.814  28.878  0.00  0.00    +0.004 A 
ATOM      2  C   UNL A   1     -28.469  -0.785  29.829  0.00  0.00    +0.050 A 
ATOM      3  C   UNL A   1     -26.504  -0.778  28.877  0.00  0.00    +0.000 A 
ATOM      4  C   UNL A   1     -25.810  -0.853  30.103  0.00  0.00    -0.000 A 
ATOM      5  C   UNL A   1     -27.991  -0.892  31.226  0.00  0.00    -0.016 A 
ATOM      6  C   UNL A   1     -26.604  -0.868  31.265  0.00  0.00    -0.004 A 
ATOM      7  C   UNL A   1     -30.074  -0.836  29.861  0.00  0.00    +0.249 C 
ATOM      8  O   UNL A   1     -30.561  -0.442  28.942  0.00  0.00    -0.270 OA
ATOM      9  N   UNL A   1     -30.749  -1.403  30.947  0.00  0.00    -0.277 N 
ATOM     10  C   UNL A   1     -32.175  -1.468  30.889  0.00  0.00    +0.094 C 
ATOM     11  C   UNL A   1     -32.681  -2.308  31.613  0.00  0.00    +0.022 C 
ATOM     12  C   UNL A   1     -31.959  -3.028  32.694  0.00  0.00    +0.004 C 
ATOM     13  C   UNL A   1     -30.552  -2.932  32.682  0.00  0.00    +0.020 C 
ATOM     14  C   UNL A   1     -29.942  -2.235  31.781  0.00  0.00    +0.080 C 
ATOM     15  C   UNL A   1     -28.727  -2.473  31.551  0.00  0.00    +0.046 C 
ENDROOT
TORSDOF 0
