MODEL 4491
MODEL 1
REMARK VINA RESULT:    -7.167      0.000      0.000
REMARK INTER + INTRA:         -12.108
REMARK INTER:                 -10.100
REMARK INTRA:                  -2.008
REMARK UNBOUND:                -2.008
REMARK  Name = No_4491-gen_results/8p0m/2024-11-27-11-27-31/
REMARK  7 active torsions:
REMARK  status: ('A' for Active; 'I' for Inactive)
REMARK    1  A    between atoms: C_3  and  C_8
REMARK    2  A    between atoms: C_5  and  C_6
REMARK    3  A    between atoms: C_8  and  N_9
REMARK    4  A    between atoms: N_9  and  C_10
REMARK    5  A    between atoms: C_14  and  C_16
REMARK    6  A    between atoms: C_16  and  C_18
REMARK    7  A    between atoms: C_19  and  C_20
REMARK                            x       y       z     vdW  Elec       q    Type
REMARK                         _______ _______ _______ _____ _____    ______ ____
ROOT
ATOM      1  C   UNL A   1     -16.495   2.174  41.243  0.00  0.00    +0.048 A 
ATOM      2  C   UNL A   1     -17.447   1.040  41.427  0.00  0.00    +0.015 A 
ATOM      3  C   UNL A   1     -17.282   0.115  42.433  0.00  0.00    +0.001 A 
ATOM      4  C   UNL A   1     -15.982  -0.250  42.882  0.00  0.00    -0.004 A 
ATOM      5  C   UNL A   1     -14.913   0.569  42.420  0.00  0.00    -0.017 A 
ATOM      6  C   UNL A   1     -15.056   1.323  41.234  0.00  0.00    +0.011 A 
ENDROOT
BRANCH   1   7
ATOM      7  N   UNL A   1     -16.517   2.769  40.020  0.00  0.00    -0.302 N 
ATOM      8  C   UNL A   1     -17.878   3.419  39.790  0.00  0.00    +0.113 C 
BRANCH   7   9
ATOM      9  C   UNL A   1     -15.515   3.687  39.750  0.00  0.00    +0.118 C 
BRANCH   9  12
ATOM     10  C   UNL A   1     -13.531   2.890  38.540  0.00  0.00    -0.003 A 
ATOM     11  C   UNL A   1     -13.069   2.566  37.650  0.00  0.00    +0.004 A 
ATOM     12  C   UNL A   1     -14.884   3.423  38.336  0.00  0.00    -0.002 A 
ATOM     13  C   UNL A   1     -15.392   3.642  37.123  0.00  0.00    -0.003 A 
ATOM     14  C   UNL A   1     -13.403   2.712  36.254  0.00  0.00    +0.055 A 
ATOM     15  C   UNL A   1     -14.648   3.238  36.101  0.00  0.00    +0.004 A 
BRANCH  14  16
ATOM     16  C   UNL A   1     -12.606   2.298  35.148  0.00  0.00    +0.265 C 
ATOM     17  N   UNL A   1     -11.584   1.769  35.212  0.00  0.00    -0.200 NA
ATOM     18  C   UNL A   1     -10.835   1.349  34.178  0.00  0.00    +0.139 C 
ATOM     19  O   UNL A   1     -13.168   2.498  33.956  0.00  0.00    -0.268 OA
ENDBRANCH  14  16
ENDBRANCH   9  12
ENDBRANCH   7   9
ENDBRANCH   1   7
BRANCH   5  20
ATOM     20  C   UNL A   1     -13.562   0.092  42.744  0.00  0.00    +0.052 C 
BRANCH  20  21
ATOM     21  C   UNL A   1     -12.584  -0.201  41.769  0.00  0.00    -0.021 C 
ATOM     22  C   UNL A   1     -12.702  -1.269  40.984  0.00  0.00    -0.004 C 
BRANCH  22  23
ATOM     23  C   UNL A   1     -11.940  -1.475  39.808  0.00  0.00    -0.000 A 
ATOM     24  C   UNL A   1     -11.302  -0.346  39.306  0.00  0.00    -0.000 A 
ATOM     25  C   UNL A   1     -10.654  -0.515  38.057  0.00  0.00    -0.000 A 
ATOM     26  C   UNL A   1     -10.855  -1.629  37.235  0.00  0.00    -0.000 A 
ATOM     27  C   UNL A   1     -11.667  -2.727  37.775  0.00  0.00    -0.000 A 
ATOM     28  C   UNL A   1     -12.263  -2.655  38.993  0.00  0.00    -0.000 A 
ENDBRANCH  22  23
ENDBRANCH  20  21
ENDBRANCH   5  20
TORSDOF 7
ENDMDL
ENDMDL
