REMARK  Name = No_4491-gen_results/8p0m/2024-11-27-11-27-31/
REMARK  7 active torsions:
REMARK  status: ('A' for Active; 'I' for Inactive)
REMARK    1  A    between atoms: C_3  and  C_8
REMARK    2  A    between atoms: C_5  and  C_6
REMARK    3  A    between atoms: C_8  and  N_9
REMARK    4  A    between atoms: N_9  and  C_10
REMARK    5  A    between atoms: C_14  and  C_16
REMARK    6  A    between atoms: C_16  and  C_18
REMARK    7  A    between atoms: C_19  and  C_20
REMARK                            x       y       z     vdW  Elec       q    Type
REMARK                         _______ _______ _______ _____ _____    ______ ____
ROOT
ATOM      1  C   UNL A   1     -25.163   1.202  26.507  0.00  0.00    +0.048 A 
ATOM      2  C   UNL A   1     -24.297   2.417  26.512  0.00  0.00    +0.015 A 
ATOM      3  C   UNL A   1     -22.942   2.337  26.743  0.00  0.00    +0.001 A 
ATOM      4  C   UNL A   1     -22.408   1.343  27.610  0.00  0.00    -0.004 A 
ATOM      5  C   UNL A   1     -23.308   0.311  28.001  0.00  0.00    -0.017 A 
ATOM      6  C   UNL A   1     -24.703   0.534  27.969  0.00  0.00    +0.011 A 
ENDROOT
BRANCH   1   7
ATOM      7  N   UNL A   1     -26.494   1.427  26.669  0.00  0.00    -0.302 N 
ATOM      8  C   UNL A   1     -27.012   2.289  25.522  0.00  0.00    +0.113 C 
BRANCH   7   9
ATOM      9  C   UNL A   1     -27.307   0.314  26.814  0.00  0.00    +0.118 C 
BRANCH   9  12
ATOM     10  C   UNL A   1     -28.016  -0.814  28.878  0.00  0.00    -0.003 A 
ATOM     11  C   UNL A   1     -28.469  -0.785  29.829  0.00  0.00    +0.004 A 
ATOM     12  C   UNL A   1     -28.182   0.428  28.113  0.00  0.00    -0.002 A 
ATOM     13  C   UNL A   1     -28.984   1.415  28.515  0.00  0.00    -0.003 A 
ATOM     14  C   UNL A   1     -29.380   0.138  30.461  0.00  0.00    +0.055 A 
ATOM     15  C   UNL A   1     -29.537   1.262  29.712  0.00  0.00    +0.004 A 
BRANCH  14  16
ATOM     16  C   UNL A   1     -29.993  -0.023  31.737  0.00  0.00    +0.265 C 
ATOM     17  N   UNL A   1     -30.956  -0.617  31.954  0.00  0.00    -0.200 NA
ATOM     18  C   UNL A   1     -31.529  -0.800  33.156  0.00  0.00    +0.139 C 
ATOM     19  O   UNL A   1     -29.315   0.520  32.748  0.00  0.00    -0.268 OA
ENDBRANCH  14  16
ENDBRANCH   9  12
ENDBRANCH   7   9
ENDBRANCH   1   7
BRANCH   5  20
ATOM     20  C   UNL A   1     -22.807  -0.614  29.026  0.00  0.00    +0.052 C 
BRANCH  20  21
ATOM     21  C   UNL A   1     -23.117  -0.499  30.398  0.00  0.00    -0.021 C 
ATOM     22  C   UNL A   1     -23.673   0.610  30.881  0.00  0.00    -0.004 C 
BRANCH  22  23
ATOM     23  C   UNL A   1     -24.275   0.701  32.160  0.00  0.00    -0.000 A 
ATOM     24  C   UNL A   1     -24.263  -0.471  32.909  0.00  0.00    -0.000 A 
ATOM     25  C   UNL A   1     -24.985  -0.424  34.128  0.00  0.00    -0.000 A 
ATOM     26  C   UNL A   1     -25.878   0.603  34.450  0.00  0.00    -0.000 A 
ATOM     27  C   UNL A   1     -25.947   1.748  33.532  0.00  0.00    -0.000 A 
ATOM     28  C   UNL A   1     -25.233   1.794  32.378  0.00  0.00    -0.000 A 
ENDBRANCH  22  23
ENDBRANCH  20  21
ENDBRANCH   5  20
TORSDOF 7
