MODEL 4492
MODEL 1
REMARK VINA RESULT:    -4.573      0.000      0.000
REMARK INTER + INTRA:          -5.476
REMARK INTER:                  -5.375
REMARK INTRA:                  -0.101
REMARK UNBOUND:                -0.101
REMARK  Name = No_4492-gen_results/8p0m/2024-11-27-11-27-31/
REMARK  3 active torsions:
REMARK  status: ('A' for Active; 'I' for Inactive)
REMARK    1  A    between atoms: C_2  and  C_4
REMARK    2  A    between atoms: C_5  and  C_6
REMARK    3  A    between atoms: C_7  and  C_8
REMARK                            x       y       z     vdW  Elec       q    Type
REMARK                         _______ _______ _______ _____ _____    ______ ____
ROOT
ATOM      1  C   UNL A   1     -23.005   0.979  28.282  0.00  0.00    +0.021 C 
ATOM      2  C   UNL A   1     -22.435   0.057  28.860  0.00  0.00    -0.022 C 
ATOM      3  C   UNL A   1     -21.115  -0.422  28.719  0.00  0.00    +0.031 C 
ENDROOT
BRANCH   1   5
ATOM      4 CL   UNL A   1     -22.784   2.043  26.101  0.00  0.00    -0.072 Cl
ATOM      5  C   UNL A   1     -22.284   1.783  27.341  0.00  0.00    +0.261 C 
ATOM      6  F   UNL A   1     -21.166   2.241  27.688  0.00  0.00    -0.214 F 
ENDBRANCH   1   5
BRANCH   2   7
ATOM      7  C   UNL A   1     -22.959  -0.602  30.066  0.00  0.00    -0.004 C 
ATOM      8  C   UNL A   1     -23.752  -1.826  30.128  0.00  0.00    -0.000 C 
BRANCH   8   9
ATOM      9  C   UNL A   1     -24.020  -2.460  28.897  0.00  0.00    -0.000 C 
ATOM     10  C   UNL A   1     -24.183  -3.817  28.894  0.00  0.00    -0.000 C 
ENDBRANCH   8   9
ENDBRANCH   2   7
TORSDOF 3
ENDMDL
ENDMDL
