REMARK  Name = outputs/IAG933/test6/raw/output_4493_IAG933_linker_design_.xyz
REMARK  10 active torsions:
REMARK  status: ('A' for Active; 'I' for Inactive)
REMARK    1  A    between atoms: C_1  and  C_2
REMARK    2  A    between atoms: C_1  and  C_8
REMARK    3  A    between atoms: C_1  and  C_39
REMARK    4  A    between atoms: C_13  and  C_42
REMARK    5  A    between atoms: C_14  and  C_15
REMARK    6  A    between atoms: C_21  and  O_22
REMARK    7  A    between atoms: O_22  and  C_23
REMARK    8  A    between atoms: C_23  and  C_24
REMARK    9  A    between atoms: C_32  and  C_38
REMARK   10  A    between atoms: C_33  and  N_43
REMARK                            x       y       z     vdW  Elec       q    Type
REMARK                         _______ _______ _______ _____ _____    ______ ____
ROOT
ATOM      1  F   UNL A   1     -21.138   1.053  27.927  0.00  0.00    -0.203 F 
ATOM      2  N   UNL A   1     -22.046  -0.463  29.878  0.00  0.00    -0.129 NA
ATOM      3  C   UNL A   1     -23.340   1.397  27.033  0.00  0.00    +0.122 C 
ATOM      4  C   UNL A   1     -24.337  -0.054  29.159  0.00  0.00    +0.124 C 
ATOM      5  C   UNL A   1     -22.450   0.819  27.987  0.00  0.00    +0.162 C 
ATOM      6  C   UNL A   1     -22.966   0.097  28.996  0.00  0.00    +0.113 C 
ATOM      7  C   UNL A   1     -24.688   1.211  27.269  0.00  0.00    +0.063 C 
ATOM      8  N   UNL A   1     -25.169   0.597  28.378  0.00  0.00    -0.283 N 
ENDROOT
BRANCH   7   9
ATOM      9  C   UNL A   1     -25.688   1.614  26.461  0.00  0.00    +0.052 C 
ATOM     10  C   UNL A   1     -26.250   2.920  26.395  0.00  0.00    +0.078 C 
ATOM     11  C   UNL A   1     -27.438   3.091  25.645  0.00  0.00    +0.107 C 
ATOM     12  N   UNL A   1     -28.075   2.089  25.003  0.00  0.00    -0.208 NA
ATOM     13  C   UNL A   1     -27.543   0.849  25.079  0.00  0.00    +0.253 C 
ATOM     14  C   UNL A   1     -26.354   0.576  25.777  0.00  0.00    +0.194 C 
ATOM     15  F   UNL A   1     -25.860  -0.681  25.795  0.00  0.00    -0.199 F 
BRANCH  10  16
ATOM     16  C   UNL A   1     -25.642   4.093  27.123  0.00  0.00    +0.267 C 
ATOM     17  N   UNL A   1     -25.614   5.252  26.449  0.00  0.00    -0.200 NA
ATOM     18  C   UNL A   1     -25.026   6.479  26.963  0.00  0.00    +0.139 C 
ATOM     19  O   UNL A   1     -25.143   3.966  28.243  0.00  0.00    -0.268 OA
ENDBRANCH  10  16
BRANCH  13  20
ATOM     20  O   UNL A   1     -28.193  -0.208  24.477  0.00  0.00    -0.456 OA
BRANCH  20  21
ATOM     21  C   UNL A   1     -29.460   0.005  23.866  0.00  0.00    +0.243 C 
BRANCH  21  22
ATOM     22  C   UNL A   1     -30.065  -1.377  23.573  0.00  0.00    +0.229 C 
ATOM     23  O   UNL A   1     -30.729  -1.878  24.721  0.00  0.00    -0.216 OA
ENDBRANCH  21  22
ENDBRANCH  20  21
ENDBRANCH  13  20
ENDBRANCH   7   9
BRANCH   8  25
ATOM     24  O   UNL A   1     -28.977   0.015  28.578  0.00  0.00    -0.466 OA
ATOM     25  C   UNL A   1     -26.623   0.678  28.622  0.00  0.00    +0.073 C 
ATOM     26  C   UNL A   1     -27.681  -0.154  28.207  0.00  0.00    +0.247 C 
ATOM     27  C   UNL A   1     -28.183   1.696  30.046  0.00  0.00    +0.041 C 
ATOM     28  C   UNL A   1     -27.039   1.732  29.280  0.00  0.00    +0.017 C 
ATOM     29  C   UNL A   1     -29.221   0.848  29.646  0.00  0.00    +0.173 C 
ENDBRANCH   8  25
BRANCH   3  32
ATOM     30  O   UNL A   1     -21.597   1.860  25.500  0.00  0.00    -0.240 OA
ATOM     31  O   UNL A   1     -23.164   3.219  25.410  0.00  0.00    -0.240 OA
ATOM     32  C   UNL A   1     -22.733   2.159  25.953  0.00  0.00    +0.391 C 
ENDBRANCH   3  32
BRANCH   4  33
ATOM     33  C   UNL A   1     -24.855  -1.012  30.143  0.00  0.00    +0.062 C 
BRANCH  33  34
ATOM     34  C   UNL A   1     -24.973  -2.505  29.788  0.00  0.00    -0.019 C 
ATOM     35  C   UNL A   1     -23.906  -3.173  29.146  0.00  0.00    -0.004 C 
ATOM     36  C   UNL A   1     -23.989  -4.549  28.853  0.00  0.00    -0.000 C 
ATOM     37  C   UNL A   1     -25.137  -5.280  29.205  0.00  0.00    -0.000 C 
ATOM     38  C   UNL A   1     -26.232  -4.611  29.784  0.00  0.00    -0.000 C 
ATOM     39  C   UNL A   1     -26.155  -3.232  30.065  0.00  0.00    -0.004 C 
ENDBRANCH  33  34
BRANCH  33  40
ATOM     40  C   UNL A   1     -25.387  -0.679  31.571  0.00  0.00    +0.079 C 
ATOM     41  C   UNL A   1     -25.189   0.773  32.028  0.00  0.00    +0.019 C 
ATOM     42  C   UNL A   1     -25.336   0.684  33.544  0.00  0.00    +0.020 C 
ATOM     43  C   UNL A   1     -24.829  -0.715  33.905  0.00  0.00    +0.089 C 
ATOM     44  N   UNL A   1     -24.758  -1.481  32.646  0.00  0.00    -0.219 NA
ENDBRANCH  33  40
ENDBRANCH   4  33
TORSDOF 10
