MODEL 4493
MODEL 1
REMARK VINA RESULT:    -6.462      0.000      0.000
REMARK INTER + INTRA:          -7.044
REMARK INTER:                  -6.840
REMARK INTRA:                  -0.204
REMARK UNBOUND:                -0.204
REMARK  Name = No_4493-gen_results/8p0m/2024-11-27-11-27-31/
REMARK  1 active torsions:
REMARK  status: ('A' for Active; 'I' for Inactive)
REMARK    1  A    between atoms: C_9  and  C_11
REMARK                            x       y       z     vdW  Elec       q    Type
REMARK                         _______ _______ _______ _____ _____    ______ ____
ROOT
ATOM      1  C   UNL A   1     -26.491  -3.353  30.023  0.00  0.00    -0.000 A 
ATOM      2  C   UNL A   1     -25.547  -2.600  29.950  0.00  0.00    -0.000 A 
ATOM      3  C   UNL A   1     -24.333  -3.020  29.417  0.00  0.00    -0.000 A 
ATOM      4  C   UNL A   1     -24.148  -4.379  28.977  0.00  0.00    -0.000 A 
ATOM      5  C   UNL A   1     -25.283  -5.188  29.119  0.00  0.00    -0.000 A 
ATOM      6  C   UNL A   1     -26.403  -4.746  29.645  0.00  0.00    -0.000 A 
ATOM      7  C   UNL A   1     -25.550  -1.176  30.380  0.00  0.00    -0.000 A 
ATOM      8  C   UNL A   1     -24.834  -0.269  29.816  0.00  0.00    +0.004 A 
ATOM      9  C   UNL A   1     -23.511  -0.699  29.192  0.00  0.00    +0.071 A 
ATOM     10  C   UNL A   1     -23.342  -2.044  28.889  0.00  0.00    +0.004 A 
ENDROOT
BRANCH   9  11
ATOM     11  C   UNL A   1     -22.508   0.281  28.812  0.00  0.00    +0.419 C 
ATOM     12  F   UNL A   1     -21.377  -0.241  28.721  0.00  0.00    -0.166 F 
ATOM     13  F   UNL A   1     -22.804   0.610  27.467  0.00  0.00    -0.166 F 
ATOM     14  F   UNL A   1     -22.564   1.348  29.564  0.00  0.00    -0.166 F 
ENDBRANCH   9  11
TORSDOF 1
ENDMDL
ENDMDL
