MODEL 4494
MODEL 1
REMARK VINA RESULT:    -5.499      0.000      0.000
REMARK INTER + INTRA:          -6.873
REMARK INTER:                  -6.463
REMARK INTRA:                  -0.410
REMARK UNBOUND:                -0.410
REMARK  Name = No_4494-gen_results/8p0m/2024-11-27-11-27-31/
REMARK  3 active torsions:
REMARK  status: ('A' for Active; 'I' for Inactive)
REMARK    1  A    between atoms: C_5  and  C_9
REMARK    2  A    between atoms: C_9  and  C_10
REMARK    3  A    between atoms: C_10  and  C_11
REMARK                            x       y       z     vdW  Elec       q    Type
REMARK                         _______ _______ _______ _____ _____    ______ ____
ROOT
ATOM      1  O   UNL A   1     -10.389 -20.371  16.195  0.00  0.00    -0.273 OA
ATOM      2  C   UNL A   1     -11.272 -20.274  16.929  0.00  0.00    +0.242 C 
ATOM      3  C   UNL A   1     -11.408 -21.122  18.010  0.00  0.00    +0.090 C 
ATOM      4  N   UNL A   1     -12.409 -19.359  16.717  0.00  0.00    -0.203 NA
ATOM      5  C   UNL A   1     -12.323 -20.805  19.000  0.00  0.00    +0.051 C 
ATOM      6  C   UNL A   1     -13.393 -19.907  18.694  0.00  0.00    +0.183 C 
ATOM      7  C   UNL A   1     -13.346 -19.156  17.586  0.00  0.00    +0.150 C 
ATOM      8  F   UNL A   1     -14.327 -19.766  19.625  0.00  0.00    -0.235 F 
ENDROOT
BRANCH   5   9
ATOM      9  C   UNL A   1     -12.478 -21.647  20.242  0.00  0.00    +0.070 C 
ATOM     10  C   UNL A   1     -13.240 -22.844  20.073  0.00  0.00    +0.008 C 
BRANCH   9  11
ATOM     11  C   UNL A   1     -12.008 -21.239  21.550  0.00  0.00    +0.229 C 
ATOM     12  O   UNL A   1     -12.917 -20.688  22.331  0.00  0.00    -0.286 OA
BRANCH  11  13
ATOM     13  C   UNL A   1     -10.699 -21.403  22.036  0.00  0.00    +0.319 C 
ATOM     14  N   UNL A   1     -10.521 -21.498  23.325  0.00  0.00    -0.081 NA
ATOM     15  O   UNL A   1      -9.663 -21.407  21.332  0.00  0.00    -0.264 OA
ENDBRANCH  11  13
ENDBRANCH   9  11
ENDBRANCH   5   9
TORSDOF 3
ENDMDL
ENDMDL
