MODEL 4495
MODEL 1
REMARK VINA RESULT:    -4.863      0.000      0.000
REMARK INTER + INTRA:          -5.148
REMARK INTER:                  -5.148
REMARK INTRA:                   0.000
REMARK UNBOUND:                 0.000
REMARK  Name = No_4495-gen_results/8p0m/2024-11-27-11-27-31/
REMARK  1 active torsions:
REMARK  status: ('A' for Active; 'I' for Inactive)
REMARK    1  A    between atoms: C_2  and  C_4
REMARK                            x       y       z     vdW  Elec       q    Type
REMARK                         _______ _______ _______ _____ _____    ______ ____
ROOT
ATOM      1  F   UNL A   1     -10.252  -9.898  18.474  0.00  0.00    -0.163 F 
ATOM      2  C   UNL A   1      -9.027  -9.727  18.453  0.00  0.00    +0.488 C 
ATOM      3  F   UNL A   1      -8.488  -9.137  17.717  0.00  0.00    -0.163 F 
ATOM      4  F   UNL A   1      -8.499 -11.007  18.241  0.00  0.00    -0.163 F 
ENDROOT
BRANCH   2   5
ATOM      5  C   UNL A   1      -8.609  -9.330  19.908  0.00  0.00    +0.488 C 
ATOM      6  F   UNL A   1      -9.608  -9.333  20.726  0.00  0.00    -0.163 F 
ATOM      7  F   UNL A   1      -7.787 -10.337  20.355  0.00  0.00    -0.163 F 
ATOM      8  F   UNL A   1      -7.946  -8.200  19.970  0.00  0.00    -0.163 F 
ENDBRANCH   2   5
TORSDOF 1
ENDMDL
ENDMDL
