REMARK  Name = No_4495-gen_results/8p0m/2024-11-27-11-27-31/
REMARK  1 active torsions:
REMARK  status: ('A' for Active; 'I' for Inactive)
REMARK    1  A    between atoms: C_2  and  C_4
REMARK                            x       y       z     vdW  Elec       q    Type
REMARK                         _______ _______ _______ _____ _____    ______ ____
ROOT
ATOM      1  F   UNL A   1     -28.073  -1.254  28.532  0.00  0.00    -0.163 F 
ATOM      2  C   UNL A   1     -27.061  -0.629  28.872  0.00  0.00    +0.488 C 
ATOM      3  F   UNL A   1     -26.127  -1.078  29.200  0.00  0.00    -0.163 F 
ATOM      4  F   UNL A   1     -27.456   0.084  30.011  0.00  0.00    -0.163 F 
ENDROOT
BRANCH   2   5
ATOM      5  C   UNL A   1     -26.809   0.446  27.763  0.00  0.00    +0.488 C 
ATOM      6  F   UNL A   1     -27.193   1.625  28.123  0.00  0.00    -0.163 F 
ATOM      7  F   UNL A   1     -25.444   0.546  27.635  0.00  0.00    -0.163 F 
ATOM      8  F   UNL A   1     -27.308   0.118  26.595  0.00  0.00    -0.163 F 
ENDBRANCH   2   5
TORSDOF 1
