MODEL 4496
MODEL 1
REMARK VINA RESULT:    -7.124      0.000      0.000
REMARK INTER + INTRA:          -9.026
REMARK INTER:                  -8.374
REMARK INTRA:                  -0.652
REMARK UNBOUND:                -0.652
REMARK  Name = No_4496-gen_results/8p0m/2024-11-27-11-27-31/
REMARK  3 active torsions:
REMARK  status: ('A' for Active; 'I' for Inactive)
REMARK    1  A    between atoms: C_1  and  C_2
REMARK    2  A    between atoms: C_1  and  C_3
REMARK    3  A    between atoms: C_2  and  C_5
REMARK                            x       y       z     vdW  Elec       q    Type
REMARK                         _______ _______ _______ _____ _____    ______ ____
ROOT
ATOM      1  C   UNL A   1     -24.021  -0.836  29.192  0.00  0.00    +0.031 C 
ENDROOT
BRANCH   1   2
ATOM      2  C   UNL A   1     -23.492  -0.141  28.019  0.00  0.00    -0.022 A 
ATOM      3  C   UNL A   1     -22.537   0.988  28.095  0.00  0.00    -0.004 A 
ATOM      4  C   UNL A   1     -22.317   1.851  27.036  0.00  0.00    -0.000 A 
ATOM      5  C   UNL A   1     -23.000   2.129  26.354  0.00  0.00    -0.000 A 
ATOM      6  C   UNL A   1     -24.178   1.289  26.042  0.00  0.00    -0.000 A 
ATOM      7  C   UNL A   1     -24.426   0.325  27.023  0.00  0.00    -0.004 A 
ENDBRANCH   1   2
BRANCH   1   8
ATOM      8  C   UNL A   1     -23.629  -1.805  29.320  0.00  0.00    +0.031 C 
BRANCH   8   9
ATOM      9  C   UNL A   1     -24.475  -3.051  28.914  0.00  0.00    -0.022 A 
ATOM     10  C   UNL A   1     -23.983  -3.966  28.572  0.00  0.00    -0.004 A 
ATOM     11  C   UNL A   1     -24.178  -4.981  28.600  0.00  0.00    -0.000 A 
ATOM     12  C   UNL A   1     -25.442  -5.224  29.323  0.00  0.00    -0.000 A 
ATOM     13  C   UNL A   1     -26.277  -4.333  29.707  0.00  0.00    -0.000 A 
ATOM     14  C   UNL A   1     -25.708  -3.073  29.680  0.00  0.00    -0.004 A 
ENDBRANCH   8   9
ENDBRANCH   1   8
TORSDOF 3
ENDMDL
ENDMDL
