MODEL 4497
MODEL 1
REMARK VINA RESULT:    -3.859      0.000      0.000
REMARK INTER + INTRA:          -4.855
REMARK INTER:                  -4.536
REMARK INTRA:                  -0.319
REMARK UNBOUND:                -0.319
REMARK  Name = No_4497-gen_results/8p0m/2024-11-27-11-27-31/
REMARK  3 active torsions:
REMARK  status: ('A' for Active; 'I' for Inactive)
REMARK    1  A    between atoms: C_3  and  C_4
REMARK    2  A    between atoms: C_4  and  C_5
REMARK    3  A    between atoms: C_6  and  C_7
REMARK                            x       y       z     vdW  Elec       q    Type
REMARK                         _______ _______ _______ _____ _____    ______ ____
ROOT
ATOM      1  C   UNL A   1     -22.780   1.472  27.802  0.00  0.00    +0.052 C 
ENDROOT
BRANCH   1   4
ATOM      2 BR   UNL A   1     -23.020  -1.148  29.222  0.00  0.00    -0.049 Br
ATOM      3  C   UNL A   1     -21.630  -0.327  28.861  0.00  0.00    +0.036 C 
ATOM      4  C   UNL A   1     -21.512   0.754  28.179  0.00  0.00    -0.014 C 
ENDBRANCH   1   4
BRANCH   1   5
ATOM      5  C   UNL A   1     -22.844   2.094  26.535  0.00  0.00    -0.026 C 
ATOM      6  C   UNL A   1     -23.788   1.634  25.574  0.00  0.00    -0.030 C 
BRANCH   6   7
ATOM      7  C   UNL A   1     -24.676   0.616  25.836  0.00  0.00    +0.026 C 
ATOM      8  C   UNL A   1     -25.302   0.001  24.764  0.00  0.00    +0.005 C 
ENDBRANCH   6   7
ENDBRANCH   1   5
TORSDOF 3
ENDMDL
ENDMDL
