REMARK  Name = outputs/IAG933/test6/raw/output_4497_IAG933_linker_design_.xyz
REMARK  11 active torsions:
REMARK  status: ('A' for Active; 'I' for Inactive)
REMARK    1  A    between atoms: C_1  and  C_2
REMARK    2  A    between atoms: C_1  and  C_8
REMARK    3  A    between atoms: C_1  and  N_28
REMARK    4  A    between atoms: C_14  and  C_15
REMARK    5  A    between atoms: C_21  and  O_22
REMARK    6  A    between atoms: O_22  and  C_23
REMARK    7  A    between atoms: C_23  and  C_24
REMARK    8  A    between atoms: N_28  and  C_35
REMARK    9  A    between atoms: O_29  and  C_30
REMARK   10  A    between atoms: C_30  and  C_35
REMARK   11  A    between atoms: C_33  and  O_38
REMARK                            x       y       z     vdW  Elec       q    Type
REMARK                         _______ _______ _______ _____ _____    ______ ____
ROOT
ATOM      1  C   UNL A   1     -25.688   1.614  26.461  0.00  0.00    +0.059 C 
ATOM      2  C   UNL A   1     -26.250   2.920  26.395  0.00  0.00    +0.080 C 
ATOM      3  C   UNL A   1     -27.438   3.091  25.645  0.00  0.00    +0.107 C 
ATOM      4  N   UNL A   1     -28.075   2.089  25.003  0.00  0.00    -0.211 NA
ATOM      5  C   UNL A   1     -27.543   0.849  25.079  0.00  0.00    +0.239 C 
ATOM      6  C   UNL A   1     -26.354   0.576  25.777  0.00  0.00    +0.265 C 
ATOM      7  F   UNL A   1     -25.860  -0.681  25.795  0.00  0.00    -0.222 F 
ATOM      8  N   UNL A   1     -24.806  -0.240  29.066  0.00  0.00    -0.186 N 
ATOM      9  C   UNL A   1     -23.540   0.999  27.574  0.00  0.00    +0.125 C 
ATOM     10  C   UNL A   1     -22.345   1.501  27.094  0.00  0.00    +0.178 C 
ATOM     11  C   UNL A   1     -21.126   1.099  27.674  0.00  0.00    +0.059 C 
ATOM     12  N   UNL A   1     -22.428  -0.404  29.145  0.00  0.00    -0.036 NA
ATOM     13  C   UNL A   1     -23.598   0.104  28.626  0.00  0.00    +0.330 C 
ATOM     14  C   UNL A   1     -24.557   1.226  27.221  0.00  0.00    -0.097 C 
ATOM     15  C   UNL A   1     -21.255   0.152  28.719  0.00  0.00    +0.234 C 
ENDROOT
BRANCH   2  16
ATOM     16  C   UNL A   1     -25.642   4.093  27.123  0.00  0.00    +0.267 C 
ATOM     17  N   UNL A   1     -25.614   5.252  26.449  0.00  0.00    -0.200 NA
ATOM     18  C   UNL A   1     -25.026   6.479  26.963  0.00  0.00    +0.139 C 
ATOM     19  O   UNL A   1     -25.143   3.966  28.243  0.00  0.00    -0.268 OA
ENDBRANCH   2  16
BRANCH  10  21
ATOM     20  C   UNL A   1     -23.087   2.166  24.797  0.00  0.00    +0.175 C 
ATOM     21  O   UNL A   1     -22.267   2.323  25.965  0.00  0.00    -0.344 OA
ENDBRANCH  10  21
BRANCH   8  22
ATOM     22  C   UNL A   1     -24.855  -1.012  30.143  0.00  0.00    +0.199 C 
BRANCH  22  23
ATOM     23  C   UNL A   1     -24.973  -2.505  29.788  0.00  0.00    +0.021 C 
ATOM     24  C   UNL A   1     -23.906  -3.173  29.146  0.00  0.00    -0.000 C 
ATOM     25  C   UNL A   1     -23.989  -4.549  28.853  0.00  0.00    -0.000 C 
ATOM     26  C   UNL A   1     -25.137  -5.280  29.205  0.00  0.00    -0.000 C 
ATOM     27  C   UNL A   1     -26.232  -4.611  29.784  0.00  0.00    -0.000 C 
ATOM     28  C   UNL A   1     -26.155  -3.232  30.065  0.00  0.00    -0.000 C 
ENDBRANCH  22  23
BRANCH  22  29
ATOM     29  C   UNL A   1     -25.387  -0.679  31.571  0.00  0.00    +0.120 C 
ATOM     30  C   UNL A   1     -25.189   0.773  32.028  0.00  0.00    +0.023 C 
ATOM     31  C   UNL A   1     -25.336   0.684  33.544  0.00  0.00    +0.020 C 
ATOM     32  C   UNL A   1     -24.829  -0.715  33.905  0.00  0.00    +0.089 C 
ATOM     33  N   UNL A   1     -24.758  -1.481  32.646  0.00  0.00    -0.215 NA
ENDBRANCH  22  29
ENDBRANCH   8  22
BRANCH   5  34
ATOM     34  O   UNL A   1     -28.193  -0.208  24.477  0.00  0.00    -0.458 OA
BRANCH  34  35
ATOM     35  C   UNL A   1     -29.460   0.005  23.866  0.00  0.00    +0.242 C 
BRANCH  35  36
ATOM     36  C   UNL A   1     -30.065  -1.377  23.573  0.00  0.00    +0.229 C 
ATOM     37  O   UNL A   1     -30.729  -1.878  24.721  0.00  0.00    -0.216 OA
ENDBRANCH  35  36
ENDBRANCH  34  35
ENDBRANCH   5  34
BRANCH   8  38
ATOM     38  C   UNL A   1     -26.043  -0.166  28.352  0.00  0.00    +0.235 C 
BRANCH  38  39
ATOM     39  C   UNL A   1     -27.200   0.609  28.936  0.00  0.00    +0.193 C 
BRANCH  39  40
ATOM     40  O   UNL A   1     -28.510   0.042  28.274  0.00  0.00    -0.347 OA
ATOM     41  C   UNL A   1     -29.401  -0.507  29.158  0.00  0.00    +0.174 C 
ENDBRANCH  39  40
ENDBRANCH  38  39
ENDBRANCH   8  38
TORSDOF 11
