MODEL 4498
MODEL 1
REMARK VINA RESULT:    -5.137      0.000      0.000
REMARK INTER + INTRA:          -5.643
REMARK INTER:                  -5.438
REMARK INTRA:                  -0.205
REMARK UNBOUND:                -0.205
REMARK  Name = No_4498-gen_results/8p0m/2024-11-27-11-27-31/
REMARK  1 active torsions:
REMARK  status: ('A' for Active; 'I' for Inactive)
REMARK    1  A    between atoms: C_3  and  C_7
REMARK                            x       y       z     vdW  Elec       q    Type
REMARK                         _______ _______ _______ _____ _____    ______ ____
ROOT
ATOM      1  C   UNL A   1     -26.057  -3.186  29.665  0.00  0.00    +0.004 A 
ATOM      2  C   UNL A   1     -26.191  -4.231  29.679  0.00  0.00    -0.000 A 
ATOM      3  C   UNL A   1     -24.858  -2.759  28.934  0.00  0.00    +0.071 A 
ATOM      4  C   UNL A   1     -23.940  -3.623  28.498  0.00  0.00    +0.004 A 
ATOM      5  C   UNL A   1     -25.347  -5.339  29.302  0.00  0.00    -0.000 A 
ATOM      6  C   UNL A   1     -24.226  -4.922  28.648  0.00  0.00    -0.000 A 
ENDROOT
BRANCH   3   7
ATOM      7  C   UNL A   1     -24.510  -1.290  28.720  0.00  0.00    +0.419 C 
ATOM      8  F   UNL A   1     -24.837  -0.561  29.613  0.00  0.00    -0.166 F 
ATOM      9  F   UNL A   1     -23.065  -1.256  28.686  0.00  0.00    -0.166 F 
ATOM     10  F   UNL A   1     -24.914  -0.823  27.519  0.00  0.00    -0.166 F 
ENDBRANCH   3   7
TORSDOF 1
ENDMDL
ENDMDL
