MODEL 4499
MODEL 1
REMARK VINA RESULT:    -8.059      0.000      0.000
REMARK INTER + INTRA:         -13.965
REMARK INTER:                 -11.828
REMARK INTRA:                  -2.138
REMARK UNBOUND:                -2.138
REMARK  Name = No_4499-gen_results/8p0m/2024-11-27-11-27-31/
REMARK  8 active torsions:
REMARK  status: ('A' for Active; 'I' for Inactive)
REMARK    1  A    between atoms: C_1  and  C_2
REMARK    2  A    between atoms: C_1  and  C_8
REMARK    3  A    between atoms: C_5  and  C_11
REMARK    4  A    between atoms: C_7  and  N_18
REMARK    5  A    between atoms: N_18  and  C_19
REMARK    6  A    between atoms: C_20  and  C_21
REMARK    7  A    between atoms: C_21  and  C_22
REMARK    8  A    between atoms: C_26  and  C_28
REMARK                            x       y       z     vdW  Elec       q    Type
REMARK                         _______ _______ _______ _____ _____    ______ ____
ROOT
ATOM      1  C   UNL A   1     -25.192  -0.225  28.676  0.00  0.00    +0.025 A 
ATOM      2  C   UNL A   1     -25.660   0.041  27.390  0.00  0.00    +0.138 A 
ATOM      3  C   UNL A   1     -24.982   0.819  26.336  0.00  0.00    +0.034 A 
ATOM      4  C   UNL A   1     -23.819   1.540  26.747  0.00  0.00    +0.063 A 
ATOM      5  C   UNL A   1     -23.381   1.338  28.079  0.00  0.00    +0.021 A 
ATOM      6  C   UNL A   1     -24.001   0.551  28.960  0.00  0.00    +0.069 A 
ATOM      7  F   UNL A   1     -26.700  -0.570  26.864  0.00  0.00    -0.204 F 
ENDROOT
BRANCH   4   8
ATOM      8  C   UNL A   1     -23.168   2.377  25.760  0.00  0.00    +0.297 C 
ATOM      9  N   UNL A   1     -22.325   2.184  24.956  0.00  0.00    -0.102 NA
ATOM     10  O   UNL A   1     -23.816   3.577  25.608  0.00  0.00    -0.264 OA
ENDBRANCH   4   8
BRANCH   1  11
ATOM     11  C   UNL A   1     -25.801  -0.882  29.488  0.00  0.00    +0.056 C 
BRANCH  11  12
ATOM     12  C   UNL A   1     -25.556  -2.354  29.367  0.00  0.00    -0.018 A 
ATOM     13  C   UNL A   1     -26.406  -3.141  29.816  0.00  0.00    -0.004 A 
ATOM     14  C   UNL A   1     -26.159  -4.651  29.661  0.00  0.00    -0.000 A 
ATOM     15  C   UNL A   1     -24.985  -5.032  29.052  0.00  0.00    -0.000 A 
ATOM     16  C   UNL A   1     -24.314  -2.843  28.737  0.00  0.00    -0.004 A 
ATOM     17  C   UNL A   1     -24.059  -4.156  28.603  0.00  0.00    -0.000 A 
ENDBRANCH  11  12
ENDBRANCH   1  11
BRANCH   6  18
ATOM     18  N   UNL A   1     -23.427   0.458  30.219  0.00  0.00    -0.212 NA
BRANCH  18  19
ATOM     19  C   UNL A   1     -22.637  -0.389  30.690  0.00  0.00    +0.081 C 
ATOM     20  C   UNL A   1     -22.721  -0.799  31.975  0.00  0.00    -0.004 C 
BRANCH  20  21
ATOM     21  C   UNL A   1     -23.737  -1.359  32.369  0.00  0.00    +0.054 C 
BRANCH  21  22
ATOM     22  C   UNL A   1     -24.462  -0.869  33.429  0.00  0.00    -0.018 A 
ATOM     23  C   UNL A   1     -25.557  -0.012  33.106  0.00  0.00    -0.004 A 
ATOM     24  C   UNL A   1     -26.533   0.378  34.105  0.00  0.00    -0.000 A 
ATOM     25  C   UNL A   1     -26.247   0.046  35.447  0.00  0.00    +0.007 A 
ATOM     26  C   UNL A   1     -25.135  -0.709  35.757  0.00  0.00    +0.080 A 
ATOM     27  C   UNL A   1     -24.304  -1.167  34.757  0.00  0.00    +0.003 A 
BRANCH  26  28
ATOM     28  C   UNL A   1     -24.956  -1.052  37.196  0.00  0.00    +0.388 C 
ATOM     29  O   UNL A   1     -25.619  -2.047  37.619  0.00  0.00    -0.241 OA
ATOM     30  O   UNL A   1     -23.939  -0.608  37.903  0.00  0.00    -0.241 OA
ENDBRANCH  26  28
ENDBRANCH  21  22
ENDBRANCH  20  21
ENDBRANCH  18  19
ENDBRANCH   6  18
TORSDOF 8
ENDMDL
ENDMDL
