REMARK  Name = No_4499-gen_results/8p0m/2024-11-27-11-27-31/
REMARK  8 active torsions:
REMARK  status: ('A' for Active; 'I' for Inactive)
REMARK    1  A    between atoms: C_1  and  C_2
REMARK    2  A    between atoms: C_1  and  C_8
REMARK    3  A    between atoms: C_5  and  C_11
REMARK    4  A    between atoms: C_7  and  N_18
REMARK    5  A    between atoms: N_18  and  C_19
REMARK    6  A    between atoms: C_20  and  C_21
REMARK    7  A    between atoms: C_21  and  C_22
REMARK    8  A    between atoms: C_26  and  C_28
REMARK                            x       y       z     vdW  Elec       q    Type
REMARK                         _______ _______ _______ _____ _____    ______ ____
ROOT
ATOM      1  C   UNL A   1     -27.064  -0.119  28.608  0.00  0.00    +0.025 A 
ATOM      2  C   UNL A   1     -25.765  -0.390  29.036  0.00  0.00    +0.138 A 
ATOM      3  C   UNL A   1     -24.552   0.406  28.765  0.00  0.00    +0.034 A 
ATOM      4  C   UNL A   1     -24.696   1.448  27.799  0.00  0.00    +0.063 A 
ATOM      5  C   UNL A   1     -26.001   1.678  27.297  0.00  0.00    +0.021 A 
ATOM      6  C   UNL A   1     -27.074   0.968  27.650  0.00  0.00    +0.069 A 
ATOM      7  F   UNL A   1     -25.483  -1.298  29.944  0.00  0.00    -0.204 F 
ENDROOT
BRANCH   4   8
ATOM      8  C   UNL A   1     -23.510   2.203  27.448  0.00  0.00    +0.297 C 
ATOM      9  N   UNL A   1     -22.494   1.923  26.916  0.00  0.00    -0.102 NA
ATOM     10  O   UNL A   1     -23.710   3.553  27.587  0.00  0.00    -0.264 OA
ENDBRANCH   4   8
BRANCH   1  11
ATOM     11  C   UNL A   1     -28.016  -0.814  28.878  0.00  0.00    +0.056 C 
BRANCH  11  12
ATOM     12  C   UNL A   1     -28.642  -0.482  30.196  0.00  0.00    -0.018 A 
ATOM     13  C   UNL A   1     -28.293   0.557  30.780  0.00  0.00    -0.004 A 
ATOM     14  C   UNL A   1     -28.964   0.905  32.120  0.00  0.00    -0.000 A 
ATOM     15  C   UNL A   1     -29.898   0.014  32.599  0.00  0.00    -0.000 A 
ATOM     16  C   UNL A   1     -29.644  -1.393  30.784  0.00  0.00    -0.004 A 
ATOM     17  C   UNL A   1     -30.235  -1.129  31.962  0.00  0.00    -0.000 A 
ENDBRANCH  11  12
ENDBRANCH   1  11
BRANCH   6  18
ATOM     18  N   UNL A   1     -28.279   1.338  27.070  0.00  0.00    -0.212 NA
BRANCH  18  19
ATOM     19  C   UNL A   1     -28.512   1.946  26.002  0.00  0.00    +0.081 C 
ATOM     20  C   UNL A   1     -29.774   2.158  25.569  0.00  0.00    -0.004 C 
BRANCH  20  21
ATOM     21  C   UNL A   1     -30.546   2.823  26.249  0.00  0.00    +0.054 C 
BRANCH  21  22
ATOM     22  C   UNL A   1     -30.136   3.435  27.410  0.00  0.00    -0.018 A 
ATOM     23  C   UNL A   1     -31.154   3.719  28.370  0.00  0.00    -0.004 A 
ATOM     24  C   UNL A   1     -30.826   4.144  29.717  0.00  0.00    -0.000 A 
ATOM     25  C   UNL A   1     -29.475   4.461  29.980  0.00  0.00    +0.007 A 
ATOM     26  C   UNL A   1     -28.512   4.266  29.013  0.00  0.00    +0.080 A 
ATOM     27  C   UNL A   1     -28.854   3.737  27.786  0.00  0.00    +0.003 A 
BRANCH  26  28
ATOM     28  C   UNL A   1     -27.110   4.578  29.412  0.00  0.00    +0.388 C 
ATOM     29  O   UNL A   1     -26.387   5.127  28.527  0.00  0.00    -0.241 OA
ATOM     30  O   UNL A   1     -26.732   4.623  30.671  0.00  0.00    -0.241 OA
ENDBRANCH  26  28
ENDBRANCH  21  22
ENDBRANCH  20  21
ENDBRANCH  18  19
ENDBRANCH   6  18
TORSDOF 8
