MODEL 449
MODEL 1
REMARK VINA RESULT:    -6.672      0.000      0.000
REMARK INTER + INTRA:          -6.672
REMARK INTER:                  -6.672
REMARK INTRA:                   0.000
REMARK UNBOUND:                 0.000
REMARK  Name = No_449-gen_results/8p0m/2024-11-27-11-27-31/
REMARK  0 active torsions:
REMARK  status: ('A' for Active; 'I' for Inactive)
REMARK                            x       y       z     vdW  Elec       q    Type
REMARK                         _______ _______ _______ _____ _____    ______ ____
ROOT
ATOM      1  C   UNL A   1     -23.833  -3.162  29.077  0.00  0.00    +0.004 A 
ATOM      2  C   UNL A   1     -24.068  -2.137  29.143  0.00  0.00    +0.050 A 
ATOM      3  C   UNL A   1     -24.973  -4.110  29.379  0.00  0.00    +0.000 A 
ATOM      4  C   UNL A   1     -26.269  -3.590  29.580  0.00  0.00    -0.000 A 
ATOM      5  C   UNL A   1     -25.312  -1.349  29.295  0.00  0.00    -0.016 A 
ATOM      6  C   UNL A   1     -26.383  -2.188  29.568  0.00  0.00    -0.004 A 
ATOM      7  C   UNL A   1     -22.880  -1.107  28.813  0.00  0.00    +0.249 C 
ATOM      8  O   UNL A   1     -21.861  -1.512  28.999  0.00  0.00    -0.270 OA
ATOM      9  N   UNL A   1     -23.157   0.154  28.275  0.00  0.00    -0.277 N 
ATOM     10  C   UNL A   1     -22.052   1.001  27.952  0.00  0.00    +0.094 C 
ATOM     11  C   UNL A   1     -22.294   1.870  27.132  0.00  0.00    +0.022 C 
ATOM     12  C   UNL A   1     -23.661   2.249  26.690  0.00  0.00    +0.004 C 
ATOM     13  C   UNL A   1     -24.701   1.359  27.030  0.00  0.00    +0.020 C 
ATOM     14  C   UNL A   1     -24.460   0.285  27.708  0.00  0.00    +0.080 C 
ATOM     15  C   UNL A   1     -25.293  -0.659  27.661  0.00  0.00    +0.046 C 
ENDROOT
TORSDOF 0
ENDMDL
ENDMDL
