REMARK  Name = outputs/IAG933/test6/raw/output_4500_IAG933_linker_design_.xyz
REMARK  15 active torsions:
REMARK  status: ('A' for Active; 'I' for Inactive)
REMARK    1  A    between atoms: C_1  and  C_2
REMARK    2  A    between atoms: C_1  and  C_8
REMARK    3  A    between atoms: C_1  and  N_36
REMARK    4  A    between atoms: C_13  and  C_28
REMARK    5  A    between atoms: C_14  and  C_15
REMARK    6  A    between atoms: C_21  and  O_22
REMARK    7  A    between atoms: O_22  and  C_23
REMARK    8  A    between atoms: C_23  and  C_24
REMARK    9  A    between atoms: N_29  and  C_43
REMARK   10  A    between atoms: C_32  and  C_34
REMARK   11  A    between atoms: C_32  and  C_43
REMARK   12  A    between atoms: C_34  and  C_37
REMARK   13  A    between atoms: N_36  and  C_37
REMARK   14  A    between atoms: N_36  and  C_38
REMARK   15  A    between atoms: C_38  and  C_41
REMARK                            x       y       z     vdW  Elec       q    Type
REMARK                         _______ _______ _______ _____ _____    ______ ____
ROOT
ATOM      1  N   UNL A   1     -24.963  -0.149  29.030  0.00  0.00    -0.265 NA
ENDROOT
BRANCH   1   2
ATOM      2  C   UNL A   1     -24.855  -1.012  30.143  0.00  0.00    +0.097 C 
BRANCH   2   3
ATOM      3  C   UNL A   1     -24.973  -2.505  29.788  0.00  0.00    -0.006 C 
ATOM      4  C   UNL A   1     -23.906  -3.173  29.146  0.00  0.00    -0.003 C 
ATOM      5  C   UNL A   1     -23.989  -4.549  28.853  0.00  0.00    -0.000 C 
ATOM      6  C   UNL A   1     -25.137  -5.280  29.205  0.00  0.00    -0.000 C 
ATOM      7  C   UNL A   1     -26.232  -4.611  29.784  0.00  0.00    -0.000 C 
ATOM      8  C   UNL A   1     -26.155  -3.232  30.065  0.00  0.00    -0.003 C 
ENDBRANCH   2   3
BRANCH   2   9
ATOM      9  C   UNL A   1     -25.387  -0.679  31.571  0.00  0.00    +0.092 C 
ATOM     10  C   UNL A   1     -25.189   0.773  32.028  0.00  0.00    +0.021 C 
ATOM     11  C   UNL A   1     -25.336   0.684  33.544  0.00  0.00    +0.020 C 
ATOM     12  C   UNL A   1     -24.829  -0.715  33.905  0.00  0.00    +0.089 C 
ATOM     13  N   UNL A   1     -24.758  -1.481  32.646  0.00  0.00    -0.218 NA
ENDBRANCH   2   9
ENDBRANCH   1   2
BRANCH   1  14
ATOM     14  C   UNL A   1     -26.243   0.467  28.762  0.00  0.00    +0.073 C 
BRANCH  14  15
ATOM     15  C   UNL A   1     -27.466  -0.432  28.547  0.00  0.00    +0.019 C 
BRANCH  15  16
ATOM     16  C   UNL A   1     -28.971  -0.074  28.745  0.00  0.00    +0.019 C 
BRANCH  16  17
ATOM     17  C   UNL A   1     -29.058   1.027  29.787  0.00  0.00    +0.072 C 
BRANCH  17  18
ATOM     18  N   UNL A   1     -29.495   0.413  31.023  0.00  0.00    -0.270 NA
ATOM     19  C   UNL A   1     -29.821   1.082  32.253  0.00  0.00    +0.108 C 
ATOM     20  C   UNL A   1     -29.406  -1.039  31.168  0.00  0.00    +0.075 C 
ATOM     21  C   UNL A   1     -29.280  -1.108  32.675  0.00  0.00    +0.054 C 
ATOM     22  C   UNL A   1     -29.029   0.277  33.243  0.00  0.00    +0.178 C 
ATOM     23  F   UNL A   1     -29.514   0.384  34.521  0.00  0.00    -0.236 F 
ENDBRANCH  17  18
ENDBRANCH  16  17
ENDBRANCH  15  16
ENDBRANCH  14  15
ENDBRANCH   1  14
BRANCH   1  24
ATOM     24  C   UNL A   1     -23.958   0.929  29.235  0.00  0.00    +0.099 C 
BRANCH  24  30
ATOM     25  C   UNL A   1     -24.124   1.497  26.696  0.00  0.00    -0.018 C 
ATOM     26  C   UNL A   1     -23.312   1.881  25.562  0.00  0.00    -0.004 C 
ATOM     27  C   UNL A   1     -21.910   1.962  25.632  0.00  0.00    -0.000 C 
ATOM     28  C   UNL A   1     -21.874   1.062  27.889  0.00  0.00    -0.003 C 
ATOM     29  C   UNL A   1     -21.163   1.546  26.766  0.00  0.00    -0.000 C 
ATOM     30  C   UNL A   1     -23.299   1.100  27.901  0.00  0.00    -0.010 C 
BRANCH  25  31
ATOM     31  C   UNL A   1     -25.688   1.614  26.461  0.00  0.00    +0.092 C 
ATOM     32  C   UNL A   1     -26.250   2.920  26.395  0.00  0.00    +0.059 C 
ATOM     33  C   UNL A   1     -27.438   3.091  25.645  0.00  0.00    +0.102 C 
ATOM     34  N   UNL A   1     -28.075   2.089  25.003  0.00  0.00    -0.212 NA
ATOM     35  C   UNL A   1     -27.543   0.849  25.079  0.00  0.00    +0.234 C 
ATOM     36  C   UNL A   1     -26.354   0.576  25.777  0.00  0.00    +0.244 C 
ATOM     37  F   UNL A   1     -25.860  -0.681  25.795  0.00  0.00    -0.227 F 
BRANCH  32  38
ATOM     38  C   UNL A   1     -25.642   4.093  27.123  0.00  0.00    +0.263 C 
ATOM     39  N   UNL A   1     -25.614   5.252  26.449  0.00  0.00    -0.200 NA
ATOM     40  C   UNL A   1     -25.026   6.479  26.963  0.00  0.00    +0.139 C 
ATOM     41  O   UNL A   1     -25.143   3.966  28.243  0.00  0.00    -0.269 OA
ENDBRANCH  32  38
BRANCH  35  42
ATOM     42  O   UNL A   1     -28.193  -0.208  24.477  0.00  0.00    -0.459 OA
BRANCH  42  43
ATOM     43  C   UNL A   1     -29.460   0.005  23.866  0.00  0.00    +0.242 C 
BRANCH  43  44
ATOM     44  C   UNL A   1     -30.065  -1.377  23.573  0.00  0.00    +0.229 C 
ATOM     45  O   UNL A   1     -30.729  -1.878  24.721  0.00  0.00    -0.216 OA
ENDBRANCH  43  44
ENDBRANCH  42  43
ENDBRANCH  35  42
ENDBRANCH  25  31
ENDBRANCH  24  30
ENDBRANCH   1  24
TORSDOF 15
