MODEL 4500
MODEL 1
REMARK VINA RESULT:    -5.544      0.000      0.000
REMARK INTER + INTRA:          -8.067
REMARK INTER:                  -7.489
REMARK INTRA:                  -0.578
REMARK UNBOUND:                -0.578
REMARK  Name = No_4500-gen_results/8p0m/2024-11-27-11-27-31/
REMARK  6 active torsions:
REMARK  status: ('A' for Active; 'I' for Inactive)
REMARK    1  A    between atoms: C_1  and  C_2
REMARK    2  A    between atoms: C_4  and  O_11
REMARK    3  A    between atoms: C_7  and  O_13
REMARK    4  A    between atoms: O_13  and  C_14
REMARK    5  A    between atoms: C_14  and  C_16
REMARK    6  A    between atoms: C_16  and  C_17
REMARK                            x       y       z     vdW  Elec       q    Type
REMARK                         _______ _______ _______ _____ _____    ______ ____
ROOT
ATOM      1  C   UNL A   1     -23.734   0.656  29.254  0.00  0.00    +0.081 A 
ATOM      2  C   UNL A   1     -23.125   0.974  27.994  0.00  0.00    +0.042 A 
ATOM      3  C   UNL A   1     -23.903   0.918  26.739  0.00  0.00    +0.149 A 
ATOM      4  C   UNL A   1     -24.979   0.016  26.641  0.00  0.00    +0.095 A 
ATOM      5  C   UNL A   1     -25.403  -0.669  27.799  0.00  0.00    +0.052 A 
ATOM      6  C   UNL A   1     -24.778  -0.484  28.976  0.00  0.00    +0.148 A 
ATOM      7 CL   UNL A   1     -25.781  -0.288  25.179  0.00  0.00    -0.079 Cl
ENDROOT
BRANCH   1   8
ATOM      8  C   UNL A   1     -23.081   0.568  30.077  0.00  0.00    +0.344 C 
ATOM      9  F   UNL A   1     -23.526   0.779  31.216  0.00  0.00    -0.193 F 
ATOM     10  F   UNL A   1     -22.106  -0.434  30.182  0.00  0.00    -0.193 F 
ENDBRANCH   1   8
BRANCH   3  11
ATOM     11  O   UNL A   1     -23.514   1.505  25.569  0.00  0.00    -0.471 OA
ATOM     12  C   UNL A   1     -23.496   2.830  25.596  0.00  0.00    +0.253 C 
ENDBRANCH   3  11
BRANCH   6  13
ATOM     13  O   UNL A   1     -25.372  -1.124  30.032  0.00  0.00    -0.447 OA
BRANCH  13  14
ATOM     14  C   UNL A   1     -25.295  -2.483  30.107  0.00  0.00    +0.204 C 
ATOM     15  C   UNL A   1     -26.448  -3.205  30.115  0.00  0.00    +0.167 C 
ATOM     16  O   UNL A   1     -27.563  -2.744  29.861  0.00  0.00    -0.228 OA
BRANCH  14  17
ATOM     17  C   UNL A   1     -24.095  -3.058  29.462  0.00  0.00    +0.148 C 
BRANCH  17  18
ATOM     18  C   UNL A   1     -24.294  -4.159  28.635  0.00  0.00    +0.216 C 
ATOM     19  O   UNL A   1     -23.804  -4.996  28.938  0.00  0.00    -0.288 OA
ENDBRANCH  17  18
ENDBRANCH  14  17
ENDBRANCH  13  14
ENDBRANCH   6  13
TORSDOF 6
ENDMDL
ENDMDL
