REMARK  Name = outputs/IAG933/test6/raw/output_4501_IAG933_linker_design_.xyz
REMARK  7 active torsions:
REMARK  status: ('A' for Active; 'I' for Inactive)
REMARK    1  A    between atoms: C_1  and  C_2
REMARK    2  A    between atoms: C_14  and  C_15
REMARK    3  A    between atoms: C_15  and  O_18
REMARK    4  A    between atoms: O_18  and  C_33
REMARK    5  A    between atoms: C_21  and  O_22
REMARK    6  A    between atoms: O_22  and  C_23
REMARK    7  A    between atoms: C_23  and  C_24
REMARK                            x       y       z     vdW  Elec       q    Type
REMARK                         _______ _______ _______ _____ _____    ______ ____
ROOT
ATOM      1  C   UNL A   1     -24.855  -1.012  30.143  0.00  0.00    +0.061 C 
ATOM      2  C   UNL A   1     -25.387  -0.679  31.571  0.00  0.00    +0.085 C 
ATOM      3  C   UNL A   1     -25.189   0.773  32.028  0.00  0.00    +0.042 C 
ATOM      4  C   UNL A   1     -25.336   0.684  33.544  0.00  0.00    +0.025 C 
ATOM      5  C   UNL A   1     -24.829  -0.715  33.905  0.00  0.00    +0.089 C 
ATOM      6  N   UNL A   1     -24.758  -1.481  32.646  0.00  0.00    -0.218 NA
ATOM      7  C   UNL A   1     -21.971   0.505  28.313  0.00  0.00    +0.167 C 
ATOM      8  C   UNL A   1     -22.445   1.577  27.626  0.00  0.00    +0.167 C 
ATOM      9  C   UNL A   1     -24.154   1.607  29.368  0.00  0.00    +0.002 C 
ATOM     10  F   UNL A   1     -20.670   0.370  27.967  0.00  0.00    -0.202 F 
ATOM     11  F   UNL A   1     -21.937   1.982  26.416  0.00  0.00    -0.202 F 
ATOM     12  C   UNL A   1     -25.471   3.614  29.516  0.00  0.00    +0.166 C 
ATOM     13  N   UNL A   1     -26.009   4.412  31.702  0.00  0.00    -0.239 NA
ATOM     14  C   UNL A   1     -25.243   2.178  31.508  0.00  0.00    +0.001 C 
ATOM     15  C   UNL A   1     -26.009   4.562  30.346  0.00  0.00    +0.136 C 
ATOM     16  C   UNL A   1     -23.934   0.168  29.659  0.00  0.00    -0.015 C 
ATOM     17  C   UNL A   1     -23.517   2.166  28.239  0.00  0.00    +0.032 C 
ATOM     18  C   UNL A   1     -25.612   3.287  32.317  0.00  0.00    +0.095 C 
ATOM     19  C   UNL A   1     -22.686  -0.262  29.202  0.00  0.00    +0.028 C 
ATOM     20  C   UNL A   1     -24.976   2.426  30.119  0.00  0.00    +0.034 C 
ENDROOT
BRANCH   1  21
ATOM     21  C   UNL A   1     -24.973  -2.505  29.788  0.00  0.00    -0.017 C 
ATOM     22  C   UNL A   1     -23.906  -3.173  29.146  0.00  0.00    -0.004 C 
ATOM     23  C   UNL A   1     -23.989  -4.549  28.853  0.00  0.00    -0.000 C 
ATOM     24  C   UNL A   1     -25.137  -5.280  29.205  0.00  0.00    -0.000 C 
ATOM     25  C   UNL A   1     -26.232  -4.611  29.784  0.00  0.00    -0.000 C 
ATOM     26  C   UNL A   1     -26.155  -3.232  30.065  0.00  0.00    -0.004 C 
ENDBRANCH   1  21
BRANCH  12  27
ATOM     27  O   UNL A   1     -25.143   3.966  28.243  0.00  0.00    -0.435 OA
BRANCH  27  28
ATOM     28  C   UNL A   1     -25.642   4.093  27.123  0.00  0.00    +0.227 C 
ATOM     29  N   UNL A   1     -25.614   5.252  26.449  0.00  0.00    -0.235 NA
ATOM     30  C   UNL A   1     -25.026   6.479  26.963  0.00  0.00    +0.155 C 
BRANCH  28  32
ATOM     31  C   UNL A   1     -25.688   1.614  26.461  0.00  0.00    +0.041 C 
ATOM     32  C   UNL A   1     -26.250   2.920  26.395  0.00  0.00    +0.075 C 
ATOM     33  C   UNL A   1     -27.438   3.091  25.645  0.00  0.00    +0.107 C 
ATOM     34  N   UNL A   1     -28.075   2.089  25.003  0.00  0.00    -0.208 NA
ATOM     35  C   UNL A   1     -27.543   0.849  25.079  0.00  0.00    +0.253 C 
ATOM     36  C   UNL A   1     -26.354   0.576  25.777  0.00  0.00    +0.193 C 
ATOM     37  F   UNL A   1     -25.860  -0.681  25.795  0.00  0.00    -0.199 F 
BRANCH  35  38
ATOM     38  O   UNL A   1     -28.193  -0.208  24.477  0.00  0.00    -0.456 OA
BRANCH  38  39
ATOM     39  C   UNL A   1     -29.460   0.005  23.866  0.00  0.00    +0.243 C 
BRANCH  39  40
ATOM     40  C   UNL A   1     -30.065  -1.377  23.573  0.00  0.00    +0.229 C 
ATOM     41  O   UNL A   1     -30.729  -1.878  24.721  0.00  0.00    -0.216 OA
ENDBRANCH  39  40
ENDBRANCH  38  39
ENDBRANCH  35  38
ENDBRANCH  28  32
ENDBRANCH  27  28
ENDBRANCH  12  27
TORSDOF 7
