MODEL 4501
MODEL 1
REMARK VINA RESULT:    -4.520      0.000      0.000
REMARK INTER + INTRA:          -4.520
REMARK INTER:                  -4.520
REMARK INTRA:                   0.000
REMARK UNBOUND:                 0.000
REMARK  Name = No_4501-gen_results/8p0m/2024-11-27-11-27-31/
REMARK  0 active torsions:
REMARK  status: ('A' for Active; 'I' for Inactive)
REMARK                            x       y       z     vdW  Elec       q    Type
REMARK                         _______ _______ _______ _____ _____    ______ ____
ROOT
ATOM      1  C   UNL A   1      -8.924 -10.599  18.039  0.00  0.00    +0.030 A 
ATOM      2  C   UNL A   1      -9.831 -10.073  18.144  0.00  0.00    +0.140 A 
ATOM      3  C   UNL A   1      -7.918 -10.389  19.148  0.00  0.00    +0.002 A 
ATOM      4  C   UNL A   1      -8.290  -9.647  20.288  0.00  0.00    +0.000 A 
ATOM      5  C   UNL A   1     -10.469  -9.282  19.221  0.00  0.00    +0.030 A 
ATOM      6  C   UNL A   1      -9.575  -9.073  20.262  0.00  0.00    +0.002 A 
ATOM      7  F   UNL A   1     -10.670 -10.289  16.968  0.00  0.00    -0.204 F 
ENDROOT
TORSDOF 0
ENDMDL
ENDMDL
