MODEL 4502
MODEL 1
REMARK VINA RESULT:    -6.957      0.000      0.000
REMARK INTER + INTRA:          -8.100
REMARK INTER:                  -7.771
REMARK INTRA:                  -0.330
REMARK UNBOUND:                -0.330
REMARK  Name = No_4502-gen_results/8p0m/2024-11-27-11-27-31/
REMARK  2 active torsions:
REMARK  status: ('A' for Active; 'I' for Inactive)
REMARK    1  A    between atoms: C_4  and  C_9
REMARK    2  A    between atoms: C_13  and  C_14
REMARK                            x       y       z     vdW  Elec       q    Type
REMARK                         _______ _______ _______ _____ _____    ______ ____
ROOT
ATOM      1  F   UNL A   1     -24.924  -5.548  28.996  0.00  0.00    -0.202 F 
ATOM      2  C   UNL A   1     -25.091  -4.497  29.188  0.00  0.00    +0.167 A 
ATOM      3  C   UNL A   1     -24.216  -3.601  28.889  0.00  0.00    +0.034 A 
ATOM      4  C   UNL A   1     -24.441  -2.203  29.129  0.00  0.00    +0.020 A 
ATOM      5  C   UNL A   1     -25.660  -1.857  29.748  0.00  0.00    +0.004 A 
ATOM      6  C   UNL A   1     -26.644  -2.805  30.070  0.00  0.00    +0.032 A 
ATOM      7  C   UNL A   1     -26.400  -4.097  29.779  0.00  0.00    +0.167 A 
ATOM      8  F   UNL A   1     -27.265  -5.021  30.046  0.00  0.00    -0.202 F 
ENDROOT
BRANCH   4   9
ATOM      9  C   UNL A   1     -23.444  -1.189  28.816  0.00  0.00    +0.081 A 
ATOM     10  N   UNL A   1     -22.252  -1.352  29.160  0.00  0.00    -0.244 NA
ATOM     11  C   UNL A   1     -23.883  -0.062  28.097  0.00  0.00    +0.021 A 
ATOM     12  C   UNL A   1     -21.390  -0.584  28.883  0.00  0.00    +0.099 A 
ATOM     13  C   UNL A   1     -22.870   0.874  27.784  0.00  0.00    +0.024 A 
ATOM     14  C   UNL A   1     -21.615   0.567  28.212  0.00  0.00    +0.022 A 
BRANCH  13  15
ATOM     15  C   UNL A   1     -23.178   2.091  27.075  0.00  0.00    +0.122 C 
ATOM     16  N   UNL A   1     -23.809   2.947  27.489  0.00  0.00    -0.146 NA
ENDBRANCH  13  15
ENDBRANCH   4   9
TORSDOF 2
ENDMDL
ENDMDL
