MODEL 4503
MODEL 1
REMARK VINA RESULT:    -7.673      0.000      0.000
REMARK INTER + INTRA:         -13.078
REMARK INTER:                 -10.813
REMARK INTRA:                  -2.265
REMARK UNBOUND:                -2.265
REMARK  Name = No_4503-gen_results/8p0m/2024-11-27-11-27-31/
REMARK  7 active torsions:
REMARK  status: ('A' for Active; 'I' for Inactive)
REMARK    1  A    between atoms: C_3  and  C_7
REMARK    2  A    between atoms: C_7  and  C_8
REMARK    3  A    between atoms: C_7  and  C_9
REMARK    4  A    between atoms: C_8  and  C_17
REMARK    5  A    between atoms: C_9  and  C_10
REMARK    6  A    between atoms: C_17  and  C_18
REMARK    7  A    between atoms: C_17  and  C_21
REMARK                            x       y       z     vdW  Elec       q    Type
REMARK                         _______ _______ _______ _____ _____    ______ ____
ROOT
ATOM      1  C   UNL A   1     -24.432  -1.158  29.438  0.00  0.00    +0.027 C 
ENDROOT
BRANCH   1   4
ATOM      2  C   UNL A   1     -23.849  -3.533  28.673  0.00  0.00    -0.004 A 
ATOM      3  C   UNL A   1     -24.132  -4.548  28.641  0.00  0.00    -0.000 A 
ATOM      4  C   UNL A   1     -24.732  -2.623  29.294  0.00  0.00    -0.022 A 
ATOM      5  C   UNL A   1     -25.936  -3.026  29.836  0.00  0.00    -0.004 A 
ATOM      6  C   UNL A   1     -25.340  -5.233  29.139  0.00  0.00    -0.000 A 
ATOM      7  C   UNL A   1     -26.214  -4.396  29.741  0.00  0.00    -0.000 A 
ENDBRANCH   1   4
BRANCH   1   8
ATOM      8  C   UNL A   1     -23.321  -0.557  28.894  0.00  0.00    +0.026 C 
ATOM      9  C   UNL A   1     -22.104  -0.757  29.607  0.00  0.00    +0.005 C 
BRANCH   8  10
ATOM     10  C   UNL A   1     -23.375   0.262  27.815  0.00  0.00    -0.022 A 
ATOM     11  C   UNL A   1     -24.469   0.093  26.946  0.00  0.00    -0.004 A 
ATOM     12  C   UNL A   1     -24.608   0.975  25.853  0.00  0.00    -0.000 A 
ATOM     13  C   UNL A   1     -23.711   2.007  25.694  0.00  0.00    -0.000 A 
ATOM     14  C   UNL A   1     -22.680   2.217  26.568  0.00  0.00    -0.000 A 
ATOM     15  C   UNL A   1     -22.479   1.373  27.600  0.00  0.00    -0.004 A 
ENDBRANCH   8  10
ENDBRANCH   1   8
BRANCH   1  16
ATOM     16  C   UNL A   1     -25.364  -0.470  30.165  0.00  0.00    +0.019 C 
BRANCH  16  17
ATOM     17  C   UNL A   1     -25.005   0.291  31.299  0.00  0.00    +0.113 C 
BRANCH  17  18
ATOM     18  C   UNL A   1     -24.934   0.046  32.320  0.00  0.00    -0.021 C 
ATOM     19  C   UNL A   1     -24.297  -0.663  32.974  0.00  0.00    -0.030 C 
ATOM     20  C   UNL A   1     -24.251  -1.182  34.338  0.00  0.00    +0.030 C 
ENDBRANCH  17  18
BRANCH  17  21
ATOM     21  C   UNL A   1     -24.695   1.750  30.756  0.00  0.00    +0.314 C 
ATOM     22  O   UNL A   1     -23.764   2.417  31.249  0.00  0.00    -0.259 OA
ATOM     23  F   UNL A   1     -25.432   2.243  29.854  0.00  0.00    -0.163 F 
ENDBRANCH  17  21
ENDBRANCH  16  17
ENDBRANCH   1  16
TORSDOF 7
ENDMDL
ENDMDL
