REMARK  Name = outputs/IAG933/test6/raw/output_4504_IAG933_linker_design_.xyz
REMARK  15 active torsions:
REMARK  status: ('A' for Active; 'I' for Inactive)
REMARK    1  A    between atoms: C_1  and  C_2
REMARK    2  A    between atoms: C_1  and  C_8
REMARK    3  A    between atoms: C_1  and  C_44
REMARK    4  A    between atoms: C_13  and  C_40
REMARK    5  A    between atoms: C_14  and  C_15
REMARK    6  A    between atoms: C_21  and  O_22
REMARK    7  A    between atoms: O_22  and  C_23
REMARK    8  A    between atoms: C_23  and  C_24
REMARK    9  A    between atoms: C_24  and  O_25
REMARK   10  A    between atoms: O_25  and  C_43
REMARK   11  A    between atoms: C_29  and  C_39
REMARK   12  A    between atoms: O_31  and  C_36
REMARK   13  A    between atoms: O_31  and  C_39
REMARK   14  A    between atoms: C_33  and  C_43
REMARK   15  A    between atoms: C_36  and  C_41
REMARK                            x       y       z     vdW  Elec       q    Type
REMARK                         _______ _______ _______ _____ _____    ______ ____
ROOT
ATOM      1  C   UNL A   1     -25.688   1.614  26.461  0.00  0.00    +0.036 C 
ATOM      2  C   UNL A   1     -26.250   2.920  26.395  0.00  0.00    +0.076 C 
ATOM      3  C   UNL A   1     -27.438   3.091  25.645  0.00  0.00    +0.107 C 
ATOM      4  N   UNL A   1     -28.075   2.089  25.003  0.00  0.00    -0.208 NA
ATOM      5  C   UNL A   1     -27.543   0.849  25.079  0.00  0.00    +0.253 C 
ATOM      6  C   UNL A   1     -26.354   0.576  25.777  0.00  0.00    +0.193 C 
ATOM      7  F   UNL A   1     -25.860  -0.681  25.795  0.00  0.00    -0.199 F 
ENDROOT
BRANCH   1  11
ATOM      8  C   UNL A   1     -25.070   0.581  28.165  0.00  0.00    -0.025 C 
ATOM      9  C   UNL A   1     -23.472   1.409  26.581  0.00  0.00    +0.168 C 
ATOM     10  C   UNL A   1     -22.846   0.900  28.966  0.00  0.00    +0.147 C 
ATOM     11  C   UNL A   1     -24.647   1.238  27.093  0.00  0.00    +0.006 C 
ATOM     12  O   UNL A   1     -22.378   1.495  27.677  0.00  0.00    -0.349 OA
ATOM     13  C   UNL A   1     -24.254   0.089  29.122  0.00  0.00    +0.057 C 
BRANCH  13  14
ATOM     14  C   UNL A   1     -24.855  -1.012  30.143  0.00  0.00    +0.045 C 
BRANCH  14  15
ATOM     15  C   UNL A   1     -24.973  -2.505  29.788  0.00  0.00    -0.021 C 
ATOM     16  C   UNL A   1     -23.906  -3.173  29.146  0.00  0.00    -0.004 C 
ATOM     17  C   UNL A   1     -23.989  -4.549  28.853  0.00  0.00    -0.000 C 
ATOM     18  C   UNL A   1     -25.137  -5.280  29.205  0.00  0.00    -0.000 C 
ATOM     19  C   UNL A   1     -26.232  -4.611  29.784  0.00  0.00    -0.000 C 
ATOM     20  C   UNL A   1     -26.155  -3.232  30.065  0.00  0.00    -0.004 C 
ENDBRANCH  14  15
BRANCH  14  21
ATOM     21  C   UNL A   1     -25.387  -0.679  31.571  0.00  0.00    +0.077 C 
ATOM     22  C   UNL A   1     -25.189   0.773  32.028  0.00  0.00    +0.019 C 
ATOM     23  C   UNL A   1     -25.336   0.684  33.544  0.00  0.00    +0.020 C 
ATOM     24  C   UNL A   1     -24.829  -0.715  33.905  0.00  0.00    +0.089 C 
ATOM     25  N   UNL A   1     -24.758  -1.481  32.646  0.00  0.00    -0.219 NA
ENDBRANCH  14  21
ENDBRANCH  13  14
ENDBRANCH   1  11
BRANCH   2  26
ATOM     26  C   UNL A   1     -25.642   4.093  27.123  0.00  0.00    +0.266 C 
ATOM     27  N   UNL A   1     -25.614   5.252  26.449  0.00  0.00    -0.200 NA
ATOM     28  C   UNL A   1     -25.026   6.479  26.963  0.00  0.00    +0.139 C 
ATOM     29  O   UNL A   1     -25.143   3.966  28.243  0.00  0.00    -0.268 OA
ENDBRANCH   2  26
BRANCH   5  30
ATOM     30  O   UNL A   1     -28.193  -0.208  24.477  0.00  0.00    -0.456 OA
BRANCH  30  31
ATOM     31  C   UNL A   1     -29.460   0.005  23.866  0.00  0.00    +0.239 C 
BRANCH  31  32
ATOM     32  C   UNL A   1     -30.065  -1.377  23.573  0.00  0.00    +0.190 C 
BRANCH  32  33
ATOM     33  O   UNL A   1     -30.729  -1.878  24.721  0.00  0.00    -0.342 OA
BRANCH  33  34
ATOM     34  C   UNL A   1     -32.023  -1.313  25.064  0.00  0.00    +0.211 C 
BRANCH  34  37
ATOM     35  C   UNL A   1     -32.147  -0.120  27.438  0.00  0.00    +0.046 C 
ATOM     36  O   UNL A   1     -32.456  -2.834  26.910  0.00  0.00    -0.289 OA
ATOM     37  C   UNL A   1     -32.210  -1.507  26.584  0.00  0.00    +0.201 C 
BRANCH  35  38
ATOM     38  C   UNL A   1     -32.675  -0.059  28.792  0.00  0.00    +0.171 C 
BRANCH  38  39
ATOM     39  O   UNL A   1     -31.309  -0.468  28.679  0.00  0.00    -0.349 OA
BRANCH  39  40
ATOM     40  C   UNL A   1     -29.904  -0.136  28.298  0.00  0.00    +0.144 C 
BRANCH  40  44
ATOM     41  C   UNL A   1     -27.856  -0.153  29.767  0.00  0.00    +0.094 C 
ATOM     42  N   UNL A   1     -26.876   0.243  28.856  0.00  0.00    -0.133 NA
ATOM     43  C   UNL A   1     -28.910  -0.228  30.578  0.00  0.00    +0.023 C 
ATOM     44  C   UNL A   1     -29.122   0.509  29.314  0.00  0.00    +0.049 C 
ENDBRANCH  40  44
ENDBRANCH  39  40
ENDBRANCH  38  39
ENDBRANCH  35  38
ENDBRANCH  34  37
ENDBRANCH  33  34
ENDBRANCH  32  33
ENDBRANCH  31  32
ENDBRANCH  30  31
ENDBRANCH   5  30
TORSDOF 15
