MODEL 4504
MODEL 1
REMARK VINA RESULT:    -5.617      0.000      0.000
REMARK INTER + INTRA:          -5.617
REMARK INTER:                  -5.617
REMARK INTRA:                   0.000
REMARK UNBOUND:                 0.000
REMARK  Name = No_4504-gen_results/8p0m/2024-11-27-11-27-31/
REMARK  0 active torsions:
REMARK  status: ('A' for Active; 'I' for Inactive)
REMARK                            x       y       z     vdW  Elec       q    Type
REMARK                         _______ _______ _______ _____ _____    ______ ____
ROOT
ATOM      1  C   UNL A   1     -24.159  -0.269  29.748  0.00  0.00    +0.170 C 
ATOM      2  C   UNL A   1     -24.211   0.026  30.758  0.00  0.00    +0.033 C 
ATOM      3  C   UNL A   1     -22.920  -0.981  29.410  0.00  0.00    +0.265 C 
ATOM      4  O   UNL A   1     -21.993  -0.227  28.917  0.00  0.00    -0.271 OA
ATOM      5  N   UNL A   1     -23.003  -2.311  28.893  0.00  0.00    -0.176 NA
ATOM      6  C   UNL A   1     -24.024  -3.191  29.256  0.00  0.00    +0.088 A 
ATOM      7  C   UNL A   1     -24.158  -4.263  28.912  0.00  0.00    +0.018 A 
ATOM      8  C   UNL A   1     -25.374  -5.094  29.070  0.00  0.00    +0.001 A 
ATOM      9  C   UNL A   1     -26.442  -4.512  29.712  0.00  0.00    +0.001 A 
ATOM     10  C   UNL A   1     -26.333  -3.179  30.103  0.00  0.00    +0.017 A 
ATOM     11  C   UNL A   1     -25.212  -2.518  29.847  0.00  0.00    +0.081 A 
ATOM     12  N   UNL A   1     -25.196  -0.966  29.234  0.00  0.00    -0.229 NA
ENDROOT
TORSDOF 0
ENDMDL
ENDMDL
