REMARK  Name = No_4505-gen_results/8p0m/2024-11-27-11-27-31/
REMARK  3 active torsions:
REMARK  status: ('A' for Active; 'I' for Inactive)
REMARK    1  A    between atoms: C_2  and  C_3
REMARK    2  A    between atoms: N_4  and  C_8
REMARK    3  A    between atoms: C_8  and  C_9
REMARK                            x       y       z     vdW  Elec       q    Type
REMARK                         _______ _______ _______ _____ _____    ______ ____
ROOT
ATOM      1  O   UNL A   1     -28.123  -1.335  28.487  0.00  0.00    -0.264 OA
ATOM      2  C   UNL A   1     -27.481  -0.404  28.709  0.00  0.00    +0.337 C 
ATOM      3  N   UNL A   1     -27.899   0.646  29.632  0.00  0.00    -0.194 NA
ENDROOT
BRANCH   2   4
ATOM      4  C   UNL A   1     -26.380  -0.087  27.939  0.00  0.00    +0.471 C 
ATOM      5  F   UNL A   1     -26.563   0.281  26.804  0.00  0.00    -0.162 F 
ATOM      6  F   UNL A   1     -25.558   0.962  28.510  0.00  0.00    -0.162 F 
ATOM      7  F   UNL A   1     -25.317  -0.925  28.288  0.00  0.00    -0.162 F 
ENDBRANCH   2   4
BRANCH   3   8
ATOM      8  C   UNL A   1     -29.069   0.390  30.435  0.00  0.00    +0.142 C 
BRANCH   8   9
ATOM      9  C   UNL A   1     -30.256   0.397  29.764  0.00  0.00    -0.001 A 
ATOM     10  C   UNL A   1     -31.125   1.145  30.400  0.00  0.00    -0.003 A 
ATOM     11  C   UNL A   1     -32.353   1.497  29.739  0.00  0.00    -0.000 A 
ATOM     12  C   UNL A   1     -32.605   0.865  28.489  0.00  0.00    -0.000 A 
ATOM     13  C   UNL A   1     -31.660   0.042  27.890  0.00  0.00    -0.000 A 
ATOM     14  C   UNL A   1     -30.487  -0.107  28.505  0.00  0.00    -0.003 A 
ENDBRANCH   8   9
ENDBRANCH   3   8
TORSDOF 3
