MODEL 4505
MODEL 1
REMARK VINA RESULT:    -5.750      0.000      0.000
REMARK INTER + INTRA:          -6.997
REMARK INTER:                  -6.759
REMARK INTRA:                  -0.239
REMARK UNBOUND:                -0.239
REMARK  Name = No_4505-gen_results/8p0m/2024-11-27-11-27-31/
REMARK  3 active torsions:
REMARK  status: ('A' for Active; 'I' for Inactive)
REMARK    1  A    between atoms: C_2  and  C_3
REMARK    2  A    between atoms: N_4  and  C_8
REMARK    3  A    between atoms: C_8  and  C_9
REMARK                            x       y       z     vdW  Elec       q    Type
REMARK                         _______ _______ _______ _____ _____    ______ ____
ROOT
ATOM      1  O   UNL A   1     -11.809 -21.226  22.955  0.00  0.00    -0.264 OA
ATOM      2  C   UNL A   1     -10.950 -21.555  22.261  0.00  0.00    +0.337 C 
ATOM      3  N   UNL A   1     -11.168 -22.020  20.895  0.00  0.00    -0.194 NA
ENDROOT
BRANCH   2   4
ATOM      4  C   UNL A   1      -9.675 -21.767  22.744  0.00  0.00    +0.471 C 
ATOM      5  F   UNL A   1      -8.772 -21.113  22.281  0.00  0.00    -0.162 F 
ATOM      6  F   UNL A   1      -9.554 -21.553  24.173  0.00  0.00    -0.162 F 
ATOM      7  F   UNL A   1      -9.524 -23.118  23.070  0.00  0.00    -0.162 F 
ENDBRANCH   2   4
BRANCH   3   8
ATOM      8  C   UNL A   1     -12.493 -21.864  20.350  0.00  0.00    +0.142 C 
BRANCH   8   9
ATOM      9  C   UNL A   1     -12.572 -21.145  19.193  0.00  0.00    -0.001 A 
ATOM     10  C   UNL A   1     -13.534 -20.258  19.283  0.00  0.00    -0.003 A 
ATOM     11  C   UNL A   1     -13.624 -19.229  18.282  0.00  0.00    -0.000 A 
ATOM     12  C   UNL A   1     -12.747 -19.348  17.167  0.00  0.00    -0.000 A 
ATOM     13  C   UNL A   1     -11.779 -20.343  17.111  0.00  0.00    -0.000 A 
ATOM     14  C   UNL A   1     -11.669 -21.163  18.156  0.00  0.00    -0.003 A 
ENDBRANCH   8   9
ENDBRANCH   3   8
TORSDOF 3
ENDMDL
ENDMDL
