REMARK  Name = outputs/IAG933/test6/raw/output_4506_IAG933_linker_design_.xyz
REMARK  15 active torsions:
REMARK  status: ('A' for Active; 'I' for Inactive)
REMARK    1  A    between atoms: C_1  and  C_2
REMARK    2  A    between atoms: C_1  and  C_8
REMARK    3  A    between atoms: C_9  and  O_34
REMARK    4  A    between atoms: C_14  and  C_15
REMARK    5  A    between atoms: C_15  and  O_18
REMARK    6  A    between atoms: O_18  and  C_35
REMARK    7  A    between atoms: C_21  and  O_22
REMARK    8  A    between atoms: O_22  and  C_23
REMARK    9  A    between atoms: C_23  and  C_24
REMARK   10  A    between atoms: C_29  and  C_43
REMARK   11  A    between atoms: N_30  and  C_32
REMARK   12  A    between atoms: C_31  and  O_34
REMARK   13  A    between atoms: C_31  and  C_35
REMARK   14  A    between atoms: C_31  and  C_43
REMARK   15  A    between atoms: C_35  and  C_38
REMARK                            x       y       z     vdW  Elec       q    Type
REMARK                         _______ _______ _______ _____ _____    ______ ____
ROOT
ATOM      1  C   UNL A   1     -25.380   2.854  30.409  0.00  0.00    +0.225 C 
ENDROOT
BRANCH   1   3
ATOM      2  O   UNL A   1     -26.853   4.665  30.039  0.00  0.00    -0.284 OA
ATOM      3  C   UNL A   1     -26.303   3.985  30.939  0.00  0.00    +0.258 C 
BRANCH   3   4
ATOM      4  C   UNL A   1     -26.494   4.014  32.384  0.00  0.00    +0.303 C 
ATOM      5  N   UNL A   1     -26.373   5.177  33.141  0.00  0.00    -0.184 NA
ATOM      6  O   UNL A   1     -26.793   2.974  32.979  0.00  0.00    -0.265 OA
BRANCH   5   7
ATOM      7  C   UNL A   1     -25.515   6.414  33.223  0.00  0.00    +0.155 C 
ATOM      8  C   UNL A   1     -24.047   6.015  33.422  0.00  0.00    +0.041 C 
ATOM      9  N   UNL A   1     -25.684   7.230  32.062  0.00  0.00    -0.112 NA
ATOM     10  C   UNL A   1     -26.055   7.157  34.450  0.00  0.00    +0.041 C 
ENDBRANCH   5   7
ENDBRANCH   3   4
ENDBRANCH   1   3
BRANCH   1  11
ATOM     11  O   UNL A   1     -25.185   1.650  31.063  0.00  0.00    -0.346 OA
BRANCH  11  13
ATOM     12  C   UNL A   1     -25.387  -0.679  31.571  0.00  0.00    +0.104 C 
ATOM     13  C   UNL A   1     -25.189   0.773  32.028  0.00  0.00    +0.134 C 
ATOM     14  C   UNL A   1     -25.336   0.684  33.544  0.00  0.00    +0.050 C 
ATOM     15  C   UNL A   1     -24.829  -0.715  33.905  0.00  0.00    +0.091 C 
ATOM     16  N   UNL A   1     -24.758  -1.481  32.646  0.00  0.00    -0.217 NA
BRANCH  12  17
ATOM     17  C   UNL A   1     -24.855  -1.012  30.143  0.00  0.00    +0.046 C 
BRANCH  17  18
ATOM     18  C   UNL A   1     -24.973  -2.505  29.788  0.00  0.00    -0.021 C 
ATOM     19  C   UNL A   1     -23.906  -3.173  29.146  0.00  0.00    -0.004 C 
ATOM     20  C   UNL A   1     -23.989  -4.549  28.853  0.00  0.00    -0.000 C 
ATOM     21  C   UNL A   1     -25.137  -5.280  29.205  0.00  0.00    -0.000 C 
ATOM     22  C   UNL A   1     -26.232  -4.611  29.784  0.00  0.00    -0.000 C 
ATOM     23  C   UNL A   1     -26.155  -3.232  30.065  0.00  0.00    -0.004 C 
ENDBRANCH  17  18
ENDBRANCH  12  17
ENDBRANCH  11  13
ENDBRANCH   1  11
BRANCH   1  24
ATOM     24  C   UNL A   1     -24.755   3.009  29.118  0.00  0.00    +0.224 C 
BRANCH  24  25
ATOM     25  C   UNL A   1     -23.612   2.206  28.590  0.00  0.00    +0.020 C 
ATOM     26  C   UNL A   1     -21.629   0.749  28.536  0.00  0.00    -0.000 C 
ATOM     27  C   UNL A   1     -23.311   2.645  27.303  0.00  0.00    -0.001 C 
ATOM     28  C   UNL A   1     -21.311   1.275  27.266  0.00  0.00    -0.000 C 
ATOM     29  C   UNL A   1     -22.767   1.195  29.176  0.00  0.00    -0.001 C 
ATOM     30  C   UNL A   1     -22.181   2.180  26.649  0.00  0.00    -0.000 C 
ENDBRANCH  24  25
BRANCH  24  31
ATOM     31  O   UNL A   1     -25.143   3.966  28.243  0.00  0.00    -0.457 OA
BRANCH  31  32
ATOM     32  C   UNL A   1     -25.642   4.093  27.123  0.00  0.00    +0.222 C 
ATOM     33  N   UNL A   1     -25.614   5.252  26.449  0.00  0.00    -0.236 NA
ATOM     34  C   UNL A   1     -25.026   6.479  26.963  0.00  0.00    +0.155 C 
BRANCH  32  36
ATOM     35  C   UNL A   1     -25.688   1.614  26.461  0.00  0.00    +0.041 C 
ATOM     36  C   UNL A   1     -26.250   2.920  26.395  0.00  0.00    +0.074 C 
ATOM     37  C   UNL A   1     -27.438   3.091  25.645  0.00  0.00    +0.107 C 
ATOM     38  N   UNL A   1     -28.075   2.089  25.003  0.00  0.00    -0.208 NA
ATOM     39  C   UNL A   1     -27.543   0.849  25.079  0.00  0.00    +0.253 C 
ATOM     40  C   UNL A   1     -26.354   0.576  25.777  0.00  0.00    +0.193 C 
ATOM     41  F   UNL A   1     -25.860  -0.681  25.795  0.00  0.00    -0.199 F 
BRANCH  39  42
ATOM     42  O   UNL A   1     -28.193  -0.208  24.477  0.00  0.00    -0.456 OA
BRANCH  42  43
ATOM     43  C   UNL A   1     -29.460   0.005  23.866  0.00  0.00    +0.243 C 
BRANCH  43  44
ATOM     44  C   UNL A   1     -30.065  -1.377  23.573  0.00  0.00    +0.229 C 
ATOM     45  O   UNL A   1     -30.729  -1.878  24.721  0.00  0.00    -0.216 OA
ENDBRANCH  43  44
ENDBRANCH  42  43
ENDBRANCH  39  42
ENDBRANCH  32  36
ENDBRANCH  31  32
ENDBRANCH  24  31
ENDBRANCH   1  24
TORSDOF 15
