MODEL 4506
MODEL 1
REMARK VINA RESULT:    -5.584      0.000      0.000
REMARK INTER + INTRA:          -9.148
REMARK INTER:                  -7.868
REMARK INTRA:                  -1.280
REMARK UNBOUND:                -1.280
REMARK  Name = No_4506-gen_results/8p0m/2024-11-27-11-27-31/
REMARK  7 active torsions:
REMARK  status: ('A' for Active; 'I' for Inactive)
REMARK    1  A    between atoms: C_2  and  C_3
REMARK    2  A    between atoms: N_4  and  C_16
REMARK    3  A    between atoms: C_8  and  C_11
REMARK    4  A    between atoms: C_11  and  C_12
REMARK    5  A    between atoms: C_16  and  C_17
REMARK    6  A    between atoms: C_16  and  C_21
REMARK    7  A    between atoms: C_18  and  C_19
REMARK                            x       y       z     vdW  Elec       q    Type
REMARK                         _______ _______ _______ _____ _____    ______ ____
ROOT
ATOM      1  O   UNL A   1     -29.605 -12.395  13.188  0.00  0.00    -0.270 OA
ATOM      2  C   UNL A   1     -29.828 -12.702  12.100  0.00  0.00    +0.249 C 
ATOM      3  N   UNL A   1     -30.016 -14.101  11.671  0.00  0.00    -0.270 N 
ATOM      4  C   UNL A   1     -29.842 -15.118  12.679  0.00  0.00    +0.116 C 
ENDROOT
BRANCH   2   5
ATOM      5  C   UNL A   1     -30.081 -11.761  11.122  0.00  0.00    +0.053 A 
ATOM      6  C   UNL A   1     -31.289 -11.021  11.039  0.00  0.00    +0.004 A 
ATOM      7  C   UNL A   1     -31.496 -10.085   9.994  0.00  0.00    -0.000 A 
ATOM      8  C   UNL A   1     -30.411  -9.611   9.266  0.00  0.00    -0.004 A 
ATOM      9  C   UNL A   1     -29.159 -10.152   9.525  0.00  0.00    -0.012 A 
ATOM     10  C   UNL A   1     -28.944 -11.175  10.398  0.00  0.00    +0.001 A 
BRANCH   9  11
ATOM     11  C   UNL A   1     -27.962  -9.544   8.857  0.00  0.00    +0.126 C 
ATOM     12  C   UNL A   1     -26.702 -10.187   8.906  0.00  0.00    +0.017 C 
BRANCH  11  13
ATOM     13  C   UNL A   1     -27.974  -8.157   8.557  0.00  0.00    +0.368 C 
ATOM     14  O   UNL A   1     -27.574  -7.358   9.460  0.00  0.00    -0.245 OA
ATOM     15  O   UNL A   1     -28.068  -7.699   7.341  0.00  0.00    -0.245 OA
ENDBRANCH  11  13
ENDBRANCH   9  11
ENDBRANCH   2   5
BRANCH   3  16
ATOM     16  C   UNL A   1     -30.308 -14.500  10.363  0.00  0.00    +0.128 C 
BRANCH  16  17
ATOM     17  C   UNL A   1     -31.624 -14.328   9.875  0.00  0.00    +0.174 C 
ATOM     18  C   UNL A   1     -32.228 -15.021   8.708  0.00  0.00    +0.038 C 
ATOM     19  O   UNL A   1     -32.169 -15.358  10.459  0.00  0.00    -0.221 OA
ENDBRANCH  16  17
BRANCH  16  20
ATOM     20  C   UNL A   1     -29.431 -15.480   9.885  0.00  0.00    -0.004 C 
ATOM     21  C   UNL A   1     -28.834 -15.144   8.801  0.00  0.00    +0.000 C 
BRANCH  21  22
ATOM     22  C   UNL A   1     -28.521 -13.770   8.410  0.00  0.00    +0.037 C 
ATOM     23  C   UNL A   1     -28.394 -13.600   6.974  0.00  0.00    +0.174 C 
ATOM     24  O   UNL A   1     -28.636 -12.240   6.704  0.00  0.00    -0.291 OA
ATOM     25  C   UNL A   1     -26.691 -13.608   6.811  0.00  0.00    +0.077 C 
ENDBRANCH  21  22
ENDBRANCH  16  20
ENDBRANCH   3  16
TORSDOF 7
ENDMDL
ENDMDL
