MODEL 4507
MODEL 1
REMARK VINA RESULT:    -5.648      0.000      0.000
REMARK INTER + INTRA:          -7.276
REMARK INTER:                  -6.638
REMARK INTRA:                  -0.638
REMARK UNBOUND:                -0.638
REMARK  Name = No_4507-gen_results/8p0m/2024-11-27-11-27-31/
REMARK  3 active torsions:
REMARK  status: ('A' for Active; 'I' for Inactive)
REMARK    1  A    between atoms: C_3  and  C_7
REMARK    2  A    between atoms: C_7  and  C_8
REMARK    3  A    between atoms: C_7  and  C_9
REMARK                            x       y       z     vdW  Elec       q    Type
REMARK                         _______ _______ _______ _____ _____    ______ ____
ROOT
ATOM      1  C   UNL A   1     -23.838  -3.979  28.540  0.00  0.00    -0.004 A 
ATOM      2  C   UNL A   1     -24.292  -4.901  28.773  0.00  0.00    -0.000 A 
ATOM      3  C   UNL A   1     -24.593  -2.816  29.024  0.00  0.00    -0.014 A 
ATOM      4  C   UNL A   1     -25.818  -2.921  29.538  0.00  0.00    -0.004 A 
ATOM      5  C   UNL A   1     -25.590  -5.258  29.292  0.00  0.00    -0.000 A 
ATOM      6  C   UNL A   1     -26.286  -4.164  29.713  0.00  0.00    -0.000 A 
ENDROOT
BRANCH   3   7
ATOM      7  C   UNL A   1     -23.937  -1.453  28.814  0.00  0.00    +0.066 C 
BRANCH   7   8
ATOM      8  C   UNL A   1     -22.906  -1.124  29.175  0.00  0.00    -0.022 C 
ATOM      9  C   UNL A   1     -22.588  -0.678  30.484  0.00  0.00    -0.030 C 
ATOM     10  C   UNL A   1     -23.655  -0.474  31.389  0.00  0.00    +0.030 C 
ENDBRANCH   7   8
BRANCH   7  11
ATOM     11  C   UNL A   1     -24.760  -0.478  28.036  0.00  0.00    -0.018 C 
ATOM     12  C   UNL A   1     -24.295   0.380  27.075  0.00  0.00    -0.004 C 
ENDBRANCH   7  11
ENDBRANCH   3   7
TORSDOF 3
ENDMDL
ENDMDL
