REMARK  Name = No_4508-gen_results/8p0m/2024-11-27-11-27-31/
REMARK  1 active torsions:
REMARK  status: ('A' for Active; 'I' for Inactive)
REMARK    1  A    between atoms: C_3  and  C_4
REMARK                            x       y       z     vdW  Elec       q    Type
REMARK                         _______ _______ _______ _____ _____    ______ ____
ROOT
ATOM      1  C   UNL A   1     -28.016  -0.814  28.878  0.00  0.00    +0.041 A 
ATOM      2  C   UNL A   1     -27.064  -0.119  28.608  0.00  0.00    +0.003 A 
ATOM      3  C   UNL A   1     -25.765  -0.390  29.036  0.00  0.00    +0.000 A 
ATOM      4  C   UNL A   1     -27.829  -1.929  29.855  0.00  0.00    +0.056 A 
ATOM      5  C   UNL A   1     -26.588  -2.327  30.268  0.00  0.00    +0.005 A 
ATOM      6  C   UNL A   1     -25.456  -1.543  29.915  0.00  0.00    +0.000 A 
ATOM      7  C   UNL A   1     -28.982  -2.775  30.259  0.00  0.00    +0.249 C 
ATOM      8  N   UNL A   1     -30.145  -2.290  30.292  0.00  0.00    -0.271 N 
ATOM      9  O   UNL A   1     -28.779  -3.955  30.677  0.00  0.00    -0.270 OA
ATOM     10  C   UNL A   1     -31.333  -3.066  30.676  0.00  0.00    +0.094 C 
ATOM     11  C   UNL A   1     -32.396  -2.724  30.061  0.00  0.00    +0.022 C 
ATOM     12  C   UNL A   1     -32.407  -1.641  29.464  0.00  0.00    +0.004 C 
ATOM     13  C   UNL A   1     -31.404  -0.765  29.090  0.00  0.00    +0.028 C 
ATOM     14  C   UNL A   1     -30.319  -1.182  29.469  0.00  0.00    +0.137 C 
ATOM     15  C   UNL A   1     -29.145  -0.543  28.962  0.00  0.00    +0.191 C 
ATOM     16  O   UNL A   1     -29.480   0.641  28.251  0.00  0.00    -0.290 OA
ENDROOT
BRANCH   3  17
ATOM     17  C   UNL A   1     -24.552   0.406  28.765  0.00  0.00    +0.002 A 
ATOM     18  C   UNL A   1     -23.230   0.118  29.258  0.00  0.00    +0.000 A 
ATOM     19  C   UNL A   1     -22.139   0.943  28.922  0.00  0.00    +0.002 A 
ATOM     20  C   UNL A   1     -22.230   1.909  27.872  0.00  0.00    +0.030 A 
ATOM     21  C   UNL A   1     -24.554   1.470  27.762  0.00  0.00    +0.030 A 
ATOM     22  C   UNL A   1     -23.447   2.167  27.376  0.00  0.00    +0.140 A 
ATOM     23  F   UNL A   1     -23.616   3.072  26.422  0.00  0.00    -0.204 F 
ENDBRANCH   3  17
TORSDOF 1
