MODEL 4508
MODEL 1
REMARK VINA RESULT:    -7.602      0.000      0.000
REMARK INTER + INTRA:          -8.432
REMARK INTER:                  -8.046
REMARK INTRA:                  -0.386
REMARK UNBOUND:                -0.386
REMARK  Name = No_4508-gen_results/8p0m/2024-11-27-11-27-31/
REMARK  1 active torsions:
REMARK  status: ('A' for Active; 'I' for Inactive)
REMARK    1  A    between atoms: C_3  and  C_4
REMARK                            x       y       z     vdW  Elec       q    Type
REMARK                         _______ _______ _______ _____ _____    ______ ____
ROOT
ATOM      1  C   UNL A   1      -6.129   0.048  10.241  0.00  0.00    +0.041 A 
ATOM      2  C   UNL A   1      -6.802   0.827  10.875  0.00  0.00    +0.003 A 
ATOM      3  C   UNL A   1      -7.858   1.556  10.329  0.00  0.00    +0.000 A 
ATOM      4  C   UNL A   1      -6.325  -0.021   8.761  0.00  0.00    +0.056 A 
ATOM      5  C   UNL A   1      -7.381   0.587   8.143  0.00  0.00    +0.005 A 
ATOM      6  C   UNL A   1      -8.208   1.468   8.892  0.00  0.00    +0.000 A 
ATOM      7  C   UNL A   1      -5.483  -0.924   7.933  0.00  0.00    +0.249 C 
ATOM      8  N   UNL A   1      -4.299  -1.183   8.279  0.00  0.00    -0.271 N 
ATOM      9  O   UNL A   1      -5.921  -1.346   6.820  0.00  0.00    -0.270 OA
ATOM     10  C   UNL A   1      -3.410  -2.070   7.515  0.00  0.00    +0.094 C 
ATOM     11  C   UNL A   1      -2.600  -2.739   8.237  0.00  0.00    +0.022 C 
ATOM     12  C   UNL A   1      -2.428  -2.385   9.410  0.00  0.00    +0.004 C 
ATOM     13  C   UNL A   1      -3.119  -1.522  10.241  0.00  0.00    +0.028 C 
ATOM     14  C   UNL A   1      -4.060  -1.024   9.641  0.00  0.00    +0.137 C 
ATOM     15  C   UNL A   1      -5.031  -0.303  10.403  0.00  0.00    +0.191 C 
ATOM     16  O   UNL A   1      -4.586  -0.113  11.739  0.00  0.00    -0.290 OA
ENDROOT
BRANCH   3  17
ATOM     17  C   UNL A   1      -8.720   2.533  11.023  0.00  0.00    +0.002 A 
ATOM     18  C   UNL A   1      -8.960   3.889  10.604  0.00  0.00    +0.000 A 
ATOM     19  C   UNL A   1      -9.816   4.731  11.339  0.00  0.00    +0.002 A 
ATOM     20  C   UNL A   1     -10.693   4.211  12.342  0.00  0.00    +0.030 A 
ATOM     21  C   UNL A   1      -9.602   2.122  12.114  0.00  0.00    +0.030 A 
ATOM     22  C   UNL A   1     -10.508   2.940  12.723  0.00  0.00    +0.140 A 
ATOM     23  F   UNL A   1     -11.261   2.396  13.669  0.00  0.00    -0.204 F 
ENDBRANCH   3  17
TORSDOF 1
ENDMDL
ENDMDL
