MODEL 4509
MODEL 1
REMARK VINA RESULT:    -4.932      0.000      0.000
REMARK INTER + INTRA:          -5.273
REMARK INTER:                  -5.220
REMARK INTRA:                  -0.052
REMARK UNBOUND:                -0.052
REMARK  Name = No_4509-gen_results/8p0m/2024-11-27-11-27-31/
REMARK  1 active torsions:
REMARK  status: ('A' for Active; 'I' for Inactive)
REMARK    1  A    between atoms: C_2  and  C_7
REMARK                            x       y       z     vdW  Elec       q    Type
REMARK                         _______ _______ _______ _____ _____    ______ ____
ROOT
ATOM      1  C   UNL A   1     -25.712  -2.522  29.495  0.00  0.00    -0.000 A 
ATOM      2  C   UNL A   1     -24.587  -2.574  29.056  0.00  0.00    -0.000 A 
ATOM      3  C   UNL A   1     -23.986  -3.793  28.763  0.00  0.00    -0.000 A 
ATOM      4  C   UNL A   1     -24.669  -5.036  29.018  0.00  0.00    -0.000 A 
ATOM      5  C   UNL A   1     -25.956  -4.884  29.549  0.00  0.00    -0.000 A 
ATOM      6  C   UNL A   1     -26.473  -3.708  29.823  0.00  0.00    -0.000 A 
ENDROOT
BRANCH   2   7
ATOM      7  C   UNL A   1     -23.727  -1.397  28.757  0.00  0.00    -0.005 C 
ATOM      8  C   UNL A   1     -22.898  -0.898  29.605  0.00  0.00    -0.026 C 
ATOM      9  C   UNL A   1     -23.239  -1.025  31.085  0.00  0.00    +0.031 C 
ENDBRANCH   2   7
TORSDOF 1
ENDMDL
ENDMDL
