REMARK  Name = outputs/IAG933/test6/raw/output_4509_IAG933_linker_design_.xyz
REMARK  8 active torsions:
REMARK  status: ('A' for Active; 'I' for Inactive)
REMARK    1  A    between atoms: C_1  and  C_2
REMARK    2  A    between atoms: C_1  and  C_8
REMARK    3  A    between atoms: C_1  and  C_30
REMARK    4  A    between atoms: C_21  and  O_22
REMARK    5  A    between atoms: O_22  and  C_23
REMARK    6  A    between atoms: C_23  and  C_24
REMARK    7  A    between atoms: C_30  and  C_38
REMARK    8  A    between atoms: C_40  and  C_42
REMARK                            x       y       z     vdW  Elec       q    Type
REMARK                         _______ _______ _______ _____ _____    ______ ____
ROOT
ATOM      1  C   UNL A   1     -25.688   1.614  26.461  0.00  0.00    +0.092 C 
ATOM      2  C   UNL A   1     -26.250   2.920  26.395  0.00  0.00    +0.057 C 
ATOM      3  C   UNL A   1     -25.642   4.093  27.123  0.00  0.00    +0.222 C 
ATOM      4  N   UNL A   1     -25.614   5.252  26.449  0.00  0.00    -0.236 NA
ATOM      5  C   UNL A   1     -25.026   6.479  26.963  0.00  0.00    +0.155 C 
ATOM      6  O   UNL A   1     -25.143   3.966  28.243  0.00  0.00    -0.421 OA
ATOM      7  C   UNL A   1     -27.438   3.091  25.645  0.00  0.00    +0.102 C 
ATOM      8  N   UNL A   1     -28.075   2.089  25.003  0.00  0.00    -0.212 NA
ATOM      9  C   UNL A   1     -27.543   0.849  25.079  0.00  0.00    +0.234 C 
ATOM     10  C   UNL A   1     -26.354   0.576  25.777  0.00  0.00    +0.244 C 
ATOM     11  F   UNL A   1     -25.860  -0.681  25.795  0.00  0.00    -0.227 F 
ATOM     12  C   UNL A   1     -24.235   1.661  26.599  0.00  0.00    -0.015 C 
ATOM     13  C   UNL A   1     -21.841   1.831  26.070  0.00  0.00    +0.002 C 
ATOM     14  N   UNL A   1     -25.175   2.339  29.807  0.00  0.00    -0.138 NA
ATOM     15  C   UNL A   1     -21.519   1.488  27.399  0.00  0.00    +0.029 C 
ATOM     16  O   UNL A   1     -27.340   3.727  29.456  0.00  0.00    -0.154 OA
ATOM     17  C   UNL A   1     -22.570   1.232  28.283  0.00  0.00    +0.138 C 
ATOM     18  C   UNL A   1     -24.986   1.202  28.870  0.00  0.00    +0.161 C 
ATOM     19  C   UNL A   1     -23.931   1.401  27.931  0.00  0.00    +0.025 C 
ATOM     20  C   UNL A   1     -25.986   3.572  29.379  0.00  0.00    +0.401 C 
ATOM     21  C   UNL A   1     -23.188   1.936  25.638  0.00  0.00    -0.004 C 
ATOM     22  F   UNL A   1     -22.303   0.659  29.450  0.00  0.00    -0.204 F 
ENDROOT
BRANCH  20  25
ATOM     23  O   UNL A   1     -25.458   5.072  31.364  0.00  0.00    -0.263 OA
ATOM     24  N   UNL A   1     -26.690   5.927  29.782  0.00  0.00    -0.081 NA
ATOM     25  C   UNL A   1     -26.064   4.870  30.270  0.00  0.00    +0.345 C 
ENDBRANCH  20  25
BRANCH  18  26
ATOM     26  C   UNL A   1     -25.622  -0.135  29.171  0.00  0.00    +0.176 C 
ATOM     27  O   UNL A   1     -26.615  -0.418  28.578  0.00  0.00    -0.294 OA
BRANCH  26  28
ATOM     28  C   UNL A   1     -24.855  -1.012  30.143  0.00  0.00    +0.098 C 
BRANCH  28  29
ATOM     29  C   UNL A   1     -24.973  -2.505  29.788  0.00  0.00    -0.014 C 
ATOM     30  C   UNL A   1     -23.906  -3.173  29.146  0.00  0.00    -0.004 C 
ATOM     31  C   UNL A   1     -23.989  -4.549  28.853  0.00  0.00    -0.000 C 
ATOM     32  C   UNL A   1     -25.137  -5.280  29.205  0.00  0.00    -0.000 C 
ATOM     33  C   UNL A   1     -26.232  -4.611  29.784  0.00  0.00    -0.000 C 
ATOM     34  C   UNL A   1     -26.155  -3.232  30.065  0.00  0.00    -0.004 C 
ENDBRANCH  28  29
BRANCH  28  35
ATOM     35  C   UNL A   1     -25.387  -0.679  31.571  0.00  0.00    +0.084 C 
ATOM     36  C   UNL A   1     -25.189   0.773  32.028  0.00  0.00    +0.020 C 
ATOM     37  C   UNL A   1     -25.336   0.684  33.544  0.00  0.00    +0.020 C 
ATOM     38  C   UNL A   1     -24.829  -0.715  33.905  0.00  0.00    +0.089 C 
ATOM     39  N   UNL A   1     -24.758  -1.481  32.646  0.00  0.00    -0.219 NA
ENDBRANCH  28  35
ENDBRANCH  26  28
ENDBRANCH  18  26
BRANCH   9  40
ATOM     40  O   UNL A   1     -28.193  -0.208  24.477  0.00  0.00    -0.459 OA
BRANCH  40  41
ATOM     41  C   UNL A   1     -29.460   0.005  23.866  0.00  0.00    +0.242 C 
BRANCH  41  42
ATOM     42  C   UNL A   1     -30.065  -1.377  23.573  0.00  0.00    +0.229 C 
ATOM     43  O   UNL A   1     -30.729  -1.878  24.721  0.00  0.00    -0.216 OA
ENDBRANCH  41  42
ENDBRANCH  40  41
ENDBRANCH   9  40
TORSDOF 8
