MODEL 450
MODEL 1
REMARK VINA RESULT:    -4.280      0.000      0.000
REMARK INTER + INTRA:          -4.280
REMARK INTER:                  -4.280
REMARK INTRA:                   0.000
REMARK UNBOUND:                 0.000
REMARK  Name = No_450-gen_results/8p0m/2024-11-27-11-27-31/
REMARK  0 active torsions:
REMARK  status: ('A' for Active; 'I' for Inactive)
REMARK                            x       y       z     vdW  Elec       q    Type
REMARK                         _______ _______ _______ _____ _____    ______ ____
ROOT
ATOM      1  C   UNL A   1     -26.068  -4.839  29.656  0.00  0.00    +0.000 A 
ATOM      2  C   UNL A   1     -26.201  -3.639  29.715  0.00  0.00    +0.000 A 
ATOM      3  C   UNL A   1     -25.230  -2.741  29.316  0.00  0.00    +0.000 A 
ATOM      4  C   UNL A   1     -24.024  -3.262  28.769  0.00  0.00    +0.000 A 
ATOM      5  C   UNL A   1     -23.992  -4.600  28.566  0.00  0.00    +0.000 A 
ATOM      6  C   UNL A   1     -24.987  -5.380  28.943  0.00  0.00    +0.000 A 
ENDROOT
TORSDOF 0
ENDMDL
ENDMDL
