MODEL 4510
MODEL 1
REMARK VINA RESULT:    -7.378      0.000      0.000
REMARK INTER + INTRA:          -8.711
REMARK INTER:                  -8.240
REMARK INTRA:                  -0.470
REMARK UNBOUND:                -0.470
REMARK  Name = No_4510-gen_results/8p0m/2024-11-27-11-27-31/
REMARK  2 active torsions:
REMARK  status: ('A' for Active; 'I' for Inactive)
REMARK    1  A    between atoms: C_3  and  C_7
REMARK    2  A    between atoms: C_5  and  C_14
REMARK                            x       y       z     vdW  Elec       q    Type
REMARK                         _______ _______ _______ _____ _____    ______ ____
ROOT
ATOM      1  C   UNL A   1     -24.674  -5.009  28.904  0.00  0.00    +0.000 A 
ATOM      2  C   UNL A   1     -23.964  -4.035  28.811  0.00  0.00    +0.000 A 
ATOM      3  C   UNL A   1     -24.357  -2.734  29.076  0.00  0.00    +0.000 A 
ATOM      4  C   UNL A   1     -25.698  -2.540  29.522  0.00  0.00    +0.005 A 
ATOM      5  C   UNL A   1     -26.414  -3.649  29.770  0.00  0.00    +0.055 A 
ATOM      6  C   UNL A   1     -25.944  -4.840  29.531  0.00  0.00    +0.005 A 
ENDROOT
BRANCH   3   7
ATOM      7  C   UNL A   1     -23.478  -1.540  28.809  0.00  0.00    +0.003 A 
ATOM      8  C   UNL A   1     -22.442  -1.187  29.253  0.00  0.00    +0.000 A 
ATOM      9  C   UNL A   1     -21.708   0.038  28.871  0.00  0.00    +0.003 A 
ATOM     10  C   UNL A   1     -22.368   0.956  28.030  0.00  0.00    +0.042 A 
ATOM     11  C   UNL A   1     -23.692   0.674  27.647  0.00  0.00    +0.196 A 
ATOM     12  C   UNL A   1     -24.291  -0.524  27.975  0.00  0.00    +0.042 A 
ATOM     13  O   UNL A   1     -24.263   1.605  26.852  0.00  0.00    -0.287 OA
ENDBRANCH   3   7
BRANCH   5  14
ATOM     14  C   UNL A   1     -27.753  -3.672  30.384  0.00  0.00    +0.265 C 
ATOM     15  O   UNL A   1     -28.502  -2.783  30.184  0.00  0.00    -0.268 OA
ATOM     16  N   UNL A   1     -28.310  -4.851  30.773  0.00  0.00    -0.200 NA
ATOM     17  C   UNL A   1     -29.169  -5.130  31.215  0.00  0.00    +0.139 C 
ENDBRANCH   5  14
TORSDOF 2
ENDMDL
ENDMDL
