REMARK  Name = outputs/IAG933/test6/raw/output_4510_IAG933_linker_design_.xyz
REMARK  16 active torsions:
REMARK  status: ('A' for Active; 'I' for Inactive)
REMARK    1  A    between atoms: C_1  and  C_2
REMARK    2  A    between atoms: C_1  and  C_8
REMARK    3  A    between atoms: C_1  and  N_41
REMARK    4  A    between atoms: C_13  and  O_31
REMARK    5  A    between atoms: C_14  and  C_15
REMARK    6  A    between atoms: C_21  and  O_22
REMARK    7  A    between atoms: O_22  and  C_23
REMARK    8  A    between atoms: C_23  and  C_24
REMARK    9  A    between atoms: O_30  and  C_37
REMARK   10  A    between atoms: O_31  and  C_42
REMARK   11  A    between atoms: C_33  and  O_44
REMARK   12  A    between atoms: C_34  and  O_35
REMARK   13  A    between atoms: C_34  and  C_42
REMARK   14  A    between atoms: C_39  and  C_40
REMARK   15  A    between atoms: C_39  and  N_41
REMARK   16  A    between atoms: N_41  and  C_42
REMARK                            x       y       z     vdW  Elec       q    Type
REMARK                         _______ _______ _______ _____ _____    ______ ____
ROOT
ATOM      1  N   UNL A   1     -25.707  -0.176  29.237  0.00  0.00    -0.230 NA
ENDROOT
BRANCH   1   2
ATOM      2  C   UNL A   1     -24.855  -1.012  30.143  0.00  0.00    +0.099 C 
BRANCH   2   3
ATOM      3  C   UNL A   1     -24.973  -2.505  29.788  0.00  0.00    -0.006 C 
ATOM      4  C   UNL A   1     -23.906  -3.173  29.146  0.00  0.00    -0.003 C 
ATOM      5  C   UNL A   1     -23.989  -4.549  28.853  0.00  0.00    -0.000 C 
ATOM      6  C   UNL A   1     -25.137  -5.280  29.205  0.00  0.00    -0.000 C 
ATOM      7  C   UNL A   1     -26.232  -4.611  29.784  0.00  0.00    -0.000 C 
ATOM      8  C   UNL A   1     -26.155  -3.232  30.065  0.00  0.00    -0.003 C 
ENDBRANCH   2   3
BRANCH   2   9
ATOM      9  C   UNL A   1     -25.387  -0.679  31.571  0.00  0.00    +0.092 C 
ATOM     10  C   UNL A   1     -25.189   0.773  32.028  0.00  0.00    +0.021 C 
ATOM     11  C   UNL A   1     -25.336   0.684  33.544  0.00  0.00    +0.020 C 
ATOM     12  C   UNL A   1     -24.829  -0.715  33.905  0.00  0.00    +0.089 C 
ATOM     13  N   UNL A   1     -24.758  -1.481  32.646  0.00  0.00    -0.218 NA
ENDBRANCH   2   9
ENDBRANCH   1   2
BRANCH   1  14
ATOM     14  C   UNL A   1     -27.228  -0.282  28.692  0.00  0.00    +0.105 C 
BRANCH  14  19
ATOM     15  C   UNL A   1     -29.476   0.699  27.763  0.00  0.00    +0.037 C 
ATOM     16  C   UNL A   1     -30.608   1.558  27.894  0.00  0.00    +0.139 C 
ATOM     17  C   UNL A   1     -28.919   1.343  30.086  0.00  0.00    +0.136 C 
ATOM     18  C   UNL A   1     -30.723   2.507  28.948  0.00  0.00    +0.040 C 
ATOM     19  C   UNL A   1     -28.558   0.621  28.801  0.00  0.00    +0.031 C 
ATOM     20  C   UNL A   1     -29.859   2.379  30.016  0.00  0.00    +0.040 C 
BRANCH  17  22
ATOM     21  C   UNL A   1     -28.940   1.490  32.385  0.00  0.00    +0.253 C 
ATOM     22  O   UNL A   1     -28.416   0.876  31.228  0.00  0.00    -0.472 OA
ENDBRANCH  17  22
BRANCH  16  24
ATOM     23  C   UNL A   1     -32.413   0.178  27.165  0.00  0.00    +0.253 C 
ATOM     24  O   UNL A   1     -31.660   1.438  26.947  0.00  0.00    -0.471 OA
ENDBRANCH  16  24
ENDBRANCH  14  19
ENDBRANCH   1  14
BRANCH   1  25
ATOM     25  C   UNL A   1     -24.702   0.744  28.602  0.00  0.00    +0.259 C 
BRANCH  25  26
ATOM     26  O   UNL A   1     -24.602   1.283  27.231  0.00  0.00    -0.458 OA
BRANCH  26  27
ATOM     27  C   UNL A   1     -25.688   1.614  26.461  0.00  0.00    +0.178 C 
ATOM     28  C   UNL A   1     -26.250   2.920  26.395  0.00  0.00    +0.111 C 
ATOM     29  C   UNL A   1     -27.438   3.091  25.645  0.00  0.00    +0.110 C 
ATOM     30  N   UNL A   1     -28.075   2.089  25.003  0.00  0.00    -0.208 NA
ATOM     31  C   UNL A   1     -27.543   0.849  25.079  0.00  0.00    +0.256 C 
ATOM     32  C   UNL A   1     -26.354   0.576  25.777  0.00  0.00    +0.227 C 
ATOM     33  F   UNL A   1     -25.860  -0.681  25.795  0.00  0.00    -0.196 F 
BRANCH  28  34
ATOM     34  C   UNL A   1     -25.642   4.093  27.123  0.00  0.00    +0.269 C 
ATOM     35  N   UNL A   1     -25.614   5.252  26.449  0.00  0.00    -0.200 NA
ATOM     36  C   UNL A   1     -25.026   6.479  26.963  0.00  0.00    +0.139 C 
ATOM     37  O   UNL A   1     -25.143   3.966  28.243  0.00  0.00    -0.268 OA
ENDBRANCH  28  34
BRANCH  31  38
ATOM     38  O   UNL A   1     -28.193  -0.208  24.477  0.00  0.00    -0.456 OA
BRANCH  38  39
ATOM     39  C   UNL A   1     -29.460   0.005  23.866  0.00  0.00    +0.243 C 
BRANCH  39  40
ATOM     40  C   UNL A   1     -30.065  -1.377  23.573  0.00  0.00    +0.229 C 
ATOM     41  O   UNL A   1     -30.729  -1.878  24.721  0.00  0.00    -0.216 OA
ENDBRANCH  39  40
ENDBRANCH  38  39
ENDBRANCH  31  38
ENDBRANCH  26  27
ENDBRANCH  25  26
BRANCH  25  42
ATOM     42  C   UNL A   1     -23.225   0.573  28.903  0.00  0.00    +0.203 C 
BRANCH  42  44
ATOM     43  C   UNL A   1     -21.358   1.490  27.507  0.00  0.00    +0.174 C 
ATOM     44  O   UNL A   1     -22.513   1.657  28.296  0.00  0.00    -0.346 OA
ENDBRANCH  42  44
ENDBRANCH  25  42
ENDBRANCH   1  25
TORSDOF 16
