MODEL 4511
MODEL 1
REMARK VINA RESULT:    -4.989      0.000      0.000
REMARK INTER + INTRA:          -5.431
REMARK INTER:                  -5.281
REMARK INTRA:                  -0.150
REMARK UNBOUND:                -0.150
REMARK  Name = No_4511-gen_results/8p0m/2024-11-27-11-27-31/
REMARK  1 active torsions:
REMARK  status: ('A' for Active; 'I' for Inactive)
REMARK    1  A    between atoms: C_5  and  C_8
REMARK                            x       y       z     vdW  Elec       q    Type
REMARK                         _______ _______ _______ _____ _____    ______ ____
ROOT
ATOM      1  F   UNL A   1     -21.915  -0.653  30.098  0.00  0.00    -0.204 F 
ATOM      2  C   UNL A   1     -22.217  -0.047  29.063  0.00  0.00    +0.140 A 
ATOM      3  C   UNL A   1     -23.343  -0.014  28.649  0.00  0.00    +0.030 A 
ATOM      4  C   UNL A   1     -23.867   0.700  27.491  0.00  0.00    +0.006 A 
ATOM      5  C   UNL A   1     -22.839   1.467  26.786  0.00  0.00    +0.072 A 
ATOM      6  C   UNL A   1     -21.557   1.452  27.319  0.00  0.00    +0.006 A 
ATOM      7  C   UNL A   1     -21.215   0.746  28.412  0.00  0.00    +0.030 A 
ENDROOT
BRANCH   5   8
ATOM      8  C   UNL A   1     -23.215   2.203  25.608  0.00  0.00    +0.419 C 
ATOM      9  F   UNL A   1     -23.666   3.323  25.818  0.00  0.00    -0.166 F 
ATOM     10  F   UNL A   1     -22.163   2.442  24.759  0.00  0.00    -0.166 F 
ATOM     11  F   UNL A   1     -24.054   1.456  24.859  0.00  0.00    -0.166 F 
ENDBRANCH   5   8
TORSDOF 1
ENDMDL
ENDMDL
