MODEL 4512
MODEL 1
REMARK VINA RESULT:    -4.593      0.000      0.000
REMARK INTER + INTRA:          -4.593
REMARK INTER:                  -4.593
REMARK INTRA:                   0.000
REMARK UNBOUND:                 0.000
REMARK  Name = No_4512-gen_results/8p0m/2024-11-27-11-27-31/
REMARK  0 active torsions:
REMARK  status: ('A' for Active; 'I' for Inactive)
REMARK                            x       y       z     vdW  Elec       q    Type
REMARK                         _______ _______ _______ _____ _____    ______ ____
ROOT
ATOM      1  C   UNL A   1     -10.157  -9.730  18.351  0.00  0.00    +0.030 A 
ATOM      2  C   UNL A   1      -9.165 -10.342  18.027  0.00  0.00    +0.140 A 
ATOM      3  C   UNL A   1      -8.050 -10.440  18.794  0.00  0.00    +0.030 A 
ATOM      4  C   UNL A   1      -8.039  -9.791  20.044  0.00  0.00    +0.002 A 
ATOM      5  C   UNL A   1     -10.251  -9.123  19.655  0.00  0.00    +0.002 A 
ATOM      6  C   UNL A   1      -9.147  -9.168  20.452  0.00  0.00    +0.000 A 
ATOM      7  F   UNL A   1      -9.102 -10.992  16.836  0.00  0.00    -0.204 F 
ENDROOT
TORSDOF 0
ENDMDL
ENDMDL
