REMARK  Name = outputs/IAG933/test6/raw/output_4513_IAG933_linker_design_.xyz
REMARK  14 active torsions:
REMARK  status: ('A' for Active; 'I' for Inactive)
REMARK    1  A    between atoms: C_1  and  C_2
REMARK    2  A    between atoms: C_1  and  C_8
REMARK    3  A    between atoms: C_1  and  N_31
REMARK    4  A    between atoms: C_13  and  C_40
REMARK    5  A    between atoms: C_14  and  C_15
REMARK    6  A    between atoms: C_21  and  O_22
REMARK    7  A    between atoms: O_22  and  C_23
REMARK    8  A    between atoms: C_23  and  C_24
REMARK    9  A    between atoms: C_29  and  C_41
REMARK   10  A    between atoms: C_30  and  C_41
REMARK   11  A    between atoms: N_31  and  C_34
REMARK   12  A    between atoms: N_31  and  C_45
REMARK   13  A    between atoms: C_37  and  P_39
REMARK   14  A    between atoms: C_37  and  C_41
REMARK                            x       y       z     vdW  Elec       q    Type
REMARK                         _______ _______ _______ _____ _____    ______ ____
ROOT
ATOM      1  N   UNL A   1     -25.281  -0.135  28.979  0.00  0.00    -0.277 N 
ENDROOT
BRANCH   1   8
ATOM      2  C   UNL A   1     -22.309   1.430  27.440  0.00  0.00    +0.153 C 
ATOM      3  C   UNL A   1     -23.259   1.752  26.506  0.00  0.00    +0.029 C 
ATOM      4  F   UNL A   1     -20.987   1.827  27.351  0.00  0.00    -0.206 F 
ATOM      5  C   UNL A   1     -24.537   1.321  27.029  0.00  0.00    +0.017 C 
ATOM      6  O   UNL A   1     -22.363   0.155  29.494  0.00  0.00    -0.209 OA
ATOM      7  C   UNL A   1     -22.975   0.660  28.471  0.00  0.00    +0.237 C 
ATOM      8  C   UNL A   1     -24.357   0.544  28.179  0.00  0.00    +0.067 C 
BRANCH   5   9
ATOM      9  C   UNL A   1     -25.688   1.614  26.461  0.00  0.00    +0.039 C 
ATOM     10  C   UNL A   1     -26.250   2.920  26.395  0.00  0.00    +0.077 C 
ATOM     11  C   UNL A   1     -27.438   3.091  25.645  0.00  0.00    +0.107 C 
ATOM     12  N   UNL A   1     -28.075   2.089  25.003  0.00  0.00    -0.208 NA
ATOM     13  C   UNL A   1     -27.543   0.849  25.079  0.00  0.00    +0.253 C 
ATOM     14  C   UNL A   1     -26.354   0.576  25.777  0.00  0.00    +0.193 C 
ATOM     15  F   UNL A   1     -25.860  -0.681  25.795  0.00  0.00    -0.199 F 
BRANCH  10  16
ATOM     16  C   UNL A   1     -25.642   4.093  27.123  0.00  0.00    +0.266 C 
ATOM     17  N   UNL A   1     -25.614   5.252  26.449  0.00  0.00    -0.200 NA
ATOM     18  C   UNL A   1     -25.026   6.479  26.963  0.00  0.00    +0.139 C 
ATOM     19  O   UNL A   1     -25.143   3.966  28.243  0.00  0.00    -0.268 OA
ENDBRANCH  10  16
BRANCH  13  20
ATOM     20  O   UNL A   1     -28.193  -0.208  24.477  0.00  0.00    -0.456 OA
BRANCH  20  21
ATOM     21  C   UNL A   1     -29.460   0.005  23.866  0.00  0.00    +0.243 C 
BRANCH  21  22
ATOM     22  C   UNL A   1     -30.065  -1.377  23.573  0.00  0.00    +0.229 C 
ATOM     23  O   UNL A   1     -30.729  -1.878  24.721  0.00  0.00    -0.216 OA
ENDBRANCH  21  22
ENDBRANCH  20  21
ENDBRANCH  13  20
ENDBRANCH   5   9
ENDBRANCH   1   8
BRANCH   1  25
ATOM     24  C   UNL A   1     -28.655   1.063  30.169  0.00  0.00    +0.017 C 
ATOM     25  C   UNL A   1     -26.712  -0.294  28.813  0.00  0.00    +0.108 C 
ATOM     26  C   UNL A   1     -27.715   0.417  29.679  0.00  0.00    -0.089 C 
BRANCH  24  27
ATOM     27  C   UNL A   1     -28.569   2.272  31.024  0.00  0.00    +0.040 C 
BRANCH  27  28
ATOM     28  C   UNL A   1     -29.310   1.671  32.261  0.00  0.00    +0.005 C 
ATOM     29  C   UNL A   1     -29.480   2.009  33.700  0.00  0.00    +0.000 C 
ENDBRANCH  27  28
BRANCH  27  30
ATOM     30  C   UNL A   1     -29.130   3.620  30.704  0.00  0.00    +0.094 C 
BRANCH  30  33
ATOM     31  O   UNL A   1     -27.719   4.431  32.618  0.00  0.00    -0.168 OA
ATOM     32  C   UNL A   1     -29.150   6.507  32.387  0.00  0.00    +0.100 C 
ATOM     33  P   UNL A   1     -29.205   4.715  32.118  0.00  0.00    +0.255 P 
ATOM     34  O   UNL A   1     -30.844   4.544  32.296  0.00  0.00    -0.287 OA
ENDBRANCH  30  33
ENDBRANCH  27  30
ENDBRANCH  24  27
ENDBRANCH   1  25
BRANCH   1  35
ATOM     35  C   UNL A   1     -24.855  -1.012  30.143  0.00  0.00    +0.116 C 
BRANCH  35  36
ATOM     36  C   UNL A   1     -24.973  -2.505  29.788  0.00  0.00    -0.003 C 
ATOM     37  C   UNL A   1     -23.906  -3.173  29.146  0.00  0.00    -0.003 C 
ATOM     38  C   UNL A   1     -23.989  -4.549  28.853  0.00  0.00    -0.000 C 
ATOM     39  C   UNL A   1     -25.137  -5.280  29.205  0.00  0.00    -0.000 C 
ATOM     40  C   UNL A   1     -26.232  -4.611  29.784  0.00  0.00    -0.000 C 
ATOM     41  C   UNL A   1     -26.155  -3.232  30.065  0.00  0.00    -0.003 C 
ENDBRANCH  35  36
BRANCH  35  42
ATOM     42  C   UNL A   1     -25.387  -0.679  31.571  0.00  0.00    +0.095 C 
ATOM     43  C   UNL A   1     -25.189   0.773  32.028  0.00  0.00    +0.021 C 
ATOM     44  C   UNL A   1     -25.336   0.684  33.544  0.00  0.00    +0.020 C 
ATOM     45  C   UNL A   1     -24.829  -0.715  33.905  0.00  0.00    +0.089 C 
ATOM     46  N   UNL A   1     -24.758  -1.481  32.646  0.00  0.00    -0.217 NA
ENDBRANCH  35  42
ENDBRANCH   1  35
TORSDOF 14
