MODEL 4513
MODEL 1
REMARK VINA RESULT:    -7.037      0.000      0.000
REMARK INTER + INTRA:         -10.483
REMARK INTER:                  -9.506
REMARK INTRA:                  -0.977
REMARK UNBOUND:                -0.977
REMARK  Name = No_4513-gen_results/8p0m/2024-11-27-11-27-31/
REMARK  6 active torsions:
REMARK  status: ('A' for Active; 'I' for Inactive)
REMARK    1  A    between atoms: C_2  and  C_3
REMARK    2  A    between atoms: C_3  and  C_5
REMARK    3  A    between atoms: N_4  and  C_12
REMARK    4  A    between atoms: C_10  and  C_21
REMARK    5  A    between atoms: C_12  and  C_17
REMARK    6  A    between atoms: C_17  and  C_18
REMARK                            x       y       z     vdW  Elec       q    Type
REMARK                         _______ _______ _______ _____ _____    ______ ____
ROOT
ATOM      1  C   UNL A   1     -24.691   1.039  26.541  0.00  0.00    -0.013 A 
ATOM      2  C   UNL A   1     -23.819   0.622  27.580  0.00  0.00    -0.004 A 
ATOM      3  C   UNL A   1     -22.466   0.875  27.614  0.00  0.00    -0.000 A 
ATOM      4  C   UNL A   1     -21.657   0.243  28.583  0.00  0.00    -0.000 A 
ATOM      5  C   UNL A   1     -22.165  -0.755  29.453  0.00  0.00    +0.004 A 
ATOM      6  C   UNL A   1     -23.469  -1.078  29.333  0.00  0.00    +0.071 A 
ATOM      7  C   UNL A   1     -24.286  -0.457  28.450  0.00  0.00    +0.004 A 
ATOM      8  C   UNL A   1     -21.815   1.821  26.757  0.00  0.00    -0.000 A 
ATOM      9  C   UNL A   1     -24.381   2.245  25.846  0.00  0.00    -0.004 A 
ATOM     10  C   UNL A   1     -22.854   2.500  25.819  0.00  0.00    -0.000 A 
ENDROOT
BRANCH   6  11
ATOM     11  C   UNL A   1     -24.041  -2.099  30.258  0.00  0.00    +0.419 C 
ATOM     12  F   UNL A   1     -23.544  -1.950  31.326  0.00  0.00    -0.166 F 
ATOM     13  F   UNL A   1     -25.341  -1.894  30.337  0.00  0.00    -0.166 F 
ATOM     14  F   UNL A   1     -23.880  -3.303  29.783  0.00  0.00    -0.166 F 
ENDBRANCH   6  11
BRANCH   1  15
ATOM     15  C   UNL A   1     -25.798   0.155  26.321  0.00  0.00    +0.112 C 
BRANCH  15  17
ATOM     16  O   UNL A   1     -25.788  -0.530  24.405  0.00  0.00    -0.275 OA
ATOM     17  C   UNL A   1     -26.151  -0.002  25.357  0.00  0.00    +0.230 C 
ATOM     18  N   UNL A   1     -27.542   0.651  25.080  0.00  0.00    -0.277 N 
ATOM     19  C   UNL A   1     -28.263   1.431  26.006  0.00  0.00    +0.115 C 
BRANCH  18  20
ATOM     20  C   UNL A   1     -28.204   0.595  23.724  0.00  0.00    +0.105 C 
BRANCH  20  21
ATOM     21  C   UNL A   1     -29.537   0.142  23.704  0.00  0.00    +0.136 C 
BRANCH  21  22
ATOM     22  C   UNL A   1     -29.568  -1.217  23.813  0.00  0.00    +0.367 C 
ATOM     23  O   UNL A   1     -28.838  -1.906  23.174  0.00  0.00    -0.246 OA
ATOM     24  O   UNL A   1     -30.431  -1.935  24.607  0.00  0.00    -0.246 OA
ENDBRANCH  21  22
ENDBRANCH  20  21
ENDBRANCH  18  20
ENDBRANCH  15  17
ENDBRANCH   1  15
TORSDOF 6
ENDMDL
ENDMDL
