MODEL 4514
MODEL 1
REMARK VINA RESULT:    -4.290      0.000      0.000
REMARK INTER + INTRA:          -4.290
REMARK INTER:                  -4.290
REMARK INTRA:                   0.000
REMARK UNBOUND:                 0.000
REMARK  Name = No_4514-gen_results/8p0m/2024-11-27-11-27-31/
REMARK  0 active torsions:
REMARK  status: ('A' for Active; 'I' for Inactive)
REMARK                            x       y       z     vdW  Elec       q    Type
REMARK                         _______ _______ _______ _____ _____    ______ ____
ROOT
ATOM      1  C   UNL A   1     -24.956  -5.368  28.961  0.00  0.00    +0.000 A 
ATOM      2  C   UNL A   1     -24.179  -4.694  28.735  0.00  0.00    +0.000 A 
ATOM      3  C   UNL A   1     -26.106  -4.739  29.609  0.00  0.00    +0.000 A 
ATOM      4  C   UNL A   1     -26.152  -3.392  29.868  0.00  0.00    +0.000 A 
ATOM      5  C   UNL A   1     -23.956  -3.256  28.883  0.00  0.00    +0.000 A 
ATOM      6  C   UNL A   1     -25.065  -2.637  29.509  0.00  0.00    +0.000 A 
ENDROOT
TORSDOF 0
ENDMDL
ENDMDL
