REMARK  Name = No_4515-gen_results/8p0m/2024-11-27-11-27-31/
REMARK  8 active torsions:
REMARK  status: ('A' for Active; 'I' for Inactive)
REMARK    1  A    between atoms: C_3  and  C_8
REMARK    2  A    between atoms: C_6  and  O_7
REMARK    3  A    between atoms: O_7  and  C_15
REMARK    4  A    between atoms: C_15  and  C_16
REMARK    5  A    between atoms: C_16  and  C_17
REMARK    6  A    between atoms: C_16  and  O_19
REMARK    7  A    between atoms: O_19  and  C_22
REMARK    8  A    between atoms: C_23  and  C_24
REMARK                            x       y       z     vdW  Elec       q    Type
REMARK                         _______ _______ _______ _____ _____    ______ ____
ROOT
ATOM      1  C   UNL A   1     -28.016  -0.814  28.878  0.00  0.00    +0.037 A 
ATOM      2  C   UNL A   1     -27.064  -0.119  28.608  0.00  0.00    +0.005 A 
ATOM      3  C   UNL A   1     -25.792  -0.430  29.076  0.00  0.00    +0.018 A 
ATOM      4  C   UNL A   1     -25.576  -1.565  29.936  0.00  0.00    +0.005 A 
ATOM      5  C   UNL A   1     -26.735  -2.300  30.217  0.00  0.00    +0.037 A 
ATOM      6  C   UNL A   1     -27.918  -1.954  29.763  0.00  0.00    +0.139 A 
ENDROOT
BRANCH   3   7
ATOM      7  C   UNL A   1     -24.529   0.349  28.800  0.00  0.00    +0.086 A 
ATOM      8  N   UNL A   1     -24.459   1.183  27.854  0.00  0.00    -0.211 NA
ATOM      9  C   UNL A   1     -23.325   1.750  27.411  0.00  0.00    +0.257 A 
ATOM     10  N   UNL A   1     -22.122   1.460  28.006  0.00  0.00    -0.210 NA
ATOM     11  C   UNL A   1     -23.297  -0.040  29.412  0.00  0.00    +0.040 A 
ATOM     12  C   UNL A   1     -22.076   0.621  28.993  0.00  0.00    +0.103 A 
ATOM     13  N   UNL A   1     -23.329   2.704  26.445  0.00  0.00    -0.086 NA
ENDBRANCH   3   7
BRANCH   6  14
ATOM     14  O   UNL A   1     -29.000  -2.701  30.115  0.00  0.00    -0.471 OA
BRANCH  14  15
ATOM     15  C   UNL A   1     -30.117  -2.126  30.592  0.00  0.00    +0.258 C 
BRANCH  15  16
ATOM     16  C   UNL A   1     -31.195  -2.679  30.116  0.00  0.00    +0.286 C 
BRANCH  16  17
ATOM     17  C   UNL A   1     -31.327  -4.021  29.967  0.00  0.00    +0.285 C 
ATOM     18  O   UNL A   1     -30.586  -4.774  30.452  0.00  0.00    -0.269 OA
ATOM     19  N   UNL A   1     -32.174  -4.658  29.080  0.00  0.00    -0.200 NA
ATOM     20  C   UNL A   1     -33.111  -3.990  28.262  0.00  0.00    +0.139 C 
ENDBRANCH  16  17
BRANCH  16  21
ATOM     21  O   UNL A   1     -31.612  -1.986  28.861  0.00  0.00    -0.463 OA
BRANCH  21  22
ATOM     22  C   UNL A   1     -31.638  -0.671  28.801  0.00  0.00    +0.173 C 
ATOM     23  C   UNL A   1     -31.677  -0.099  27.471  0.00  0.00    +0.040 C 
BRANCH  23  24
ATOM     24  C   UNL A   1     -31.314   1.206  27.343  0.00  0.00    -0.001 C 
ATOM     25  C   UNL A   1     -31.098   1.782  26.076  0.00  0.00    -0.026 C 
ATOM     26  C   UNL A   1     -31.346   0.974  24.938  0.00  0.00    +0.031 C 
ENDBRANCH  23  24
ENDBRANCH  21  22
ENDBRANCH  16  21
ENDBRANCH  15  16
ENDBRANCH  14  15
ENDBRANCH   6  14
TORSDOF 8
