MODEL 4515
MODEL 1
REMARK VINA RESULT:    -5.705      0.000      0.000
REMARK INTER + INTRA:         -10.599
REMARK INTER:                  -8.373
REMARK INTRA:                  -2.225
REMARK UNBOUND:                -2.225
REMARK  Name = No_4515-gen_results/8p0m/2024-11-27-11-27-31/
REMARK  8 active torsions:
REMARK  status: ('A' for Active; 'I' for Inactive)
REMARK    1  A    between atoms: C_3  and  C_8
REMARK    2  A    between atoms: C_6  and  O_7
REMARK    3  A    between atoms: O_7  and  C_15
REMARK    4  A    between atoms: C_15  and  C_16
REMARK    5  A    between atoms: C_16  and  C_17
REMARK    6  A    between atoms: C_16  and  O_19
REMARK    7  A    between atoms: O_19  and  C_22
REMARK    8  A    between atoms: C_23  and  C_24
REMARK                            x       y       z     vdW  Elec       q    Type
REMARK                         _______ _______ _______ _____ _____    ______ ____
ROOT
ATOM      1  C   UNL A   1     -30.919  -9.941  29.416  0.00  0.00    +0.037 A 
ATOM      2  C   UNL A   1     -30.455 -10.118  30.519  0.00  0.00    +0.005 A 
ATOM      3  C   UNL A   1     -29.353 -10.944  30.710  0.00  0.00    +0.018 A 
ATOM      4  C   UNL A   1     -28.756 -11.651  29.605  0.00  0.00    +0.005 A 
ATOM      5  C   UNL A   1     -29.370 -11.407  28.370  0.00  0.00    +0.037 A 
ATOM      6  C   UNL A   1     -30.422 -10.629  28.245  0.00  0.00    +0.139 A 
ENDROOT
BRANCH   3   7
ATOM      7  C   UNL A   1     -28.679 -11.235  32.028  0.00  0.00    +0.086 A 
ATOM      8  N   UNL A   1     -28.778 -10.448  33.011  0.00  0.00    -0.211 NA
ATOM      9  C   UNL A   1     -28.044 -10.522  34.133  0.00  0.00    +0.257 A 
ATOM     10  N   UNL A   1     -27.116 -11.520  34.295  0.00  0.00    -0.210 NA
ATOM     11  C   UNL A   1     -27.680 -12.255  32.115  0.00  0.00    +0.040 A 
ATOM     12  C   UNL A   1     -26.934 -12.391  33.351  0.00  0.00    +0.103 A 
ATOM     13  N   UNL A   1     -28.260  -9.694  35.188  0.00  0.00    -0.086 NA
ENDBRANCH   3   7
BRANCH   6  14
ATOM     14  O   UNL A   1     -30.982 -10.476  27.014  0.00  0.00    -0.471 OA
BRANCH  14  15
ATOM     15  C   UNL A   1     -32.210 -10.950  26.744  0.00  0.00    +0.258 C 
BRANCH  15  16
ATOM     16  C   UNL A   1     -32.170 -12.135  26.208  0.00  0.00    +0.286 C 
BRANCH  16  17
ATOM     17  C   UNL A   1     -32.650 -12.395  24.966  0.00  0.00    +0.285 C 
ATOM     18  O   UNL A   1     -33.789 -12.413  24.732  0.00  0.00    -0.269 OA
ATOM     19  N   UNL A   1     -31.916 -12.878  23.899  0.00  0.00    -0.200 NA
ATOM     20  C   UNL A   1     -30.518 -13.075  23.924  0.00  0.00    +0.139 C 
ENDBRANCH  16  17
BRANCH  16  21
ATOM     21  O   UNL A   1     -32.688 -13.149  27.174  0.00  0.00    -0.463 OA
BRANCH  21  22
ATOM     22  C   UNL A   1     -31.916 -14.131  27.589  0.00  0.00    +0.173 C 
ATOM     23  C   UNL A   1     -31.600 -14.133  29.003  0.00  0.00    +0.040 C 
BRANCH  23  24
ATOM     24  C   UNL A   1     -30.523 -14.864  29.400  0.00  0.00    -0.001 C 
ATOM     25  C   UNL A   1     -30.124 -14.899  30.750  0.00  0.00    -0.026 C 
ATOM     26  C   UNL A   1     -30.929 -14.207  31.690  0.00  0.00    +0.031 C 
ENDBRANCH  23  24
ENDBRANCH  21  22
ENDBRANCH  16  21
ENDBRANCH  15  16
ENDBRANCH  14  15
ENDBRANCH   6  14
TORSDOF 8
ENDMDL
ENDMDL
