MODEL 4516
MODEL 1
REMARK VINA RESULT:    -8.572      0.000      0.000
REMARK INTER + INTRA:          -8.572
REMARK INTER:                  -8.572
REMARK INTRA:                   0.000
REMARK UNBOUND:                 0.000
REMARK  Name = No_4516-gen_results/8p0m/2024-11-27-11-27-31/
REMARK  0 active torsions:
REMARK  status: ('A' for Active; 'I' for Inactive)
REMARK                            x       y       z     vdW  Elec       q    Type
REMARK                         _______ _______ _______ _____ _____    ______ ____
ROOT
ATOM      1  C   UNL A   1     -23.846   2.750  26.695  0.00  0.00    -0.000 A 
ATOM      2  C   UNL A   1     -24.615   3.412  26.408  0.00  0.00    -0.000 A 
ATOM      3  C   UNL A   1     -24.101   1.871  27.771  0.00  0.00    +0.001 A 
ATOM      4  C   UNL A   1     -23.170   0.806  28.227  0.00  0.00    +0.041 A 
ATOM      5  C   UNL A   1     -25.969   3.621  26.949  0.00  0.00    -0.000 A 
ATOM      6  C   UNL A   1     -26.291   2.786  28.019  0.00  0.00    -0.003 A 
ATOM      7  C   UNL A   1     -25.388   1.859  28.430  0.00  0.00    -0.004 A 
ATOM      8  C   UNL A   1     -23.277  -0.188  28.761  0.00  0.00    +0.058 A 
ATOM      9  C   UNL A   1     -22.284  -1.098  29.174  0.00  0.00    +0.003 A 
ATOM     10  C   UNL A   1     -20.925  -0.678  28.863  0.00  0.00    +0.003 A 
ATOM     11  C   UNL A   1     -21.813   0.956  27.855  0.00  0.00    +0.196 A 
ATOM     12  C   UNL A   1     -20.796   0.352  28.253  0.00  0.00    +0.042 A 
ATOM     13  C   UNL A   1     -25.693   0.976  29.531  0.00  0.00    +0.101 C 
ATOM     14  C   UNL A   1     -26.524   1.386  30.458  0.00  0.00    +0.029 C 
ATOM     15  C   UNL A   1     -26.560   0.677  31.762  0.00  0.00    +0.030 C 
ATOM     16  C   UNL A   1     -25.516   0.650  32.386  0.00  0.00    -0.006 A 
ATOM     17  C   UNL A   1     -25.516  -0.066  33.657  0.00  0.00    -0.003 A 
ATOM     18  C   UNL A   1     -24.401  -0.812  34.009  0.00  0.00    +0.002 A 
ATOM     19  C   UNL A   1     -23.534  -1.142  32.970  0.00  0.00    +0.031 A 
ATOM     20  C   UNL A   1     -23.514  -0.533  31.742  0.00  0.00    +0.153 A 
ATOM     21  C   UNL A   1     -24.647   0.262  31.438  0.00  0.00    +0.075 A 
ATOM     22  N   UNL A   1     -24.753   0.611  30.289  0.00  0.00    -0.254 N 
ATOM     23  C   UNL A   1     -23.556  -0.032  29.660  0.00  0.00    +0.342 C 
ATOM     24  F   UNL A   1     -23.192  -0.618  30.818  0.00  0.00    -0.203 F 
ATOM     25  F   UNL A   1     -22.820   1.007  30.139  0.00  0.00    -0.181 F 
ATOM     26  O   UNL A   1     -21.618   2.223  27.325  0.00  0.00    -0.287 OA
ATOM     27  O   UNL A   1     -24.670  -0.991  29.343  0.00  0.00    -0.165 OA
ENDROOT
TORSDOF 0
ENDMDL
ENDMDL
