REMARK  Name = No_4517-gen_results/8p0m/2024-11-27-11-27-31/
REMARK  6 active torsions:
REMARK  status: ('A' for Active; 'I' for Inactive)
REMARK    1  A    between atoms: C_5  and  C_6
REMARK    2  A    between atoms: C_6  and  C_9
REMARK    3  A    between atoms: C_6  and  C_10
REMARK    4  A    between atoms: C_9  and  C_13
REMARK    5  A    between atoms: C_12  and  C_20
REMARK    6  A    between atoms: C_13  and  C_14
REMARK                            x       y       z     vdW  Elec       q    Type
REMARK                         _______ _______ _______ _____ _____    ______ ____
ROOT
ATOM      1  C   UNL A   1     -24.406   1.646  28.907  0.00  0.00    +0.060 C 
ENDROOT
BRANCH   1   6
ATOM      2  O   UNL A   1     -28.123  -1.335  28.487  0.00  0.00    -0.273 OA
ATOM      3  C   UNL A   1     -27.064  -0.824  28.869  0.00  0.00    +0.241 C 
ATOM      4  N   UNL A   1     -26.445  -0.010  28.827  0.00  0.00    -0.207 NA
ATOM      5  C   UNL A   1     -26.351  -1.905  29.895  0.00  0.00    +0.087 C 
ATOM      6  C   UNL A   1     -25.138   0.428  29.259  0.00  0.00    +0.101 C 
ATOM      7  C   UNL A   1     -24.399  -0.458  30.130  0.00  0.00    +0.022 C 
ATOM      8  C   UNL A   1     -25.112  -1.645  30.417  0.00  0.00    +0.011 C 
ENDBRANCH   1   6
BRANCH   1   9
ATOM      9  C   UNL A   1     -25.094   2.826  28.851  0.00  0.00    +0.102 C 
ATOM     10  N   UNL A   1     -24.696   3.749  27.921  0.00  0.00    -0.132 NA
BRANCH   9  11
ATOM     11  C   UNL A   1     -26.006   3.277  29.824  0.00  0.00    +0.046 C 
BRANCH  11  12
ATOM     12  C   UNL A   1     -25.969   3.083  31.043  0.00  0.00    -0.021 A 
ATOM     13  C   UNL A   1     -26.962   3.476  32.048  0.00  0.00    -0.004 A 
ATOM     14  C   UNL A   1     -26.949   3.128  33.377  0.00  0.00    -0.000 A 
ATOM     15  C   UNL A   1     -26.108   2.066  33.719  0.00  0.00    -0.000 A 
ATOM     16  C   UNL A   1     -25.252   1.452  32.821  0.00  0.00    -0.000 A 
ATOM     17  C   UNL A   1     -25.227   1.883  31.523  0.00  0.00    -0.004 A 
ENDBRANCH  11  12
ENDBRANCH   9  11
ENDBRANCH   1   9
BRANCH   1  18
ATOM     18  C   UNL A   1     -23.039   1.575  28.451  0.00  0.00    -0.026 C 
ATOM     19  C   UNL A   1     -22.218   0.468  28.624  0.00  0.00    -0.010 C 
BRANCH  19  20
ATOM     20  C   UNL A   1     -20.887   0.637  28.169  0.00  0.00    +0.135 C 
ATOM     21  N   UNL A   1     -20.655   1.767  27.529  0.00  0.00    -0.126 NA
ENDBRANCH  19  20
ENDBRANCH   1  18
TORSDOF 6
