MODEL 4517
MODEL 1
REMARK VINA RESULT:    -6.941      0.000      0.000
REMARK INTER + INTRA:         -10.358
REMARK INTER:                  -9.376
REMARK INTRA:                  -0.983
REMARK UNBOUND:                -0.983
REMARK  Name = No_4517-gen_results/8p0m/2024-11-27-11-27-31/
REMARK  6 active torsions:
REMARK  status: ('A' for Active; 'I' for Inactive)
REMARK    1  A    between atoms: C_5  and  C_6
REMARK    2  A    between atoms: C_6  and  C_9
REMARK    3  A    between atoms: C_6  and  C_10
REMARK    4  A    between atoms: C_9  and  C_13
REMARK    5  A    between atoms: C_12  and  C_20
REMARK    6  A    between atoms: C_13  and  C_14
REMARK                            x       y       z     vdW  Elec       q    Type
REMARK                         _______ _______ _______ _____ _____    ______ ____
ROOT
ATOM      1  C   UNL A   1     -23.757   0.315  29.130  0.00  0.00    +0.060 C 
ENDROOT
BRANCH   1   6
ATOM      2  O   UNL A   1     -25.460   0.306  24.660  0.00  0.00    -0.273 OA
ATOM      3  C   UNL A   1     -24.755   0.541  25.649  0.00  0.00    +0.241 C 
ATOM      4  N   UNL A   1     -24.549   0.310  26.625  0.00  0.00    -0.207 NA
ATOM      5  C   UNL A   1     -23.680   1.714  25.205  0.00  0.00    +0.087 C 
ATOM      6  C   UNL A   1     -23.736   0.753  27.733  0.00  0.00    +0.101 C 
ATOM      7  C   UNL A   1     -22.783   1.808  27.474  0.00  0.00    +0.022 C 
ATOM      8  C   UNL A   1     -22.816   2.241  26.128  0.00  0.00    +0.011 C 
ENDBRANCH   1   6
BRANCH   1   9
ATOM      9  C   UNL A   1     -23.082  -0.825  29.466  0.00  0.00    +0.102 C 
ATOM     10  N   UNL A   1     -21.902  -0.685  30.149  0.00  0.00    -0.132 NA
BRANCH   9  11
ATOM     11  C   UNL A   1     -23.358  -2.108  28.958  0.00  0.00    +0.046 C 
BRANCH  11  12
ATOM     12  C   UNL A   1     -24.222  -2.903  29.340  0.00  0.00    -0.021 A 
ATOM     13  C   UNL A   1     -25.622  -2.620  29.674  0.00  0.00    -0.004 A 
ATOM     14  C   UNL A   1     -26.587  -3.552  29.970  0.00  0.00    -0.000 A 
ATOM     15  C   UNL A   1     -26.289  -4.870  29.614  0.00  0.00    -0.000 A 
ATOM     16  C   UNL A   1     -25.068  -5.261  29.092  0.00  0.00    -0.000 A 
ATOM     17  C   UNL A   1     -24.096  -4.319  28.891  0.00  0.00    -0.004 A 
ENDBRANCH  11  12
ENDBRANCH   9  11
ENDBRANCH   1   9
BRANCH   1  18
ATOM     18  C   UNL A   1     -24.619   0.963  30.089  0.00  0.00    -0.026 C 
ATOM     19  C   UNL A   1     -24.164   1.787  31.111  0.00  0.00    -0.010 C 
BRANCH  19  20
ATOM     20  C   UNL A   1     -25.172   2.260  31.988  0.00  0.00    +0.135 C 
ATOM     21  N   UNL A   1     -25.418   1.484  33.026  0.00  0.00    -0.126 NA
ENDBRANCH  19  20
ENDBRANCH   1  18
TORSDOF 6
ENDMDL
ENDMDL
