REMARK  Name = No_4518-gen_results/8p0m/2024-11-27-11-27-31/
REMARK  2 active torsions:
REMARK  status: ('A' for Active; 'I' for Inactive)
REMARK    1  A    between atoms: C_2  and  C_3
REMARK    2  A    between atoms: N_4  and  C_10
REMARK                            x       y       z     vdW  Elec       q    Type
REMARK                         _______ _______ _______ _____ _____    ______ ____
ROOT
ATOM      1  O   UNL A   1     -28.123  -1.335  28.487  0.00  0.00    -0.268 OA
ATOM      2  C   UNL A   1     -28.521  -0.436  29.078  0.00  0.00    +0.269 C 
ATOM      3  N   UNL A   1     -29.375  -0.943  30.266  0.00  0.00    -0.175 NA
ENDROOT
BRANCH   2   4
ATOM      4  C   UNL A   1     -28.589   0.592  28.946  0.00  0.00    +0.055 A 
ATOM      5  C   UNL A   1     -29.164   1.667  29.507  0.00  0.00    +0.005 A 
ATOM      6  C   UNL A   1     -27.649   1.125  27.744  0.00  0.00    +0.005 A 
ATOM      7  C   UNL A   1     -27.916   2.195  27.067  0.00  0.00    +0.000 A 
ATOM      8  C   UNL A   1     -29.308   2.985  28.915  0.00  0.00    +0.000 A 
ATOM      9  C   UNL A   1     -28.616   3.278  27.735  0.00  0.00    +0.000 A 
ENDBRANCH   2   4
BRANCH   3  10
ATOM     10  C   UNL A   1     -29.422  -2.371  30.656  0.00  0.00    +0.074 A 
ATOM     11  C   UNL A   1     -30.426  -3.073  30.071  0.00  0.00    +0.017 A 
ATOM     12  C   UNL A   1     -30.297  -4.511  30.304  0.00  0.00    +0.001 A 
ATOM     13  C   UNL A   1     -29.145  -5.063  30.920  0.00  0.00    +0.000 A 
ATOM     14  C   UNL A   1     -28.090  -4.291  31.182  0.00  0.00    +0.001 A 
ATOM     15  C   UNL A   1     -28.173  -2.875  31.047  0.00  0.00    +0.017 A 
ENDBRANCH   3  10
TORSDOF 2
