MODEL 4518
MODEL 1
REMARK VINA RESULT:    -6.445      0.000      0.000
REMARK INTER + INTRA:          -7.449
REMARK INTER:                  -7.199
REMARK INTRA:                  -0.250
REMARK UNBOUND:                -0.250
REMARK  Name = No_4518-gen_results/8p0m/2024-11-27-11-27-31/
REMARK  2 active torsions:
REMARK  status: ('A' for Active; 'I' for Inactive)
REMARK    1  A    between atoms: C_2  and  C_3
REMARK    2  A    between atoms: N_4  and  C_10
REMARK                            x       y       z     vdW  Elec       q    Type
REMARK                         _______ _______ _______ _____ _____    ______ ____
ROOT
ATOM      1  O   UNL A   1     -23.600  -0.904  30.619  0.00  0.00    -0.268 OA
ATOM      2  C   UNL A   1     -23.536  -0.585  29.520  0.00  0.00    +0.269 C 
ATOM      3  N   UNL A   1     -24.045  -1.740  28.622  0.00  0.00    -0.175 NA
ENDROOT
BRANCH   2   4
ATOM      4  C   UNL A   1     -23.099   0.183  28.974  0.00  0.00    +0.055 A 
ATOM      5  C   UNL A   1     -23.439   1.301  28.314  0.00  0.00    +0.005 A 
ATOM      6  C   UNL A   1     -21.485   0.094  28.963  0.00  0.00    +0.005 A 
ATOM      7  C   UNL A   1     -20.763   0.572  28.001  0.00  0.00    +0.000 A 
ATOM      8  C   UNL A   1     -22.612   2.047  27.383  0.00  0.00    +0.000 A 
ATOM      9  C   UNL A   1     -21.251   1.738  27.286  0.00  0.00    +0.000 A 
ENDBRANCH   2   4
BRANCH   3  10
ATOM     10  C   UNL A   1     -24.719  -2.936  29.176  0.00  0.00    +0.074 A 
ATOM     11  C   UNL A   1     -26.016  -2.732  29.521  0.00  0.00    +0.017 A 
ATOM     12  C   UNL A   1     -26.700  -3.983  29.846  0.00  0.00    +0.001 A 
ATOM     13  C   UNL A   1     -26.084  -5.243  29.633  0.00  0.00    +0.000 A 
ATOM     14  C   UNL A   1     -24.911  -5.318  29.005  0.00  0.00    +0.001 A 
ATOM     15  C   UNL A   1     -24.158  -4.140  28.726  0.00  0.00    +0.017 A 
ENDBRANCH   3  10
TORSDOF 2
ENDMDL
ENDMDL
