REMARK  Name = No_4519-gen_results/8p0m/2024-11-27-11-27-31/
REMARK  4 active torsions:
REMARK  status: ('A' for Active; 'I' for Inactive)
REMARK    1  A    between atoms: C_2  and  C_11
REMARK    2  A    between atoms: C_5  and  N_7
REMARK    3  A    between atoms: C_11  and  C_12
REMARK    4  A    between atoms: C_12  and  C_14
REMARK                            x       y       z     vdW  Elec       q    Type
REMARK                         _______ _______ _______ _____ _____    ______ ____
ROOT
ATOM      1  C   UNL A   1     -28.016  -0.814  28.878  0.00  0.00    -0.003 A 
ATOM      2  C   UNL A   1     -27.064  -0.119  28.608  0.00  0.00    -0.022 A 
ATOM      3  C   UNL A   1     -27.001   0.691  27.491  0.00  0.00    -0.003 A 
ATOM      4  C   UNL A   1     -28.137   0.736  26.635  0.00  0.00    +0.019 A 
ATOM      5  C   UNL A   1     -29.236   0.076  27.069  0.00  0.00    +0.085 A 
ATOM      6  C   UNL A   1     -29.218  -0.643  28.175  0.00  0.00    +0.019 A 
ENDROOT
BRANCH   5   7
ATOM      7  N   UNL A   1     -30.352   0.156  26.243  0.00  0.00    -0.198 NA
ATOM      8  C   UNL A   1     -31.431  -0.431  26.600  0.00  0.00    +0.340 C 
ATOM      9 CL   UNL A   1     -32.682  -0.585  25.531  0.00  0.00    -0.018 Cl
ATOM     10  O   UNL A   1     -31.810  -0.734  27.805  0.00  0.00    -0.252 OA
ENDBRANCH   5   7
BRANCH   2  11
ATOM     11  C   UNL A   1     -25.716  -0.205  29.423  0.00  0.00    +0.032 C 
BRANCH  11  12
ATOM     12  C   UNL A   1     -25.133   1.046  29.831  0.00  0.00    +0.071 C 
ATOM     13  C   UNL A   1     -25.693   1.651  30.791  0.00  0.00    +0.006 C 
BRANCH  12  14
ATOM     14  C   UNL A   1     -23.988   1.516  29.113  0.00  0.00    +0.319 C 
ATOM     15  F   UNL A   1     -22.856   1.388  29.774  0.00  0.00    -0.198 F 
ATOM     16  F   UNL A   1     -24.085   2.862  28.832  0.00  0.00    -0.198 F 
ENDBRANCH  12  14
ENDBRANCH  11  12
ENDBRANCH   2  11
TORSDOF 4
