MODEL 4519
MODEL 1
REMARK VINA RESULT:    -6.204      0.000      0.000
REMARK INTER + INTRA:          -8.116
REMARK INTER:                  -7.655
REMARK INTRA:                  -0.461
REMARK UNBOUND:                -0.461
REMARK  Name = No_4519-gen_results/8p0m/2024-11-27-11-27-31/
REMARK  4 active torsions:
REMARK  status: ('A' for Active; 'I' for Inactive)
REMARK    1  A    between atoms: C_2  and  C_11
REMARK    2  A    between atoms: C_5  and  N_7
REMARK    3  A    between atoms: C_11  and  C_12
REMARK    4  A    between atoms: C_12  and  C_14
REMARK                            x       y       z     vdW  Elec       q    Type
REMARK                         _______ _______ _______ _____ _____    ______ ____
ROOT
ATOM      1  C   UNL A   1     -24.343   0.124  27.941  0.00  0.00    -0.003 A 
ATOM      2  C   UNL A   1     -23.198   0.455  28.144  0.00  0.00    -0.022 A 
ATOM      3  C   UNL A   1     -22.327  -0.253  28.949  0.00  0.00    -0.003 A 
ATOM      4  C   UNL A   1     -22.798  -1.460  29.539  0.00  0.00    +0.019 A 
ATOM      5  C   UNL A   1     -24.024  -1.876  29.146  0.00  0.00    +0.085 A 
ATOM      6  C   UNL A   1     -24.773  -1.152  28.337  0.00  0.00    +0.019 A 
ENDROOT
BRANCH   5   7
ATOM      7  N   UNL A   1     -24.459  -3.075  29.700  0.00  0.00    -0.198 NA
ATOM      8  C   UNL A   1     -24.413  -4.139  28.991  0.00  0.00    +0.340 C 
ATOM      9 CL   UNL A   1     -25.164  -5.516  29.514  0.00  0.00    -0.018 Cl
ATOM     10  O   UNL A   1     -23.630  -4.390  27.985  0.00  0.00    -0.252 OA
ENDBRANCH   5   7
BRANCH   2  11
ATOM     11  C   UNL A   1     -22.634   1.841  27.643  0.00  0.00    +0.032 C 
BRANCH  11  12
ATOM     12  C   UNL A   1     -23.444   2.557  26.693  0.00  0.00    +0.071 C 
ATOM     13  C   UNL A   1     -24.336   3.321  27.164  0.00  0.00    +0.006 C 
BRANCH  12  14
ATOM     14  C   UNL A   1     -23.197   2.335  25.301  0.00  0.00    +0.319 C 
ATOM     15  F   UNL A   1     -23.716   1.215  24.840  0.00  0.00    -0.198 F 
ATOM     16  F   UNL A   1     -21.848   2.236  25.037  0.00  0.00    -0.198 F 
ENDBRANCH  12  14
ENDBRANCH  11  12
ENDBRANCH   2  11
TORSDOF 4
ENDMDL
ENDMDL
