MODEL 451
MODEL 1
REMARK VINA RESULT:    -7.364      0.000      0.000
REMARK INTER + INTRA:         -10.397
REMARK INTER:                  -9.086
REMARK INTRA:                  -1.312
REMARK UNBOUND:                -1.312
REMARK  Name = No_451-gen_results/8p0m/2024-11-27-11-27-31/
REMARK  4 active torsions:
REMARK  status: ('A' for Active; 'I' for Inactive)
REMARK    1  A    between atoms: C_3  and  C_8
REMARK    2  A    between atoms: C_8  and  C_9
REMARK    3  A    between atoms: C_10  and  C_11
REMARK    4  A    between atoms: C_10  and  C_15
REMARK                            x       y       z     vdW  Elec       q    Type
REMARK                         _______ _______ _______ _____ _____    ______ ____
ROOT
ATOM      1  C   UNL A   1     -25.409  -0.308  30.039  0.00  0.00    -0.017 C 
ATOM      2  C   UNL A   1     -24.893  -1.324  29.878  0.00  0.00    +0.064 C 
ENDROOT
BRANCH   2   3
ATOM      3  C   UNL A   1     -25.033  -2.404  29.549  0.00  0.00    +0.005 A 
ATOM      4  C   UNL A   1     -23.929  -3.134  28.830  0.00  0.00    +0.000 A 
ATOM      5  C   UNL A   1     -23.972  -4.470  28.559  0.00  0.00    +0.000 A 
ATOM      6  C   UNL A   1     -25.070  -5.219  29.001  0.00  0.00    +0.000 A 
ATOM      7  C   UNL A   1     -26.124  -4.654  29.640  0.00  0.00    +0.000 A 
ATOM      8  C   UNL A   1     -26.111  -3.334  29.936  0.00  0.00    +0.000 A 
ENDBRANCH   2   3
BRANCH   2   9
ATOM      9  C   UNL A   1     -23.475  -1.211  30.663  0.00  0.00    +0.333 C 
ATOM     10  O   UNL A   1     -23.427  -1.534  31.897  0.00  0.00    -0.254 OA
ATOM     11  F   UNL A   1     -22.523  -0.748  30.054  0.00  0.00    -0.159 F 
ENDBRANCH   2   9
BRANCH   1  12
ATOM     12  C   UNL A   1     -25.281   0.849  29.269  0.00  0.00    +0.044 C 
ATOM     13  C   UNL A   1     -25.254   2.166  29.839  0.00  0.00    +0.009 C 
BRANCH  12  16
ATOM     14  C   UNL A   1     -25.612  -0.279  25.780  0.00  0.00    +0.001 A 
ATOM     15  C   UNL A   1     -25.817  -0.091  26.957  0.00  0.00    -0.004 A 
ATOM     16  C   UNL A   1     -25.089   0.765  27.766  0.00  0.00    -0.018 A 
ATOM     17  C   UNL A   1     -24.036   1.502  27.149  0.00  0.00    +0.007 A 
ATOM     18  C   UNL A   1     -23.933   1.396  25.815  0.00  0.00    +0.057 A 
ATOM     19  C   UNL A   1     -24.693   0.596  25.126  0.00  0.00    +0.011 A 
ATOM     20 CL   UNL A   1     -22.697   2.329  25.093  0.00  0.00    -0.082 Cl
ENDBRANCH  12  16
ENDBRANCH   1  12
TORSDOF 4
ENDMDL
ENDMDL
