REMARK  Name = No_452-gen_results/8p0m/2024-11-27-11-27-31/
REMARK  7 active torsions:
REMARK  status: ('A' for Active; 'I' for Inactive)
REMARK    1  A    between atoms: C_3  and  C_11
REMARK    2  A    between atoms: C_11  and  C_12
REMARK    3  A    between atoms: C_12  and  C_22
REMARK    4  A    between atoms: C_13  and  C_14
REMARK    5  A    between atoms: C_16  and  C_17
REMARK    6  A    between atoms: C_17  and  C_25
REMARK    7  A    between atoms: C_25  and  C_26
REMARK                            x       y       z     vdW  Elec       q    Type
REMARK                         _______ _______ _______ _____ _____    ______ ____
ROOT
ATOM      1  C   UNL A   1     -25.279   2.473  27.846  0.00  0.00    +0.025 C 
ATOM      2  C   UNL A   1     -25.451   2.828  28.803  0.00  0.00    -0.003 C 
ENDROOT
BRANCH   2   3
ATOM      3  C   UNL A   1     -25.750   2.040  29.860  0.00  0.00    -0.001 A 
ATOM      4  C   UNL A   1     -24.735   1.666  30.492  0.00  0.00    -0.004 A 
ATOM      5  C   UNL A   1     -24.965   0.806  31.665  0.00  0.00    -0.022 A 
ATOM      6  C   UNL A   1     -26.220   1.016  32.324  0.00  0.00    -0.004 A 
ATOM      7  C   UNL A   1     -27.274   1.604  31.623  0.00  0.00    -0.000 A 
ATOM      8  C   UNL A   1     -26.934   2.463  30.784  0.00  0.00    -0.000 A 
BRANCH   5   9
ATOM      9  C   UNL A   1     -23.953   0.046  32.228  0.00  0.00    +0.031 C 
BRANCH   9  10
ATOM     10  C   UNL A   1     -23.803  -1.226  31.567  0.00  0.00    +0.031 C 
BRANCH  10  11
ATOM     11  C   UNL A   1     -24.768  -1.846  30.923  0.00  0.00    -0.022 A 
ATOM     12  C   UNL A   1     -24.407  -2.717  29.808  0.00  0.00    -0.004 A 
ATOM     13  C   UNL A   1     -25.418  -3.501  29.216  0.00  0.00    -0.000 A 
ATOM     14  C   UNL A   1     -26.566  -3.749  29.958  0.00  0.00    -0.000 A 
ATOM     15  C   UNL A   1     -27.001  -2.873  30.932  0.00  0.00    -0.000 A 
ATOM     16  C   UNL A   1     -26.042  -2.031  31.549  0.00  0.00    -0.004 A 
ENDBRANCH  10  11
ENDBRANCH   9  10
ENDBRANCH   5   9
ENDBRANCH   2   3
BRANCH   1  17
ATOM     17  C   UNL A   1     -24.299   3.113  26.813  0.00  0.00    +0.337 C 
ATOM     18  F   UNL A   1     -23.575   2.696  25.995  0.00  0.00    -0.194 F 
ATOM     19  F   UNL A   1     -24.365   4.553  26.851  0.00  0.00    -0.194 F 
ENDBRANCH   1  17
BRANCH   1  20
ATOM     20  C   UNL A   1     -25.709   1.390  27.049  0.00  0.00    +0.046 C 
ATOM     21  C   UNL A   1     -25.187   0.817  25.855  0.00  0.00    +0.009 C 
BRANCH  20  24
ATOM     22  C   UNL A   1     -28.016  -0.814  28.878  0.00  0.00    -0.000 A 
ATOM     23  C   UNL A   1     -27.064  -0.119  28.608  0.00  0.00    -0.004 A 
ATOM     24  C   UNL A   1     -27.001   0.691  27.491  0.00  0.00    -0.019 A 
ATOM     25  C   UNL A   1     -28.137   0.736  26.635  0.00  0.00    -0.004 A 
ATOM     26  C   UNL A   1     -29.236   0.076  27.069  0.00  0.00    -0.000 A 
ATOM     27  C   UNL A   1     -29.218  -0.643  28.175  0.00  0.00    -0.000 A 
ATOM     28  C   UNL A   1     -30.523   0.081  26.369  0.00  0.00    -0.000 A 
ATOM     29  C   UNL A   1     -31.526  -0.509  26.865  0.00  0.00    -0.000 A 
ATOM     30  C   UNL A   1     -31.443  -1.219  28.091  0.00  0.00    -0.000 A 
ATOM     31  C   UNL A   1     -30.327  -1.300  28.734  0.00  0.00    -0.000 A 
ENDBRANCH  20  24
ENDBRANCH   1  20
TORSDOF 7
