MODEL 4520
MODEL 1
REMARK VINA RESULT:    -6.732      0.000      0.000
REMARK INTER + INTRA:          -7.907
REMARK INTER:                  -7.519
REMARK INTRA:                  -0.389
REMARK UNBOUND:                -0.389
REMARK  Name = No_4520-gen_results/8p0m/2024-11-27-11-27-31/
REMARK  2 active torsions:
REMARK  status: ('A' for Active; 'I' for Inactive)
REMARK    1  A    between atoms: C_4  and  O_7
REMARK    2  A    between atoms: O_7  and  C_8
REMARK                            x       y       z     vdW  Elec       q    Type
REMARK                         _______ _______ _______ _____ _____    ______ ____
ROOT
ATOM      1  O   UNL A   1     -24.342  -0.989  29.372  0.00  0.00    -0.454 OA
ENDROOT
BRANCH   1   2
ATOM      2  C   UNL A   1     -24.780  -2.220  28.964  0.00  0.00    +0.145 A 
ATOM      3  C   UNL A   1     -23.783  -3.196  28.828  0.00  0.00    +0.037 A 
ATOM      4  C   UNL A   1     -24.225  -4.561  28.543  0.00  0.00    +0.003 A 
ATOM      5  C   UNL A   1     -25.203  -5.123  29.320  0.00  0.00    -0.004 A 
ATOM      6  C   UNL A   1     -26.266  -4.138  29.653  0.00  0.00    -0.019 A 
ATOM      7  C   UNL A   1     -25.914  -2.690  29.860  0.00  0.00    +0.033 A 
ATOM      8  C   UNL A   1     -27.542  -4.568  30.101  0.00  0.00    +0.031 C 
ENDBRANCH   1   2
BRANCH   1  12
ATOM      9  C   UNL A   1     -21.950   1.391  27.765  0.00  0.00    +0.003 A 
ATOM     10  C   UNL A   1     -22.601   1.685  26.990  0.00  0.00    +0.000 A 
ATOM     11  C   UNL A   1     -22.523   0.402  28.756  0.00  0.00    +0.037 A 
ATOM     12  C   UNL A   1     -23.794  -0.161  28.514  0.00  0.00    +0.145 A 
ATOM     13  C   UNL A   1     -23.925   1.237  26.502  0.00  0.00    +0.003 A 
ATOM     14  C   UNL A   1     -24.481   0.322  27.384  0.00  0.00    +0.037 A 
ENDBRANCH   1  12
TORSDOF 2
ENDMDL
ENDMDL
