MODEL 4521
MODEL 1
REMARK VINA RESULT:    -7.553      0.000      0.000
REMARK INTER + INTRA:         -10.566
REMARK INTER:                  -9.319
REMARK INTRA:                  -1.247
REMARK UNBOUND:                -1.247
REMARK  Name = No_4521-gen_results/8p0m/2024-11-27-11-27-31/
REMARK  4 active torsions:
REMARK  status: ('A' for Active; 'I' for Inactive)
REMARK    1  A    between atoms: C_2  and  C_3
REMARK    2  A    between atoms: C_5  and  C_16
REMARK    3  A    between atoms: C_13  and  C_21
REMARK    4  A    between atoms: C_16  and  N_17
REMARK                            x       y       z     vdW  Elec       q    Type
REMARK                         _______ _______ _______ _____ _____    ______ ____
ROOT
ATOM      1  C   UNL A   1     -25.440  -1.653  30.859  0.00  0.00    +0.050 A 
ATOM      2  C   UNL A   1     -24.130  -1.747  30.323  0.00  0.00    +0.033 A 
ATOM      3  C   UNL A   1     -26.369  -2.655  30.367  0.00  0.00    -0.018 A 
ATOM      4  C   UNL A   1     -23.833  -2.661  29.287  0.00  0.00    +0.000 A 
ATOM      5  C   UNL A   1     -25.996  -3.688  29.469  0.00  0.00    -0.004 A 
ATOM      6  C   UNL A   1     -24.712  -3.647  28.935  0.00  0.00    -0.001 A 
ATOM      7  C   UNL A   1     -27.742  -2.713  30.952  0.00  0.00    +0.031 C 
ENDROOT
BRANCH   1   9
ATOM      8  O   UNL A   1     -25.465  -0.754  32.881  0.00  0.00    -0.270 OA
ATOM      9  C   UNL A   1     -25.819  -0.702  31.785  0.00  0.00    +0.248 C 
ATOM     10  N   UNL A   1     -26.570   0.437  31.227  0.00  0.00    -0.276 N 
ATOM     11  C   UNL A   1     -27.006   0.663  29.887  0.00  0.00    +0.094 C 
ATOM     12  C   UNL A   1     -27.530   1.777  29.692  0.00  0.00    +0.033 C 
ATOM     13  C   UNL A   1     -26.867   1.510  32.185  0.00  0.00    +0.094 C 
ATOM     14  C   UNL A   1     -27.752   2.606  30.710  0.00  0.00    +0.107 C 
ATOM     15  C   UNL A   1     -27.421   2.631  31.818  0.00  0.00    +0.033 C 
BRANCH  14  16
ATOM     16  C   UNL A   1     -28.538   3.991  30.208  0.00  0.00    +0.364 C 
ATOM     17  O   UNL A   1     -29.233   3.939  29.357  0.00  0.00    -0.246 OA
ATOM     18  O   UNL A   1     -27.950   5.131  30.630  0.00  0.00    -0.246 OA
ENDBRANCH  14  16
ENDBRANCH   1   9
BRANCH   2  19
ATOM     19  C   UNL A   1     -23.097  -0.736  30.628  0.00  0.00    +0.263 C 
ATOM     20  F   UNL A   1     -22.537  -0.730  31.642  0.00  0.00    -0.210 F 
BRANCH  19  21
ATOM     21  N   UNL A   1     -22.800  -0.096  29.603  0.00  0.00    -0.245 N 
ATOM     22  C   UNL A   1     -21.755  -0.100  28.868  0.00  0.00    +0.232 C 
ATOM     23  O   UNL A   1     -20.924  -0.951  29.079  0.00  0.00    -0.274 OA
ATOM     24  C   UNL A   1     -21.650   0.807  27.631  0.00  0.00    +0.112 C 
ATOM     25  C   UNL A   1     -23.819   1.080  29.145  0.00  0.00    +0.124 C 
ATOM     26  C   UNL A   1     -23.626   1.786  28.000  0.00  0.00    +0.013 A 
ATOM     27  C   UNL A   1     -22.519   1.681  27.282  0.00  0.00    -0.012 A 
ATOM     28  C   UNL A   1     -24.706   2.807  27.704  0.00  0.00    +0.096 A 
ATOM     29  N   UNL A   1     -24.675   3.307  26.497  0.00  0.00    -0.243 NA
ATOM     30  C   UNL A   1     -23.713   3.147  25.587  0.00  0.00    +0.099 A 
ATOM     31  C   UNL A   1     -22.610   2.341  25.947  0.00  0.00    +0.017 A 
ENDBRANCH  19  21
ENDBRANCH   2  19
TORSDOF 4
ENDMDL
ENDMDL
