MODEL 4522
MODEL 1
REMARK VINA RESULT:    -4.392      0.000      0.000
REMARK INTER + INTRA:          -4.392
REMARK INTER:                  -4.392
REMARK INTRA:                   0.000
REMARK UNBOUND:                 0.000
REMARK  Name = No_4522-gen_results/8p0m/2024-11-27-11-27-31/
REMARK  0 active torsions:
REMARK  status: ('A' for Active; 'I' for Inactive)
REMARK                            x       y       z     vdW  Elec       q    Type
REMARK                         _______ _______ _______ _____ _____    ______ ____
ROOT
ATOM      1  C   UNL A   1     -25.403  -2.584  29.649  0.00  0.00    +0.011 A 
ATOM      2  C   UNL A   1     -24.322  -2.867  29.187  0.00  0.00    +0.058 A 
ATOM      3  C   UNL A   1     -24.021  -4.172  28.813  0.00  0.00    +0.011 A 
ATOM      4  C   UNL A   1     -24.971  -5.237  29.007  0.00  0.00    +0.001 A 
ATOM      5  C   UNL A   1     -26.187  -4.825  29.568  0.00  0.00    +0.000 A 
ATOM      6  C   UNL A   1     -26.416  -3.581  29.920  0.00  0.00    +0.001 A 
ATOM      7 CL   UNL A   1     -23.059  -1.740  28.934  0.00  0.00    -0.082 Cl
ENDROOT
TORSDOF 0
ENDMDL
ENDMDL
