MODEL 4523
MODEL 1
REMARK VINA RESULT:    -7.213      0.000      0.000
REMARK INTER + INTRA:         -13.754
REMARK INTER:                  -9.321
REMARK INTRA:                  -4.433
REMARK UNBOUND:                -4.433
REMARK  Name = No_4523-gen_results/8p0m/2024-11-27-11-27-31/
REMARK  5 active torsions:
REMARK  status: ('A' for Active; 'I' for Inactive)
REMARK    1  A    between atoms: C_2  and  C_25
REMARK    2  A    between atoms: C_12  and  C_16
REMARK    3  A    between atoms: C_16  and  C_17
REMARK    4  A    between atoms: C_18  and  C_19
REMARK    5  A    between atoms: C_26  and  C_27
REMARK                            x       y       z     vdW  Elec       q    Type
REMARK                         _______ _______ _______ _____ _____    ______ ____
ROOT
ATOM      1  C   UNL A   1     -27.467  -0.700  29.281  0.00  0.00    -0.000 A 
ATOM      2  C   UNL A   1     -26.606  -0.608  30.125  0.00  0.00    -0.004 A 
ATOM      3  C   UNL A   1     -26.163   0.607  30.646  0.00  0.00    -0.027 A 
ATOM      4  C   UNL A   1     -26.711   1.843  30.119  0.00  0.00    -0.026 A 
ATOM      5  C   UNL A   1     -26.335   3.087  30.560  0.00  0.00    +0.026 C 
ATOM      6  C   UNL A   1     -28.006   0.482  28.608  0.00  0.00    -0.000 A 
ATOM      7  C   UNL A   1     -27.643   1.750  29.060  0.00  0.00    -0.005 A 
ATOM      8  C   UNL A   1     -25.068   3.129  31.391  0.00  0.00    +0.005 C 
ATOM      9  C   UNL A   1     -24.831   2.138  32.317  0.00  0.00    +0.004 C 
ATOM     10  C   UNL A   1     -25.102   0.781  31.740  0.00  0.00    +0.019 C 
ATOM     11  C   UNL A   1     -25.245  -0.239  32.906  0.00  0.00    +0.004 C 
ATOM     12  C   UNL A   1     -23.731   0.284  31.059  0.00  0.00    +0.008 C 
ATOM     13  C   UNL A   1     -24.329  -1.032  33.395  0.00  0.00    +0.000 C 
ATOM     14  C   UNL A   1     -23.117  -1.256  32.768  0.00  0.00    +0.000 C 
ATOM     15  C   UNL A   1     -22.744  -0.555  31.644  0.00  0.00    +0.001 C 
ENDROOT
BRANCH   2  16
ATOM     16  C   UNL A   1     -26.037  -1.890  30.752  0.00  0.00    -0.000 C 
ATOM     17  C   UNL A   1     -25.383  -2.783  29.888  0.00  0.00    -0.000 C 
BRANCH  17  18
ATOM     18  C   UNL A   1     -24.979  -2.648  28.963  0.00  0.00    -0.005 C 
ATOM     19  C   UNL A   1     -24.299  -3.701  28.233  0.00  0.00    -0.026 C 
ATOM     20  C   UNL A   1     -24.329  -4.896  28.820  0.00  0.00    +0.031 C 
ENDBRANCH  17  18
ENDBRANCH   2  16
BRANCH  12  21
ATOM     21  C   UNL A   1     -23.409   0.977  29.747  0.00  0.00    +0.026 C 
BRANCH  21  22
ATOM     22  C   UNL A   1     -23.181   0.043  28.701  0.00  0.00    -0.026 C 
ATOM     23  C   UNL A   1     -23.299   0.601  27.415  0.00  0.00    -0.005 C 
BRANCH  23  24
ATOM     24  C   UNL A   1     -24.467   0.828  26.899  0.00  0.00    -0.000 A 
ATOM     25  C   UNL A   1     -25.198  -0.226  26.310  0.00  0.00    -0.000 A 
ATOM     26  C   UNL A   1     -26.163   0.036  25.403  0.00  0.00    -0.000 A 
ATOM     27  C   UNL A   1     -26.614   1.375  25.252  0.00  0.00    -0.000 A 
ATOM     28  C   UNL A   1     -25.946   2.385  25.871  0.00  0.00    -0.000 A 
ATOM     29  C   UNL A   1     -24.819   2.080  26.667  0.00  0.00    -0.000 A 
ENDBRANCH  23  24
ENDBRANCH  21  22
ENDBRANCH  12  21
TORSDOF 5
ENDMDL
ENDMDL
