MODEL 4524
MODEL 1
REMARK VINA RESULT:    -5.981      0.000      0.000
REMARK INTER + INTRA:          -6.807
REMARK INTER:                  -6.681
REMARK INTRA:                  -0.127
REMARK UNBOUND:                -0.127
REMARK  Name = No_4524-gen_results/8p0m/2024-11-27-11-27-31/
REMARK  2 active torsions:
REMARK  status: ('A' for Active; 'I' for Inactive)
REMARK    1  A    between atoms: C_3  and  C_14
REMARK    2  A    between atoms: C_5  and  C_11
REMARK                            x       y       z     vdW  Elec       q    Type
REMARK                         _______ _______ _______ _____ _____    ______ ____
ROOT
ATOM      1  C   UNL A   1     -30.850  -9.152  30.221  0.00  0.00    +0.017 A 
ATOM      2  C   UNL A   1     -30.103  -9.853  30.863  0.00  0.00    -0.011 A 
ATOM      3  C   UNL A   1     -29.791  -9.672  32.200  0.00  0.00    +0.126 C 
ATOM      4  C   UNL A   1     -28.844 -10.443  32.968  0.00  0.00    +0.027 C 
ATOM      5  C   UNL A   1     -28.152 -11.498  32.326  0.00  0.00    +0.109 C 
ATOM      6  C   UNL A   1     -28.428 -11.740  30.955  0.00  0.00    +0.040 C 
ATOM      7  C   UNL A   1     -29.318 -10.938  30.309  0.00  0.00    +0.010 A 
ATOM      8  C   UNL A   1     -31.230  -9.553  28.824  0.00  0.00    +0.100 A 
ATOM      9  N   UNL A   1     -30.432 -10.445  28.170  0.00  0.00    -0.226 NA
ATOM     10  C   UNL A   1     -29.584 -11.218  28.864  0.00  0.00    +0.165 A 
ATOM     11  N   UNL A   1     -28.916 -12.190  28.264  0.00  0.00    -0.108 NA
ENDROOT
BRANCH   5  12
ATOM     12  C   UNL A   1     -27.191 -12.348  33.072  0.00  0.00    +0.365 C 
ATOM     13  O   UNL A   1     -26.351 -12.973  32.371  0.00  0.00    -0.246 OA
ATOM     14  O   UNL A   1     -27.223 -12.392  34.327  0.00  0.00    -0.246 OA
ENDBRANCH   5  12
BRANCH   3  15
ATOM     15  C   UNL A   1     -30.378  -8.539  32.951  0.00  0.00    +0.368 C 
ATOM     16  O   UNL A   1     -31.354  -8.554  33.462  0.00  0.00    -0.245 OA
ATOM     17  O   UNL A   1     -29.678  -7.398  32.892  0.00  0.00    -0.245 OA
ENDBRANCH   3  15
TORSDOF 2
ENDMDL
ENDMDL
