MODEL 4525
MODEL 1
REMARK VINA RESULT:    -7.649      0.000      0.000
REMARK INTER + INTRA:          -9.096
REMARK INTER:                  -8.544
REMARK INTRA:                  -0.552
REMARK UNBOUND:                -0.552
REMARK  Name = No_4525-gen_results/8p0m/2024-11-27-11-27-31/
REMARK  2 active torsions:
REMARK  status: ('A' for Active; 'I' for Inactive)
REMARK    1  A    between atoms: C_3  and  C_4
REMARK    2  A    between atoms: C_6  and  C_12
REMARK                            x       y       z     vdW  Elec       q    Type
REMARK                         _______ _______ _______ _____ _____    ______ ____
ROOT
ATOM      1  C   UNL A   1     -23.480   1.357  30.019  0.00  0.00    +0.034 A 
ATOM      2  C   UNL A   1     -23.955   0.705  30.697  0.00  0.00    +0.140 A 
ATOM      3  C   UNL A   1     -23.304   0.787  28.684  0.00  0.00    +0.074 A 
ATOM      4  C   UNL A   1     -24.489  -0.648  30.622  0.00  0.00    +0.030 A 
ATOM      5  C   UNL A   1     -24.330  -1.226  29.379  0.00  0.00    +0.002 A 
ATOM      6  C   UNL A   1     -23.788  -0.512  28.376  0.00  0.00    +0.004 A 
ATOM      7  F   UNL A   1     -24.220   1.246  32.030  0.00  0.00    -0.204 F 
ENDROOT
BRANCH   5   8
ATOM      8  C   UNL A   1     -24.789  -2.633  29.104  0.00  0.00    +0.000 A 
ATOM      9  C   UNL A   1     -24.087  -3.452  28.730  0.00  0.00    +0.000 A 
ATOM     10  C   UNL A   1     -23.956  -4.614  28.522  0.00  0.00    +0.000 A 
ATOM     11  C   UNL A   1     -24.979  -5.469  29.096  0.00  0.00    +0.000 A 
ATOM     12  C   UNL A   1     -26.079  -4.669  29.585  0.00  0.00    +0.000 A 
ATOM     13  C   UNL A   1     -25.986  -3.263  29.725  0.00  0.00    +0.000 A 
ENDBRANCH   5   8
BRANCH   3  14
ATOM     14  C   UNL A   1     -22.759   1.542  27.533  0.00  0.00    +0.419 C 
ATOM     15  F   UNL A   1     -23.037   2.618  27.427  0.00  0.00    -0.166 F 
ATOM     16  F   UNL A   1     -21.467   1.274  27.266  0.00  0.00    -0.166 F 
ATOM     17  F   UNL A   1     -23.358   0.935  26.296  0.00  0.00    -0.166 F 
ENDBRANCH   3  14
TORSDOF 2
ENDMDL
ENDMDL
