MODEL 4527
MODEL 1
REMARK VINA RESULT:    -5.153      0.000      0.000
REMARK INTER + INTRA:          -5.630
REMARK INTER:                  -5.454
REMARK INTRA:                  -0.176
REMARK UNBOUND:                -0.176
REMARK  Name = No_4527-gen_results/8p0m/2024-11-27-11-27-31/
REMARK  1 active torsions:
REMARK  status: ('A' for Active; 'I' for Inactive)
REMARK    1  A    between atoms: C_3  and  C_7
REMARK                            x       y       z     vdW  Elec       q    Type
REMARK                         _______ _______ _______ _____ _____    ______ ____
ROOT
ATOM      1  C   UNL A   1     -25.621  -2.658  29.814  0.00  0.00    -0.000 A 
ATOM      2  C   UNL A   1     -26.324  -3.442  29.863  0.00  0.00    -0.000 A 
ATOM      3  C   UNL A   1     -24.360  -3.044  29.168  0.00  0.00    -0.000 A 
ATOM      4  C   UNL A   1     -24.075  -4.307  28.850  0.00  0.00    -0.000 A 
ATOM      5  C   UNL A   1     -26.242  -4.859  29.609  0.00  0.00    -0.000 A 
ATOM      6  C   UNL A   1     -25.054  -5.202  29.033  0.00  0.00    -0.000 A 
ENDROOT
BRANCH   3   7
ATOM      7  C   UNL A   1     -23.347  -1.916  28.962  0.00  0.00    -0.005 C 
ATOM      8  C   UNL A   1     -23.852  -0.613  28.586  0.00  0.00    -0.026 C 
ATOM      9  C   UNL A   1     -22.909   0.374  28.223  0.00  0.00    +0.031 C 
ENDBRANCH   3   7
TORSDOF 1
ENDMDL
ENDMDL
