MODEL 4528
MODEL 1
REMARK VINA RESULT:    -5.620      0.000      0.000
REMARK INTER + INTRA:          -6.894
REMARK INTER:                  -6.606
REMARK INTRA:                  -0.288
REMARK UNBOUND:                -0.288
REMARK  Name = No_4528-gen_results/8p0m/2024-11-27-11-27-31/
REMARK  3 active torsions:
REMARK  status: ('A' for Active; 'I' for Inactive)
REMARK    1  A    between atoms: C_2  and  C_3
REMARK    2  A    between atoms: C_2  and  N_4
REMARK    3  A    between atoms: C_10  and  C_11
REMARK                            x       y       z     vdW  Elec       q    Type
REMARK                         _______ _______ _______ _____ _____    ______ ____
ROOT
ATOM      1  O   UNL A   1     -25.169  -0.072  29.962  0.00  0.00    -0.268 OA
ATOM      2  C   UNL A   1     -24.313  -0.408  29.267  0.00  0.00    +0.269 C 
ENDROOT
BRANCH   2   3
ATOM      3  C   UNL A   1     -23.736   0.460  28.363  0.00  0.00    +0.055 A 
ATOM      4  C   UNL A   1     -24.338   0.628  27.185  0.00  0.00    +0.005 A 
ATOM      5  C   UNL A   1     -23.900   1.563  26.157  0.00  0.00    +0.000 A 
ATOM      6  C   UNL A   1     -22.534   1.916  26.277  0.00  0.00    +0.000 A 
ATOM      7  C   UNL A   1     -21.837   1.676  27.455  0.00  0.00    +0.000 A 
ATOM      8  C   UNL A   1     -22.382   0.933  28.453  0.00  0.00    +0.005 A 
ENDBRANCH   2   3
BRANCH   2   9
ATOM      9  N   UNL A   1     -23.853  -1.805  29.160  0.00  0.00    -0.174 NA
ATOM     10  C   UNL A   1     -24.474  -2.698  28.888  0.00  0.00    +0.089 C 
BRANCH  10  11
ATOM     11  C   UNL A   1     -23.956  -3.832  28.640  0.00  0.00    +0.013 C 
ATOM     12  C   UNL A   1     -24.694  -5.040  28.864  0.00  0.00    -0.024 C 
ATOM     13  C   UNL A   1     -25.923  -4.892  29.572  0.00  0.00    +0.031 C 
ENDBRANCH  10  11
ENDBRANCH   2   9
TORSDOF 3
ENDMDL
ENDMDL
