MODEL 452
MODEL 1
REMARK VINA RESULT:    -7.735      0.000      0.000
REMARK INTER + INTRA:         -14.872
REMARK INTER:                 -10.900
REMARK INTRA:                  -3.972
REMARK UNBOUND:                -3.972
REMARK  Name = No_452-gen_results/8p0m/2024-11-27-11-27-31/
REMARK  7 active torsions:
REMARK  status: ('A' for Active; 'I' for Inactive)
REMARK    1  A    between atoms: C_3  and  C_11
REMARK    2  A    between atoms: C_11  and  C_12
REMARK    3  A    between atoms: C_12  and  C_22
REMARK    4  A    between atoms: C_13  and  C_14
REMARK    5  A    between atoms: C_16  and  C_17
REMARK    6  A    between atoms: C_17  and  C_25
REMARK    7  A    between atoms: C_25  and  C_26
REMARK                            x       y       z     vdW  Elec       q    Type
REMARK                         _______ _______ _______ _____ _____    ______ ____
ROOT
ATOM      1  C   UNL A   1     -25.544   1.974  26.317  0.00  0.00    +0.025 C 
ATOM      2  C   UNL A   1     -24.574   1.724  26.058  0.00  0.00    -0.003 C 
ENDROOT
BRANCH   2   3
ATOM      3  C   UNL A   1     -23.591   1.479  26.952  0.00  0.00    -0.001 A 
ATOM      4  C   UNL A   1     -23.685   0.349  27.483  0.00  0.00    -0.004 A 
ATOM      5  C   UNL A   1     -22.651  -0.008  28.470  0.00  0.00    -0.022 A 
ATOM      6  C   UNL A   1     -21.377   0.611  28.252  0.00  0.00    -0.004 A 
ATOM      7  C   UNL A   1     -21.303   1.783  27.497  0.00  0.00    -0.000 A 
ATOM      8  C   UNL A   1     -22.128   1.861  26.564  0.00  0.00    -0.000 A 
BRANCH   5   9
ATOM      9  C   UNL A   1     -22.824  -1.044  29.373  0.00  0.00    +0.031 C 
BRANCH   9  10
ATOM     10  C   UNL A   1     -24.214  -1.388  29.537  0.00  0.00    +0.031 C 
BRANCH  10  11
ATOM     11  C   UNL A   1     -24.722  -2.572  29.270  0.00  0.00    -0.022 A 
ATOM     12  C   UNL A   1     -23.825  -3.614  28.779  0.00  0.00    -0.004 A 
ATOM     13  C   UNL A   1     -24.331  -4.923  28.639  0.00  0.00    -0.000 A 
ATOM     14  C   UNL A   1     -25.470  -5.259  29.360  0.00  0.00    -0.000 A 
ATOM     15  C   UNL A   1     -26.401  -4.308  29.725  0.00  0.00    -0.000 A 
ATOM     16  C   UNL A   1     -25.968  -2.964  29.855  0.00  0.00    -0.004 A 
ENDBRANCH  10  11
ENDBRANCH   9  10
ENDBRANCH   5   9
ENDBRANCH   2   3
BRANCH   1  17
ATOM     17  C   UNL A   1     -26.820   1.591  25.502  0.00  0.00    +0.337 C 
ATOM     18  F   UNL A   1     -27.958   1.844  25.585  0.00  0.00    -0.194 F 
ATOM     19  F   UNL A   1     -26.484   0.791  24.351  0.00  0.00    -0.194 F 
ENDBRANCH   1  17
BRANCH   1  20
ATOM     20  C   UNL A   1     -26.194   2.651  27.373  0.00  0.00    +0.046 C 
ATOM     21  C   UNL A   1     -26.678   3.984  27.497  0.00  0.00    +0.009 C 
BRANCH  20  24
ATOM     22  C   UNL A   1     -27.667   0.344  29.829  0.00  0.00    -0.000 A 
ATOM     23  C   UNL A   1     -27.365   0.864  28.780  0.00  0.00    -0.004 A 
ATOM     24  C   UNL A   1     -26.406   1.851  28.665  0.00  0.00    -0.019 A 
ATOM     25  C   UNL A   1     -25.710   2.247  29.842  0.00  0.00    -0.004 A 
ATOM     26  C   UNL A   1     -25.962   1.519  30.955  0.00  0.00    -0.000 A 
ATOM     27  C   UNL A   1     -26.870   0.562  30.963  0.00  0.00    -0.000 A 
ATOM     28  C   UNL A   1     -25.280   1.720  32.236  0.00  0.00    -0.000 A 
ATOM     29  C   UNL A   1     -25.522   0.961  33.218  0.00  0.00    -0.000 A 
ATOM     30  C   UNL A   1     -26.477  -0.086  33.135  0.00  0.00    -0.000 A 
ATOM     31  C   UNL A   1     -27.145  -0.286  32.049  0.00  0.00    -0.000 A 
ENDBRANCH  20  24
ENDBRANCH   1  20
TORSDOF 7
ENDMDL
ENDMDL
