REMARK  Name = No_453-gen_results/8p0m/2024-11-27-11-27-31/
REMARK  6 active torsions:
REMARK  status: ('A' for Active; 'I' for Inactive)
REMARK    1  A    between atoms: C_1  and  C_2
REMARK    2  A    between atoms: C_1  and  C_6
REMARK    3  A    between atoms: C_2  and  C_4
REMARK    4  A    between atoms: C_4  and  C_5
REMARK    5  A    between atoms: C_10  and  C_11
REMARK    6  A    between atoms: C_12  and  C_13
REMARK                            x       y       z     vdW  Elec       q    Type
REMARK                         _______ _______ _______ _____ _____    ______ ____
ROOT
ATOM      1  C   UNL A   1     -25.996  -0.389  27.694  0.00  0.00    +0.062 C 
ENDROOT
BRANCH   1   2
ATOM      2  C   UNL A   1     -27.064  -0.119  28.608  0.00  0.00    +0.174 C 
ATOM      3  F   UNL A   1     -27.079   0.985  29.174  0.00  0.00    -0.237 F 
BRANCH   2   4
ATOM      4  C   UNL A   1     -28.016  -0.814  28.878  0.00  0.00    +0.139 C 
BRANCH   4   5
ATOM      5  C   UNL A   1     -28.504  -0.807  30.326  0.00  0.00    +0.400 C 
ATOM      6  F   UNL A   1     -29.126   0.107  30.465  0.00  0.00    -0.170 F 
ATOM      7  F   UNL A   1     -27.411  -0.916  31.126  0.00  0.00    -0.170 F 
ATOM      8  F   UNL A   1     -29.179  -2.024  30.563  0.00  0.00    -0.170 F 
ENDBRANCH   4   5
ENDBRANCH   2   4
ENDBRANCH   1   2
BRANCH   1   9
ATOM      9  C   UNL A   1     -25.679   0.575  26.708  0.00  0.00    -0.023 C 
ATOM     10  C   UNL A   1     -26.402   0.683  25.747  0.00  0.00    -0.004 C 
BRANCH  10  11
ATOM     11  C   UNL A   1     -27.531   0.761  25.663  0.00  0.00    -0.000 C 
ATOM     12  C   UNL A   1     -28.403   0.840  24.998  0.00  0.00    -0.000 C 
BRANCH  12  13
ATOM     13  C   UNL A   1     -29.833   0.945  25.183  0.00  0.00    -0.005 C 
ATOM     14  C   UNL A   1     -30.183   1.013  26.500  0.00  0.00    -0.026 C 
ATOM     15  C   UNL A   1     -29.257   0.924  27.505  0.00  0.00    +0.031 C 
ENDBRANCH  12  13
ENDBRANCH  10  11
ENDBRANCH   1   9
TORSDOF 6
