MODEL 4530
MODEL 1
REMARK VINA RESULT:    -5.169      0.000      0.000
REMARK INTER + INTRA:          -5.907
REMARK INTER:                  -5.774
REMARK INTRA:                  -0.133
REMARK UNBOUND:                -0.133
REMARK  Name = No_4530-gen_results/8p0m/2024-11-27-11-27-31/
REMARK  2 active torsions:
REMARK  status: ('A' for Active; 'I' for Inactive)
REMARK    1  A    between atoms: C_4  and  O_9
REMARK    2  A    between atoms: O_9  and  C_10
REMARK                            x       y       z     vdW  Elec       q    Type
REMARK                         _______ _______ _______ _____ _____    ______ ____
ROOT
ATOM      1  C   UNL A   1     -25.752  -4.977  29.270  0.00  0.00    +0.035 A 
ATOM      2  C   UNL A   1     -26.446  -4.354  29.758  0.00  0.00    +0.032 A 
ATOM      3  C   UNL A   1     -24.496  -4.306  28.935  0.00  0.00    +0.174 A 
ATOM      4  C   UNL A   1     -24.262  -2.992  29.257  0.00  0.00    +0.175 A 
ATOM      5  C   UNL A   1     -26.472  -2.966  30.219  0.00  0.00    +0.143 A 
ATOM      6  C   UNL A   1     -25.261  -2.307  29.901  0.00  0.00    +0.069 A 
ATOM      7  F   UNL A   1     -23.476  -4.806  28.262  0.00  0.00    -0.201 F 
ATOM      8  F   UNL A   1     -27.443  -2.378  30.863  0.00  0.00    -0.204 F 
ENDROOT
BRANCH   4   9
ATOM      9  O   UNL A   1     -23.118  -2.340  28.921  0.00  0.00    -0.448 OA
BRANCH   9  10
ATOM     10  C   UNL A   1     -22.669  -1.176  29.197  0.00  0.00    +0.180 C 
ATOM     11  C   UNL A   1     -21.716  -0.541  28.989  0.00  0.00    +0.044 C 
ENDBRANCH   9  10
ENDBRANCH   4   9
TORSDOF 2
ENDMDL
ENDMDL
