MODEL 4531
MODEL 1
REMARK VINA RESULT:    -6.947      0.000      0.000
REMARK INTER + INTRA:          -6.947
REMARK INTER:                  -6.947
REMARK INTRA:                   0.000
REMARK UNBOUND:                 0.000
REMARK  Name = No_4531-gen_results/8p0m/2024-11-27-11-27-31/
REMARK  0 active torsions:
REMARK  status: ('A' for Active; 'I' for Inactive)
REMARK                            x       y       z     vdW  Elec       q    Type
REMARK                         _______ _______ _______ _____ _____    ______ ____
ROOT
ATOM      1  C   UNL A   1     -25.822  -2.709  30.210  0.00  0.00    +0.007 A 
ATOM      2  C   UNL A   1     -26.524  -3.460  29.979  0.00  0.00    +0.057 A 
ATOM      3  C   UNL A   1     -24.640  -2.725  29.341  0.00  0.00    +0.030 A 
ATOM      4  C   UNL A   1     -23.651  -1.631  29.386  0.00  0.00    +0.151 A 
ATOM      5  C   UNL A   1     -24.116  -0.339  29.719  0.00  0.00    +0.085 A 
ATOM      6  C   UNL A   1     -25.454  -0.202  30.218  0.00  0.00    +0.014 A 
ATOM      7  C   UNL A   1     -26.263  -1.259  30.311  0.00  0.00    +0.032 A 
ATOM      8  C   UNL A   1     -26.329  -4.750  29.587  0.00  0.00    +0.034 A 
ATOM      9  C   UNL A   1     -25.049  -4.934  28.967  0.00  0.00    +0.140 A 
ATOM     10  C   UNL A   1     -24.130  -3.926  28.903  0.00  0.00    +0.032 A 
ATOM     11  C   UNL A   1     -27.641  -1.147  30.748  0.00  0.00    +0.279 C 
ATOM     12  N   UNL A   1     -28.361  -2.192  31.033  0.00  0.00    -0.165 NA
ATOM     13  C   UNL A   1     -27.955  -3.407  30.636  0.00  0.00    +0.267 C 
ATOM     14  F   UNL A   1     -28.076  -0.014  31.250  0.00  0.00    -0.208 F 
ATOM     15  O   UNL A   1     -28.747  -4.387  30.923  0.00  0.00    -0.268 OA
ATOM     16 CL   UNL A   1     -23.136   1.006  29.627  0.00  0.00    -0.080 Cl
ATOM     17  F   UNL A   1     -24.717  -6.200  28.545  0.00  0.00    -0.204 F 
ATOM     18  F   UNL A   1     -22.485  -1.766  28.878  0.00  0.00    -0.203 F 
ENDROOT
TORSDOF 0
ENDMDL
ENDMDL
