REMARK  Name = outputs/IAG933/test6/raw/output_4531_IAG933_linker_design_.xyz
REMARK  15 active torsions:
REMARK  status: ('A' for Active; 'I' for Inactive)
REMARK    1  A    between atoms: C_1  and  C_2
REMARK    2  A    between atoms: C_1  and  C_8
REMARK    3  A    between atoms: C_1  and  N_43
REMARK    4  A    between atoms: C_14  and  C_15
REMARK    5  A    between atoms: C_15  and  O_18
REMARK    6  A    between atoms: O_18  and  C_38
REMARK    7  A    between atoms: C_21  and  O_22
REMARK    8  A    between atoms: O_22  and  C_23
REMARK    9  A    between atoms: C_23  and  C_24
REMARK   10  A    between atoms: N_29  and  C_36
REMARK   11  A    between atoms: N_29  and  C_38
REMARK   12  A    between atoms: N_30  and  C_39
REMARK   13  A    between atoms: C_31  and  C_38
REMARK   14  A    between atoms: C_36  and  C_39
REMARK   15  A    between atoms: C_36  and  N_43
REMARK                            x       y       z     vdW  Elec       q    Type
REMARK                         _______ _______ _______ _____ _____    ______ ____
ROOT
ATOM      1  O   UNL A   1     -25.174   4.239  30.729  0.00  0.00    -0.159 OA
ATOM      2  C   UNL A   1     -25.537   3.581  29.589  0.00  0.00    +0.357 C 
ENDROOT
BRANCH   2   4
ATOM      3  C   UNL A   1     -29.418   3.186  29.580  0.00  0.00    +0.049 C 
ATOM      4  C   UNL A   1     -27.125   3.582  29.696  0.00  0.00    +0.129 C 
ATOM      5  C   UNL A   1     -28.214   2.600  29.635  0.00  0.00    +0.205 C 
ATOM      6  C   UNL A   1     -29.383   4.542  29.748  0.00  0.00    +0.039 C 
ATOM      7  O   UNL A   1     -28.021   1.202  29.475  0.00  0.00    -0.286 OA
ATOM      8  S   UNL A   1     -27.842   5.110  29.870  0.00  0.00    -0.080 S 
ENDBRANCH   2   4
BRANCH   2   9
ATOM      9  O   UNL A   1     -25.143   3.966  28.243  0.00  0.00    -0.423 OA
BRANCH   9  10
ATOM     10  C   UNL A   1     -25.642   4.093  27.123  0.00  0.00    +0.225 C 
ATOM     11  N   UNL A   1     -25.614   5.252  26.449  0.00  0.00    -0.236 NA
ATOM     12  C   UNL A   1     -25.026   6.479  26.963  0.00  0.00    +0.155 C 
BRANCH  10  14
ATOM     13  C   UNL A   1     -25.688   1.614  26.461  0.00  0.00    +0.041 C 
ATOM     14  C   UNL A   1     -26.250   2.920  26.395  0.00  0.00    +0.074 C 
ATOM     15  C   UNL A   1     -27.438   3.091  25.645  0.00  0.00    +0.107 C 
ATOM     16  N   UNL A   1     -28.075   2.089  25.003  0.00  0.00    -0.208 NA
ATOM     17  C   UNL A   1     -27.543   0.849  25.079  0.00  0.00    +0.253 C 
ATOM     18  C   UNL A   1     -26.354   0.576  25.777  0.00  0.00    +0.193 C 
ATOM     19  F   UNL A   1     -25.860  -0.681  25.795  0.00  0.00    -0.199 F 
BRANCH  17  20
ATOM     20  O   UNL A   1     -28.193  -0.208  24.477  0.00  0.00    -0.456 OA
BRANCH  20  21
ATOM     21  C   UNL A   1     -29.460   0.005  23.866  0.00  0.00    +0.243 C 
BRANCH  21  22
ATOM     22  C   UNL A   1     -30.065  -1.377  23.573  0.00  0.00    +0.229 C 
ATOM     23  O   UNL A   1     -30.729  -1.878  24.721  0.00  0.00    -0.216 OA
ENDBRANCH  21  22
ENDBRANCH  20  21
ENDBRANCH  17  20
ENDBRANCH  10  14
ENDBRANCH   9  10
ENDBRANCH   2   9
BRANCH   2  24
ATOM     24  N   UNL A   1     -24.914   2.125  29.623  0.00  0.00    -0.134 NA
BRANCH  24  25
ATOM     25  C   UNL A   1     -23.791   1.117  29.185  0.00  0.00    +0.178 C 
BRANCH  25  26
ATOM     26  C   UNL A   1     -22.317   0.692  29.686  0.00  0.00    +0.185 C 
BRANCH  26  27
ATOM     27  N   UNL A   1     -21.575   0.811  28.284  0.00  0.00    -0.136 N 
ATOM     28  C   UNL A   1     -21.847   1.556  27.463  0.00  0.00    +0.373 C 
ATOM     29  O   UNL A   1     -20.825   1.394  27.856  0.00  0.00    -0.329 OA
ATOM     30  N   UNL A   1     -22.446   1.978  26.452  0.00  0.00    -0.085 NA
ENDBRANCH  26  27
ENDBRANCH  25  26
BRANCH  25  31
ATOM     31  N   UNL A   1     -24.501  -0.168  29.128  0.00  0.00    -0.196 NA
BRANCH  31  32
ATOM     32  C   UNL A   1     -24.855  -1.012  30.143  0.00  0.00    +0.112 C 
BRANCH  32  33
ATOM     33  C   UNL A   1     -24.973  -2.505  29.788  0.00  0.00    -0.005 C 
ATOM     34  C   UNL A   1     -23.906  -3.173  29.146  0.00  0.00    -0.003 C 
ATOM     35  C   UNL A   1     -23.989  -4.549  28.853  0.00  0.00    -0.000 C 
ATOM     36  C   UNL A   1     -25.137  -5.280  29.205  0.00  0.00    -0.000 C 
ATOM     37  C   UNL A   1     -26.232  -4.611  29.784  0.00  0.00    -0.000 C 
ATOM     38  C   UNL A   1     -26.155  -3.232  30.065  0.00  0.00    -0.003 C 
ENDBRANCH  32  33
BRANCH  32  39
ATOM     39  C   UNL A   1     -25.387  -0.679  31.571  0.00  0.00    +0.093 C 
ATOM     40  C   UNL A   1     -25.189   0.773  32.028  0.00  0.00    +0.021 C 
ATOM     41  C   UNL A   1     -25.336   0.684  33.544  0.00  0.00    +0.020 C 
ATOM     42  C   UNL A   1     -24.829  -0.715  33.905  0.00  0.00    +0.089 C 
ATOM     43  N   UNL A   1     -24.758  -1.481  32.646  0.00  0.00    -0.218 NA
ENDBRANCH  32  39
ENDBRANCH  31  32
ENDBRANCH  25  31
ENDBRANCH  24  25
ENDBRANCH   2  24
TORSDOF 15
