MODEL 4532
MODEL 1
REMARK VINA RESULT:    -7.304      0.000      0.000
REMARK INTER + INTRA:         -11.185
REMARK INTER:                  -9.439
REMARK INTRA:                  -1.746
REMARK UNBOUND:                -1.746
REMARK  Name = No_4532-gen_results/8p0m/2024-11-27-11-27-31/
REMARK  5 active torsions:
REMARK  status: ('A' for Active; 'I' for Inactive)
REMARK    1  A    between atoms: C_2  and  O_15
REMARK    2  A    between atoms: C_3  and  C_7
REMARK    3  A    between atoms: O_15  and  C_16
REMARK    4  A    between atoms: C_21  and  C_23
REMARK    5  A    between atoms: C_23  and  P_24
REMARK                            x       y       z     vdW  Elec       q    Type
REMARK                         _______ _______ _______ _____ _____    ______ ____
ROOT
ATOM      1  C   UNL A   1     -23.138   1.320  27.719  0.00  0.00    +0.049 A 
ATOM      2  C   UNL A   1     -23.502   0.375  28.380  0.00  0.00    +0.146 A 
ATOM      3  C   UNL A   1     -24.463  -0.541  27.953  0.00  0.00    +0.035 A 
ATOM      4  C   UNL A   1     -25.115  -0.336  26.674  0.00  0.00    +0.004 A 
ATOM      5  C   UNL A   1     -24.646   0.792  25.963  0.00  0.00    +0.012 A 
ATOM      6  C   UNL A   1     -23.741   1.602  26.450  0.00  0.00    +0.061 A 
ATOM      7 CL   UNL A   1     -23.298   2.988  25.531  0.00  0.00    -0.082 Cl
ENDROOT
BRANCH   3   8
ATOM      8  C   UNL A   1     -24.949  -1.728  28.705  0.00  0.00    +0.006 A 
ATOM      9  C   UNL A   1     -24.392  -2.904  28.570  0.00  0.00    +0.042 A 
ATOM     10  C   UNL A   1     -24.941  -4.032  29.192  0.00  0.00    +0.196 A 
ATOM     11  C   UNL A   1     -26.111  -4.015  29.913  0.00  0.00    +0.042 A 
ATOM     12  C   UNL A   1     -26.211  -1.652  29.421  0.00  0.00    +0.000 A 
ATOM     13  C   UNL A   1     -26.757  -2.816  30.032  0.00  0.00    +0.003 A 
ATOM     14  O   UNL A   1     -24.253  -5.227  29.102  0.00  0.00    -0.287 OA
ENDBRANCH   3   8
BRANCH   2  15
ATOM     15  O   UNL A   1     -22.910   0.063  29.585  0.00  0.00    -0.454 OA
BRANCH  15  16
ATOM     16  C   UNL A   1     -23.507   0.561  30.693  0.00  0.00    +0.141 A 
ATOM     17  C   UNL A   1     -23.609  -0.303  31.705  0.00  0.00    +0.013 A 
ATOM     18  C   UNL A   1     -23.051  -1.437  31.823  0.00  0.00    +0.034 C 
ATOM     19  C   UNL A   1     -24.651   0.044  32.743  0.00  0.00    -0.002 A 
ATOM     20  C   UNL A   1     -25.427   1.151  32.709  0.00  0.00    -0.004 A 
ATOM     21  C   UNL A   1     -25.197   1.982  31.536  0.00  0.00    -0.012 A 
ATOM     22  C   UNL A   1     -24.383   1.702  30.515  0.00  0.00    +0.033 A 
BRANCH  21  23
ATOM     23  C   UNL A   1     -26.087   3.266  31.458  0.00  0.00    +0.085 C 
BRANCH  23  24
ATOM     24  P   UNL A   1     -25.605   4.637  31.692  0.00  0.00    +0.122 P 
ATOM     25  O   UNL A   1     -24.512   4.504  32.334  0.00  0.00    -0.460 OA
ATOM     26  O   UNL A   1     -25.331   5.257  30.255  0.00  0.00    -0.357 OA
ATOM     27  O   UNL A   1     -26.612   5.509  32.344  0.00  0.00    -0.357 OA
ENDBRANCH  23  24
ENDBRANCH  21  23
ENDBRANCH  15  16
ENDBRANCH   2  15
TORSDOF 5
ENDMDL
ENDMDL
