MODEL 4533
MODEL 1
REMARK VINA RESULT:    -7.053      0.000      0.000
REMARK INTER + INTRA:          -9.392
REMARK INTER:                  -8.703
REMARK INTRA:                  -0.689
REMARK UNBOUND:                -0.689
REMARK  Name = No_4533-gen_results/8p0m/2024-11-27-11-27-31/
REMARK  4 active torsions:
REMARK  status: ('A' for Active; 'I' for Inactive)
REMARK    1  A    between atoms: C_6  and  C_8
REMARK    2  A    between atoms: C_8  and  O_10
REMARK    3  A    between atoms: O_10  and  C_11
REMARK    4  A    between atoms: C_16  and  C_17
REMARK                            x       y       z     vdW  Elec       q    Type
REMARK                         _______ _______ _______ _____ _____    ______ ____
ROOT
ATOM      1  C   UNL A   1     -10.708   1.826  35.345  0.00  0.00    +0.149 A 
ATOM      2  C   UNL A   1      -9.852   2.073  34.434  0.00  0.00    +0.038 A 
ATOM      3  C   UNL A   1     -10.503   0.768  36.193  0.00  0.00    +0.038 A 
ATOM      4  C   UNL A   1      -9.402  -0.126  36.051  0.00  0.00    +0.003 A 
ATOM      5  C   UNL A   1      -8.621   1.197  34.228  0.00  0.00    +0.003 A 
ATOM      6  C   UNL A   1      -8.473   0.129  35.069  0.00  0.00    +0.000 A 
ENDROOT
BRANCH   6   7
ATOM      7  C   UNL A   1      -7.308  -0.733  34.902  0.00  0.00    +0.000 A 
ATOM      8  C   UNL A   1      -6.965  -1.664  34.602  0.00  0.00    +0.000 A 
ATOM      9  C   UNL A   1      -5.653  -2.261  34.559  0.00  0.00    +0.000 A 
ATOM     10  C   UNL A   1      -4.600  -1.454  34.927  0.00  0.00    +0.000 A 
ATOM     11  C   UNL A   1      -4.842  -0.192  35.340  0.00  0.00    +0.000 A 
ATOM     12  C   UNL A   1      -6.097   0.294  35.392  0.00  0.00    +0.000 A 
ENDBRANCH   6   7
BRANCH   1  13
ATOM     13  O   UNL A   1     -11.499   2.560  35.425  0.00  0.00    -0.421 OA
BRANCH  13  14
ATOM     14  C   UNL A   1     -12.857   2.477  34.802  0.00  0.00    +0.346 C 
ATOM     15  O   UNL A   1     -12.983   2.302  33.797  0.00  0.00    -0.244 OA
BRANCH  14  21
ATOM     16  C   UNL A   1     -16.010   3.641  36.509  0.00  0.00    +0.012 A 
ATOM     17  C   UNL A   1     -15.708   3.544  37.676  0.00  0.00    +0.058 A 
ATOM     18  C   UNL A   1     -14.511   3.078  38.114  0.00  0.00    +0.012 A 
ATOM     19  C   UNL A   1     -13.558   2.680  37.156  0.00  0.00    +0.007 A 
ATOM     20  C   UNL A   1     -15.051   3.342  35.476  0.00  0.00    +0.007 A 
ATOM     21  C   UNL A   1     -13.844   2.842  35.863  0.00  0.00    +0.076 A 
ATOM     22 CL   UNL A   1     -16.800   4.029  38.945  0.00  0.00    -0.082 Cl
ENDBRANCH  14  21
ENDBRANCH  13  14
ENDBRANCH   1  13
TORSDOF 4
ENDMDL
ENDMDL
