MODEL 4535
MODEL 1
REMARK VINA RESULT:    -6.694      0.000      0.000
REMARK INTER + INTRA:          -7.292
REMARK INTER:                  -7.086
REMARK INTRA:                  -0.206
REMARK UNBOUND:                -0.206
REMARK  Name = No_4535-gen_results/8p0m/2024-11-27-11-27-31/
REMARK  1 active torsions:
REMARK  status: ('A' for Active; 'I' for Inactive)
REMARK    1  A    between atoms: C_3  and  C_8
REMARK                            x       y       z     vdW  Elec       q    Type
REMARK                         _______ _______ _______ _____ _____    ______ ____
ROOT
ATOM      1  C   UNL A   1     -23.353   0.626  27.507  0.00  0.00    +0.023 A 
ATOM      2  C   UNL A   1     -24.078  -0.309  27.758  0.00  0.00    +0.059 A 
ATOM      3  C   UNL A   1     -23.795  -1.264  28.733  0.00  0.00    +0.011 A 
ATOM      4  C   UNL A   1     -22.542  -1.184  29.458  0.00  0.00    +0.002 A 
ATOM      5  C   UNL A   1     -21.743  -0.072  29.106  0.00  0.00    +0.011 A 
ATOM      6  C   UNL A   1     -22.091   0.772  28.168  0.00  0.00    +0.059 A 
ATOM      7 CL   UNL A   1     -20.989   2.026  27.799  0.00  0.00    -0.082 Cl
ATOM      8 CL   UNL A   1     -25.722  -0.514  27.135  0.00  0.00    -0.082 Cl
ENDROOT
BRANCH   3   9
ATOM      9  C   UNL A   1     -24.731  -2.418  28.898  0.00  0.00    +0.004 A 
ATOM     10  C   UNL A   1     -25.733  -2.412  29.700  0.00  0.00    +0.042 A 
ATOM     11  C   UNL A   1     -26.515  -3.624  29.897  0.00  0.00    +0.196 A 
ATOM     12  C   UNL A   1     -26.001  -4.863  29.626  0.00  0.00    +0.042 A 
ATOM     13  C   UNL A   1     -24.177  -3.772  28.630  0.00  0.00    +0.000 A 
ATOM     14  C   UNL A   1     -24.804  -4.937  28.991  0.00  0.00    +0.003 A 
ATOM     15  O   UNL A   1     -27.733  -3.501  30.575  0.00  0.00    -0.287 OA
ENDBRANCH   3   9
TORSDOF 1
ENDMDL
ENDMDL
