REMARK  Name = outputs/IAG933/test6/raw/output_4536_IAG933_linker_design_.xyz
REMARK  16 active torsions:
REMARK  status: ('A' for Active; 'I' for Inactive)
REMARK    1  A    between atoms: C_1  and  C_2
REMARK    2  A    between atoms: C_1  and  C_8
REMARK    3  A    between atoms: C_1  and  C_35
REMARK    4  A    between atoms: C_13  and  C_40
REMARK    5  A    between atoms: C_14  and  C_15
REMARK    6  A    between atoms: C_21  and  O_22
REMARK    7  A    between atoms: O_22  and  C_23
REMARK    8  A    between atoms: C_23  and  C_24
REMARK    9  A    between atoms: C_29  and  O_39
REMARK   10  A    between atoms: C_31  and  C_36
REMARK   11  A    between atoms: C_33  and  C_36
REMARK   12  A    between atoms: C_33  and  O_39
REMARK   13  A    between atoms: C_34  and  C_35
REMARK   14  A    between atoms: C_35  and  C_37
REMARK   15  A    between atoms: C_37  and  C_40
REMARK   16  A    between atoms: C_37  and  C_41
REMARK                            x       y       z     vdW  Elec       q    Type
REMARK                         _______ _______ _______ _____ _____    ______ ____
ROOT
ATOM      1  C   UNL A   1     -25.347  -0.200  28.880  0.00  0.00    +0.080 C 
ENDROOT
BRANCH   1   3
ATOM      2  C   UNL A   1     -28.196   0.923  29.002  0.00  0.00    +0.056 C 
ATOM      3  C   UNL A   1     -26.947   0.277  29.052  0.00  0.00    -0.062 C 
BRANCH   2   4
ATOM      4  O   UNL A   1     -29.369   1.456  28.987  0.00  0.00    -0.283 OA
BRANCH   4   5
ATOM      5  C   UNL A   1     -30.261   1.317  27.867  0.00  0.00    +0.172 C 
BRANCH   5   6
ATOM      6  C   UNL A   1     -30.208  -0.108  27.238  0.00  0.00    +0.147 C 
BRANCH   6   8
ATOM      7  O   UNL A   1     -31.849  -1.801  27.703  0.00  0.00    -0.246 OA
ATOM      8  C   UNL A   1     -31.610  -0.680  27.147  0.00  0.00    +0.367 C 
ATOM      9  O   UNL A   1     -32.459   0.104  26.572  0.00  0.00    -0.246 OA
ENDBRANCH   6   8
ENDBRANCH   5   6
ENDBRANCH   4   5
ENDBRANCH   2   4
ENDBRANCH   1   3
BRANCH   1  10
ATOM     10  C   UNL A   1     -24.855  -1.012  30.143  0.00  0.00    +0.051 C 
BRANCH  10  11
ATOM     11  C   UNL A   1     -24.973  -2.505  29.788  0.00  0.00    -0.020 C 
ATOM     12  C   UNL A   1     -23.906  -3.173  29.146  0.00  0.00    -0.004 C 
ATOM     13  C   UNL A   1     -23.989  -4.549  28.853  0.00  0.00    -0.000 C 
ATOM     14  C   UNL A   1     -25.137  -5.280  29.205  0.00  0.00    -0.000 C 
ATOM     15  C   UNL A   1     -26.232  -4.611  29.784  0.00  0.00    -0.000 C 
ATOM     16  C   UNL A   1     -26.155  -3.232  30.065  0.00  0.00    -0.004 C 
ENDBRANCH  10  11
BRANCH  10  17
ATOM     17  C   UNL A   1     -25.387  -0.679  31.571  0.00  0.00    +0.078 C 
ATOM     18  C   UNL A   1     -25.189   0.773  32.028  0.00  0.00    +0.019 C 
ATOM     19  C   UNL A   1     -25.336   0.684  33.544  0.00  0.00    +0.020 C 
ATOM     20  C   UNL A   1     -24.829  -0.715  33.905  0.00  0.00    +0.089 C 
ATOM     21  N   UNL A   1     -24.758  -1.481  32.646  0.00  0.00    -0.219 NA
ENDBRANCH  10  17
ENDBRANCH   1  10
BRANCH   1  22
ATOM     22  C   UNL A   1     -24.278   0.826  28.326  0.00  0.00    +0.082 C 
BRANCH  22  25
ATOM     23  O   UNL A   1     -22.405  -0.639  28.694  0.00  0.00    -0.284 OA
ATOM     24  S   UNL A   1     -21.574   1.520  27.580  0.00  0.00    -0.011 S 
ATOM     25  C   UNL A   1     -22.804   0.454  28.338  0.00  0.00    +0.209 C 
ENDBRANCH  22  25
BRANCH  22  26
ATOM     26  C   UNL A   1     -24.281   1.324  26.843  0.00  0.00    +0.017 C 
BRANCH  26  27
ATOM     27  C   UNL A   1     -25.688   1.614  26.461  0.00  0.00    +0.071 C 
ATOM     28  C   UNL A   1     -26.250   2.920  26.395  0.00  0.00    +0.055 C 
ATOM     29  C   UNL A   1     -27.438   3.091  25.645  0.00  0.00    +0.102 C 
ATOM     30  N   UNL A   1     -28.075   2.089  25.003  0.00  0.00    -0.212 NA
ATOM     31  C   UNL A   1     -27.543   0.849  25.079  0.00  0.00    +0.234 C 
ATOM     32  C   UNL A   1     -26.354   0.576  25.777  0.00  0.00    +0.240 C 
ATOM     33  F   UNL A   1     -25.860  -0.681  25.795  0.00  0.00    -0.227 F 
BRANCH  28  34
ATOM     34  C   UNL A   1     -25.642   4.093  27.123  0.00  0.00    +0.262 C 
ATOM     35  N   UNL A   1     -25.614   5.252  26.449  0.00  0.00    -0.200 NA
ATOM     36  C   UNL A   1     -25.026   6.479  26.963  0.00  0.00    +0.139 C 
ATOM     37  O   UNL A   1     -25.143   3.966  28.243  0.00  0.00    -0.269 OA
ENDBRANCH  28  34
BRANCH  31  38
ATOM     38  O   UNL A   1     -28.193  -0.208  24.477  0.00  0.00    -0.459 OA
BRANCH  38  39
ATOM     39  C   UNL A   1     -29.460   0.005  23.866  0.00  0.00    +0.242 C 
BRANCH  39  40
ATOM     40  C   UNL A   1     -30.065  -1.377  23.573  0.00  0.00    +0.229 C 
ATOM     41  O   UNL A   1     -30.729  -1.878  24.721  0.00  0.00    -0.216 OA
ENDBRANCH  39  40
ENDBRANCH  38  39
ENDBRANCH  31  38
ENDBRANCH  26  27
ENDBRANCH  22  26
ENDBRANCH   1  22
TORSDOF 16
