MODEL 4537
MODEL 1
REMARK VINA RESULT:    -7.297      0.000      0.000
REMARK INTER + INTRA:         -13.922
REMARK INTER:                 -11.562
REMARK INTRA:                  -2.359
REMARK UNBOUND:                -2.359
REMARK  Name = No_4537-gen_results/8p0m/2024-11-27-11-27-31/
REMARK  10 active torsions:
REMARK  status: ('A' for Active; 'I' for Inactive)
REMARK    1  A    between atoms: C_1  and  O_14
REMARK    2  A    between atoms: C_2  and  C_8
REMARK    3  A    between atoms: C_4  and  O_19
REMARK    4  A    between atoms: O_14  and  C_15
REMARK    5  A    between atoms: C_15  and  C_16
REMARK    6  A    between atoms: O_19  and  C_20
REMARK    7  A    between atoms: C_21  and  C_22
REMARK    8  A    between atoms: C_22  and  C_23
REMARK    9  A    between atoms: C_22  and  C_29
REMARK   10  A    between atoms: C_29  and  C_30
REMARK                            x       y       z     vdW  Elec       q    Type
REMARK                         _______ _______ _______ _____ _____    ______ ____
ROOT
ATOM      1  C   UNL A   1     -22.769 -13.822   4.180  0.00  0.00    +0.145 A 
ATOM      2  C   UNL A   1     -23.228 -14.743   4.815  0.00  0.00    +0.092 A 
ATOM      3  C   UNL A   1     -24.250 -14.640   5.743  0.00  0.00    +0.046 A 
ATOM      4  C   UNL A   1     -24.822 -13.348   5.938  0.00  0.00    +0.156 A 
ATOM      5  C   UNL A   1     -24.390 -12.377   5.108  0.00  0.00    +0.095 A 
ATOM      6  C   UNL A   1     -23.455 -12.606   4.183  0.00  0.00    +0.051 A 
ATOM      7 CL   UNL A   1     -25.131 -10.860   5.305  0.00  0.00    -0.079 Cl
ENDROOT
BRANCH   2   8
ATOM      8  C   UNL A   1     -22.559 -16.180   4.788  0.00  0.00    +0.274 C 
ATOM      9  N   UNL A   1     -22.059 -16.710   5.787  0.00  0.00    -0.141 NA
ATOM     10  C   UNL A   1     -21.320 -17.823   5.845  0.00  0.00    +0.249 C 
ATOM     11  C   UNL A   1     -21.890 -19.088   6.074  0.00  0.00    +0.097 C 
ATOM     12  O   UNL A   1     -20.057 -17.675   6.296  0.00  0.00    -0.273 OA
ATOM     13  O   UNL A   1     -22.753 -16.909   3.789  0.00  0.00    -0.268 OA
ENDBRANCH   2   8
BRANCH   1  14
ATOM     14  O   UNL A   1     -21.841 -13.813   3.160  0.00  0.00    -0.464 OA
BRANCH  14  15
ATOM     15  C   UNL A   1     -21.353 -12.745   2.487  0.00  0.00    +0.319 C 
BRANCH  15  16
ATOM     16  C   UNL A   1     -20.104 -12.334   2.842  0.00  0.00    +0.408 C 
ATOM     17  O   UNL A   1     -19.232 -12.756   2.232  0.00  0.00    -0.241 OA
ATOM     18  O   UNL A   1     -19.974 -11.534   3.815  0.00  0.00    -0.241 OA
ENDBRANCH  15  16
ENDBRANCH  14  15
ENDBRANCH   1  14
BRANCH   4  19
ATOM     19  O   UNL A   1     -25.786 -13.219   6.829  0.00  0.00    -0.450 OA
BRANCH  19  20
ATOM     20  C   UNL A   1     -26.935 -13.307   6.643  0.00  0.00    +0.175 C 
ATOM     21  C   UNL A   1     -27.531 -14.591   6.194  0.00  0.00    +0.019 C 
BRANCH  21  22
ATOM     22  C   UNL A   1     -28.219 -15.215   6.928  0.00  0.00    +0.052 C 
BRANCH  22  23
ATOM     23  C   UNL A   1     -27.882 -16.548   7.385  0.00  0.00    -0.018 A 
ATOM     24  C   UNL A   1     -28.338 -17.744   6.848  0.00  0.00    -0.004 A 
ATOM     25  C   UNL A   1     -27.991 -19.004   7.298  0.00  0.00    -0.000 A 
ATOM     26  C   UNL A   1     -27.117 -19.019   8.424  0.00  0.00    -0.000 A 
ATOM     27  C   UNL A   1     -26.642 -17.864   9.019  0.00  0.00    -0.000 A 
ATOM     28  C   UNL A   1     -26.965 -16.670   8.481  0.00  0.00    -0.004 A 
ENDBRANCH  22  23
BRANCH  22  29
ATOM     29  C   UNL A   1     -29.627 -14.902   7.285  0.00  0.00    +0.035 C 
BRANCH  29  30
ATOM     30  C   UNL A   1     -29.884 -14.760   8.641  0.00  0.00    -0.021 A 
ATOM     31  C   UNL A   1     -29.450 -13.584   9.290  0.00  0.00    -0.004 A 
ATOM     32  C   UNL A   1     -29.602 -13.439  10.714  0.00  0.00    -0.000 A 
ATOM     33  C   UNL A   1     -30.287 -14.523  11.356  0.00  0.00    -0.000 A 
ATOM     34  C   UNL A   1     -30.843 -15.542  10.702  0.00  0.00    -0.000 A 
ATOM     35  C   UNL A   1     -30.588 -15.682   9.342  0.00  0.00    -0.004 A 
ENDBRANCH  29  30
ENDBRANCH  22  29
ENDBRANCH  21  22
ENDBRANCH  19  20
ENDBRANCH   4  19
TORSDOF 10
ENDMDL
ENDMDL
