REMARK  Name = No_4538-gen_results/8p0m/2024-11-27-11-27-31/
REMARK  9 active torsions:
REMARK  status: ('A' for Active; 'I' for Inactive)
REMARK    1  A    between atoms: C_3  and  C_8
REMARK    2  A    between atoms: C_6  and  O_7
REMARK    3  A    between atoms: O_7  and  C_14
REMARK    4  A    between atoms: C_14  and  C_15
REMARK    5  A    between atoms: C_15  and  C_16
REMARK    6  A    between atoms: C_16  and  C_18
REMARK    7  A    between atoms: N_20  and  C_21
REMARK    8  A    between atoms: C_22  and  C_23
REMARK    9  A    between atoms: C_24  and  C_25
REMARK                            x       y       z     vdW  Elec       q    Type
REMARK                         _______ _______ _______ _____ _____    ______ ____
ROOT
ATOM      1  O   UNL A   1     -28.930  -2.730  30.115  0.00  0.00    -0.473 OA
ENDROOT
BRANCH   1   7
ATOM      2  C   UNL A   1     -28.016  -0.814  28.878  0.00  0.00    +0.037 A 
ATOM      3  C   UNL A   1     -27.064  -0.119  28.608  0.00  0.00    +0.003 A 
ATOM      4  C   UNL A   1     -25.765  -0.390  29.036  0.00  0.00    +0.000 A 
ATOM      5  C   UNL A   1     -25.530  -1.530  29.901  0.00  0.00    +0.003 A 
ATOM      6  C   UNL A   1     -26.689  -2.289  30.181  0.00  0.00    +0.037 A 
ATOM      7  C   UNL A   1     -27.873  -1.951  29.737  0.00  0.00    +0.139 A 
BRANCH   4   8
ATOM      8  C   UNL A   1     -24.539   0.421  28.742  0.00  0.00    +0.000 A 
ATOM      9  C   UNL A   1     -24.526   1.274  27.727  0.00  0.00    +0.000 A 
ATOM     10  C   UNL A   1     -23.317   1.986  27.403  0.00  0.00    +0.000 A 
ATOM     11  C   UNL A   1     -22.131   1.737  28.050  0.00  0.00    +0.000 A 
ATOM     12  C   UNL A   1     -23.298   0.137  29.377  0.00  0.00    +0.000 A 
ATOM     13  C   UNL A   1     -22.101   0.819  29.041  0.00  0.00    +0.000 A 
ENDBRANCH   4   8
ENDBRANCH   1   7
BRANCH   1  14
ATOM     14  C   UNL A   1     -28.782  -3.993  30.642  0.00  0.00    +0.238 C 
BRANCH  14  15
ATOM     15  C   UNL A   1     -29.837  -4.277  31.606  0.00  0.00    +0.204 C 
ATOM     16  O   UNL A   1     -29.366  -5.336  32.505  0.00  0.00    -0.219 OA
BRANCH  15  17
ATOM     17  C   UNL A   1     -30.311  -3.305  32.217  0.00  0.00    +0.124 C 
BRANCH  17  18
ATOM     18  C   UNL A   1     -31.506  -3.543  32.979  0.00  0.00    +0.248 C 
ATOM     19  O   UNL A   1     -31.775  -4.574  33.227  0.00  0.00    -0.273 OA
ATOM     20  N   UNL A   1     -32.190  -2.430  33.463  0.00  0.00    -0.178 NA
BRANCH  20  21
ATOM     21  C   UNL A   1     -31.838  -1.065  33.303  0.00  0.00    +0.089 C 
ATOM     22  C   UNL A   1     -30.890  -0.665  34.050  0.00  0.00    +0.018 C 
BRANCH  22  23
ATOM     23  C   UNL A   1     -30.114   0.083  34.110  0.00  0.00    +0.001 C 
ATOM     24  C   UNL A   1     -28.993   0.462  35.036  0.00  0.00    +0.000 C 
BRANCH  24  25
ATOM     25  C   UNL A   1     -28.873  -0.455  36.067  0.00  0.00    +0.000 C 
ATOM     26  C   UNL A   1     -29.706  -1.547  36.135  0.00  0.00    +0.000 C 
ENDBRANCH  24  25
ENDBRANCH  22  23
ENDBRANCH  20  21
ENDBRANCH  17  18
ENDBRANCH  15  17
ENDBRANCH  14  15
ENDBRANCH   1  14
TORSDOF 9
