MODEL 4538
MODEL 1
REMARK VINA RESULT:    -4.944      0.000      0.000
REMARK INTER + INTRA:         -11.226
REMARK INTER:                  -7.545
REMARK INTRA:                  -3.681
REMARK UNBOUND:                -3.681
REMARK  Name = No_4538-gen_results/8p0m/2024-11-27-11-27-31/
REMARK  9 active torsions:
REMARK  status: ('A' for Active; 'I' for Inactive)
REMARK    1  A    between atoms: C_3  and  C_8
REMARK    2  A    between atoms: C_6  and  O_7
REMARK    3  A    between atoms: O_7  and  C_14
REMARK    4  A    between atoms: C_14  and  C_15
REMARK    5  A    between atoms: C_15  and  C_16
REMARK    6  A    between atoms: C_16  and  C_18
REMARK    7  A    between atoms: N_20  and  C_21
REMARK    8  A    between atoms: C_22  and  C_23
REMARK    9  A    between atoms: C_24  and  C_25
REMARK                            x       y       z     vdW  Elec       q    Type
REMARK                         _______ _______ _______ _____ _____    ______ ____
ROOT
ATOM      1  O   UNL A   1      -5.824  -1.505   8.441  0.00  0.00    -0.473 OA
ENDROOT
BRANCH   1   7
ATOM      2  C   UNL A   1      -7.159   0.547   8.238  0.00  0.00    +0.037 A 
ATOM      3  C   UNL A   1      -7.915   1.342   8.748  0.00  0.00    +0.003 A 
ATOM      4  C   UNL A   1      -8.279   1.305  10.093  0.00  0.00    +0.000 A 
ATOM      5  C   UNL A   1      -7.783   0.230  10.930  0.00  0.00    +0.003 A 
ATOM      6  C   UNL A   1      -6.914  -0.664  10.264  0.00  0.00    +0.037 A 
ATOM      7  C   UNL A   1      -6.634  -0.552   8.990  0.00  0.00    +0.139 A 
BRANCH   4   8
ATOM      8  C   UNL A   1      -9.206   2.252  10.794  0.00  0.00    +0.000 A 
ATOM      9  C   UNL A   1      -9.415   3.469  10.311  0.00  0.00    +0.000 A 
ATOM     10  C   UNL A   1     -10.241   4.398  11.037  0.00  0.00    +0.000 A 
ATOM     11  C   UNL A   1     -10.746   4.104  12.280  0.00  0.00    +0.000 A 
ATOM     12  C   UNL A   1      -9.696   1.972  12.101  0.00  0.00    +0.000 A 
ATOM     13  C   UNL A   1     -10.488   2.896  12.828  0.00  0.00    +0.000 A 
ENDBRANCH   4   8
ENDBRANCH   1   7
BRANCH   1  14
ATOM     14  C   UNL A   1      -4.758  -1.205   7.624  0.00  0.00    +0.238 C 
BRANCH  14  15
ATOM     15  C   UNL A   1      -3.497  -1.515   8.286  0.00  0.00    +0.204 C 
ATOM     16  O   UNL A   1      -2.673  -2.300   7.360  0.00  0.00    -0.219 OA
BRANCH  15  17
ATOM     17  C   UNL A   1      -2.880  -0.560   8.786  0.00  0.00    +0.124 C 
BRANCH  17  18
ATOM     18  C   UNL A   1      -3.051  -0.351  10.197  0.00  0.00    +0.248 C 
ATOM     19  O   UNL A   1      -2.680  -1.112  10.891  0.00  0.00    -0.273 OA
ATOM     20  N   UNL A   1      -3.574   0.874  10.605  0.00  0.00    -0.178 NA
BRANCH  20  21
ATOM     21  C   UNL A   1      -3.955   1.966   9.783  0.00  0.00    +0.089 C 
ATOM     22  C   UNL A   1      -4.907   2.674  10.240  0.00  0.00    +0.018 C 
BRANCH  22  23
ATOM     23  C   UNL A   1      -5.325   3.668  10.191  0.00  0.00    +0.001 C 
ATOM     24  C   UNL A   1      -6.083   4.610  11.083  0.00  0.00    +0.000 C 
BRANCH  24  25
ATOM     25  C   UNL A   1      -6.218   4.082  12.356  0.00  0.00    +0.000 C 
ATOM     26  C   UNL A   1      -7.185   4.554  13.212  0.00  0.00    +0.000 C 
ENDBRANCH  24  25
ENDBRANCH  22  23
ENDBRANCH  20  21
ENDBRANCH  17  18
ENDBRANCH  15  17
ENDBRANCH  14  15
ENDBRANCH   1  14
TORSDOF 9
ENDMDL
ENDMDL
