MODEL 4539
MODEL 1
REMARK VINA RESULT:    -7.570      0.000      0.000
REMARK INTER + INTRA:         -10.107
REMARK INTER:                 -10.225
REMARK INTRA:                   0.118
REMARK UNBOUND:                 0.118
REMARK  Name = No_4539-gen_results/8p0m/2024-11-27-11-27-31/
REMARK  6 active torsions:
REMARK  status: ('A' for Active; 'I' for Inactive)
REMARK    1  A    between atoms: C_1  and  C_2
REMARK    2  A    between atoms: C_5  and  C_11
REMARK    3  A    between atoms: N_8  and  C_10
REMARK    4  A    between atoms: C_16  and  C_20
REMARK    5  A    between atoms: C_20  and  C_21
REMARK    6  A    between atoms: C_26  and  C_27
REMARK                            x       y       z     vdW  Elec       q    Type
REMARK                         _______ _______ _______ _____ _____    ______ ____
ROOT
ATOM      1  C   UNL A   1     -28.756   1.006  24.364  0.00  0.00    +0.128 C 
ATOM      2  C   UNL A   1     -27.740   1.942  24.376  0.00  0.00    +0.060 C 
ATOM      3  C   UNL A   1     -27.290   2.316  25.626  0.00  0.00    +0.181 C 
ATOM      4  C   UNL A   1     -26.828   1.191  26.336  0.00  0.00    +0.149 C 
ATOM      5  O   UNL A   1     -27.784   0.180  26.580  0.00  0.00    -0.351 OA
ATOM      6  C   UNL A   1     -28.941   0.108  25.471  0.00  0.00    +0.164 C 
ATOM      7  O   UNL A   1     -26.222   3.316  25.538  0.00  0.00    -0.221 OA
ENDROOT
BRANCH   1   9
ATOM      8  C   UNL A   1     -30.964   1.845  23.349  0.00  0.00    +0.265 C 
ATOM      9  N   UNL A   1     -29.718   1.176  23.272  0.00  0.00    -0.201 NA
ATOM     10  O   UNL A   1     -31.190   2.339  24.440  0.00  0.00    -0.268 OA
BRANCH   8  11
ATOM     11  C   UNL A   1     -31.669   1.968  22.374  0.00  0.00    +0.055 A 
ATOM     12  C   UNL A   1     -31.532   3.058  21.521  0.00  0.00    +0.005 A 
ATOM     13  C   UNL A   1     -32.344   3.327  20.300  0.00  0.00    +0.005 A 
ATOM     14  C   UNL A   1     -33.231   2.285  19.898  0.00  0.00    +0.057 A 
ATOM     15  C   UNL A   1     -33.310   1.162  20.745  0.00  0.00    +0.005 A 
ATOM     16  C   UNL A   1     -32.590   1.001  21.864  0.00  0.00    +0.005 A 
BRANCH  14  17
ATOM     17  C   UNL A   1     -34.009   2.524  18.704  0.00  0.00    +0.284 C 
ATOM     18  O   UNL A   1     -35.198   2.608  18.751  0.00  0.00    -0.267 OA
ATOM     19  N   UNL A   1     -33.401   2.788  17.502  0.00  0.00    -0.084 NA
ENDBRANCH  14  17
ENDBRANCH   8  11
ENDBRANCH   1   9
BRANCH   4  20
ATOM     20  C   UNL A   1     -25.638   0.484  25.782  0.00  0.00    +0.052 C 
ATOM     21  C   UNL A   1     -25.775  -0.490  24.846  0.00  0.00    +0.007 C 
BRANCH  20  22
ATOM     22  C   UNL A   1     -24.454   0.850  26.294  0.00  0.00    -0.017 A 
ATOM     23  C   UNL A   1     -23.697   1.640  25.618  0.00  0.00    -0.004 A 
ATOM     24  C   UNL A   1     -22.401   2.108  26.148  0.00  0.00    -0.000 A 
ATOM     25  C   UNL A   1     -22.051   1.671  27.445  0.00  0.00    +0.000 A 
ATOM     26  C   UNL A   1     -22.832   0.815  28.174  0.00  0.00    +0.003 A 
ATOM     27  C   UNL A   1     -24.070   0.395  27.638  0.00  0.00    +0.042 A 
BRANCH  27  28
ATOM     28  C   UNL A   1     -24.886  -0.514  28.433  0.00  0.00    +0.229 C 
ATOM     29 BR   UNL A   1     -24.903  -1.663  28.404  0.00  0.00    -0.003 Br
ATOM     30  O   UNL A   1     -25.598   0.328  29.344  0.00  0.00    -0.279 OA
ENDBRANCH  27  28
ENDBRANCH  20  22
ENDBRANCH   4  20
TORSDOF 6
ENDMDL
ENDMDL
