MODEL 453
MODEL 1
REMARK VINA RESULT:    -5.811      0.000      0.000
REMARK INTER + INTRA:          -8.691
REMARK INTER:                  -7.849
REMARK INTRA:                  -0.842
REMARK UNBOUND:                -0.842
REMARK  Name = No_453-gen_results/8p0m/2024-11-27-11-27-31/
REMARK  6 active torsions:
REMARK  status: ('A' for Active; 'I' for Inactive)
REMARK    1  A    between atoms: C_1  and  C_2
REMARK    2  A    between atoms: C_1  and  C_6
REMARK    3  A    between atoms: C_2  and  C_4
REMARK    4  A    between atoms: C_4  and  C_5
REMARK    5  A    between atoms: C_10  and  C_11
REMARK    6  A    between atoms: C_12  and  C_13
REMARK                            x       y       z     vdW  Elec       q    Type
REMARK                         _______ _______ _______ _____ _____    ______ ____
ROOT
ATOM      1  C   UNL A   1     -22.812   0.769  28.764  0.00  0.00    +0.062 C 
ENDROOT
BRANCH   1   2
ATOM      2  C   UNL A   1     -22.577   1.762  27.760  0.00  0.00    +0.174 C 
ATOM      3  F   UNL A   1     -21.416   1.906  27.347  0.00  0.00    -0.237 F 
BRANCH   2   4
ATOM      4  C   UNL A   1     -23.382   2.468  27.199  0.00  0.00    +0.139 C 
BRANCH   4   5
ATOM      5  C   UNL A   1     -23.793   2.075  25.780  0.00  0.00    +0.400 C 
ATOM      6  F   UNL A   1     -24.685   2.686  25.509  0.00  0.00    -0.170 F 
ATOM      7  F   UNL A   1     -23.960   0.727  25.762  0.00  0.00    -0.170 F 
ATOM      8  F   UNL A   1     -22.674   2.256  24.938  0.00  0.00    -0.170 F 
ENDBRANCH   4   5
ENDBRANCH   2   4
ENDBRANCH   1   2
BRANCH   1   9
ATOM      9  C   UNL A   1     -22.094  -0.449  28.704  0.00  0.00    -0.023 C 
ATOM     10  C   UNL A   1     -22.525  -1.408  29.298  0.00  0.00    -0.004 C 
BRANCH  10  11
ATOM     11  C   UNL A   1     -23.566  -1.859  29.338  0.00  0.00    -0.000 C 
ATOM     12  C   UNL A   1     -24.184  -2.730  29.600  0.00  0.00    -0.000 C 
BRANCH  12  13
ATOM     13  C   UNL A   1     -25.590  -3.054  29.525  0.00  0.00    -0.005 C 
ATOM     14  C   UNL A   1     -25.806  -4.384  29.305  0.00  0.00    -0.026 C 
ATOM     15  C   UNL A   1     -24.776  -5.267  29.120  0.00  0.00    +0.031 C 
ENDBRANCH  12  13
ENDBRANCH  10  11
ENDBRANCH   1   9
TORSDOF 6
ENDMDL
ENDMDL
