REMARK  Name = outputs/IAG933/test6/raw/output_454_IAG933_linker_design_.xyz
REMARK  14 active torsions:
REMARK  status: ('A' for Active; 'I' for Inactive)
REMARK    1  A    between atoms: C_1  and  C_2
REMARK    2  A    between atoms: C_1  and  C_8
REMARK    3  A    between atoms: C_9  and  C_36
REMARK    4  A    between atoms: C_13  and  O_39
REMARK    5  A    between atoms: C_14  and  C_15
REMARK    6  A    between atoms: C_21  and  O_22
REMARK    7  A    between atoms: O_22  and  C_23
REMARK    8  A    between atoms: C_23  and  C_24
REMARK    9  A    between atoms: C_28  and  C_37
REMARK   10  A    between atoms: C_28  and  O_39
REMARK   11  A    between atoms: N_29  and  C_36
REMARK   12  A    between atoms: C_34  and  C_36
REMARK   13  A    between atoms: C_34  and  C_38
REMARK   14  A    between atoms: C_37  and  C_40
REMARK                            x       y       z     vdW  Elec       q    Type
REMARK                         _______ _______ _______ _____ _____    ______ ____
ROOT
ATOM      1  O   UNL A   1     -20.979   1.909  27.810  0.00  0.00    -0.208 OA
ATOM      2  C   UNL A   1     -22.252   1.476  28.037  0.00  0.00    +0.284 C 
ENDROOT
BRANCH   2   5
ATOM      3  N   UNL A   1     -23.902   1.822  30.039  0.00  0.00    -0.204 NA
ATOM      4  O   UNL A   1     -22.512   0.126  30.057  0.00  0.00    -0.270 OA
ATOM      5  C   UNL A   1     -22.927   1.131  29.499  0.00  0.00    +0.277 C 
BRANCH   3   6
ATOM      6  C   UNL A   1     -24.585   1.865  31.246  0.00  0.00    +0.108 C 
BRANCH   6   8
ATOM      7  C   UNL A   1     -25.387  -0.679  31.571  0.00  0.00    +0.079 C 
ATOM      8  C   UNL A   1     -25.189   0.773  32.028  0.00  0.00    +0.038 C 
ATOM      9  C   UNL A   1     -25.336   0.684  33.544  0.00  0.00    +0.022 C 
ATOM     10  C   UNL A   1     -24.829  -0.715  33.905  0.00  0.00    +0.089 C 
ATOM     11  N   UNL A   1     -24.758  -1.481  32.646  0.00  0.00    -0.219 NA
BRANCH   7  12
ATOM     12  C   UNL A   1     -24.855  -1.012  30.143  0.00  0.00    +0.044 C 
BRANCH  12  13
ATOM     13  C   UNL A   1     -24.973  -2.505  29.788  0.00  0.00    -0.021 C 
ATOM     14  C   UNL A   1     -23.906  -3.173  29.146  0.00  0.00    -0.004 C 
ATOM     15  C   UNL A   1     -23.989  -4.549  28.853  0.00  0.00    -0.000 C 
ATOM     16  C   UNL A   1     -25.137  -5.280  29.205  0.00  0.00    -0.000 C 
ATOM     17  C   UNL A   1     -26.232  -4.611  29.784  0.00  0.00    -0.000 C 
ATOM     18  C   UNL A   1     -26.155  -3.232  30.065  0.00  0.00    -0.004 C 
ENDBRANCH  12  13
ENDBRANCH   7  12
ENDBRANCH   6   8
BRANCH   6  19
ATOM     19  C   UNL A   1     -24.540   3.133  32.146  0.00  0.00    +0.136 C 
BRANCH  19  22
ATOM     20  O   UNL A   1     -24.578   5.214  30.818  0.00  0.00    -0.246 OA
ATOM     21  O   UNL A   1     -25.259   5.174  32.942  0.00  0.00    -0.246 OA
ATOM     22  C   UNL A   1     -24.814   4.510  31.919  0.00  0.00    +0.367 C 
ENDBRANCH  19  22
ENDBRANCH   6  19
ENDBRANCH   3   6
ENDBRANCH   2   5
BRANCH   2  23
ATOM     23  C   UNL A   1     -23.264   1.278  26.889  0.00  0.00    +0.284 C 
ATOM     24 CL   UNL A   1     -22.742   1.716  25.299  0.00  0.00    -0.065 Cl
BRANCH  23  25
ATOM     25  O   UNL A   1     -24.661   1.205  27.281  0.00  0.00    -0.457 OA
BRANCH  25  26
ATOM     26  C   UNL A   1     -25.688   1.614  26.461  0.00  0.00    +0.178 C 
ATOM     27  C   UNL A   1     -26.250   2.920  26.395  0.00  0.00    +0.111 C 
ATOM     28  C   UNL A   1     -27.438   3.091  25.645  0.00  0.00    +0.110 C 
ATOM     29  N   UNL A   1     -28.075   2.089  25.003  0.00  0.00    -0.208 NA
ATOM     30  C   UNL A   1     -27.543   0.849  25.079  0.00  0.00    +0.256 C 
ATOM     31  C   UNL A   1     -26.354   0.576  25.777  0.00  0.00    +0.227 C 
ATOM     32  F   UNL A   1     -25.860  -0.681  25.795  0.00  0.00    -0.196 F 
BRANCH  27  33
ATOM     33  C   UNL A   1     -25.642   4.093  27.123  0.00  0.00    +0.269 C 
ATOM     34  N   UNL A   1     -25.614   5.252  26.449  0.00  0.00    -0.200 NA
ATOM     35  C   UNL A   1     -25.026   6.479  26.963  0.00  0.00    +0.139 C 
ATOM     36  O   UNL A   1     -25.143   3.966  28.243  0.00  0.00    -0.268 OA
ENDBRANCH  27  33
BRANCH  30  37
ATOM     37  O   UNL A   1     -28.193  -0.208  24.477  0.00  0.00    -0.456 OA
BRANCH  37  38
ATOM     38  C   UNL A   1     -29.460   0.005  23.866  0.00  0.00    +0.243 C 
BRANCH  38  39
ATOM     39  C   UNL A   1     -30.065  -1.377  23.573  0.00  0.00    +0.229 C 
ATOM     40  O   UNL A   1     -30.729  -1.878  24.721  0.00  0.00    -0.216 OA
ENDBRANCH  38  39
ENDBRANCH  37  38
ENDBRANCH  30  37
ENDBRANCH  25  26
ENDBRANCH  23  25
ENDBRANCH   2  23
TORSDOF 14
