MODEL 4540
MODEL 1
REMARK VINA RESULT:    -6.405      0.000      0.000
REMARK INTER + INTRA:          -7.707
REMARK INTER:                  -7.153
REMARK INTRA:                  -0.553
REMARK UNBOUND:                -0.553
REMARK  Name = No_4540-gen_results/8p0m/2024-11-27-11-27-31/
REMARK  2 active torsions:
REMARK  status: ('A' for Active; 'I' for Inactive)
REMARK    1  A    between atoms: C_3  and  C_7
REMARK    2  A    between atoms: N_8  and  C_9
REMARK                            x       y       z     vdW  Elec       q    Type
REMARK                         _______ _______ _______ _____ _____    ______ ____
ROOT
ATOM      1  C   UNL A   1     -23.935  -1.068  29.874  0.00  0.00    +0.269 C 
ATOM      2  N   UNL A   1     -24.386  -0.006  29.195  0.00  0.00    -0.176 NA
ATOM      3  O   UNL A   1     -22.723  -1.122  30.117  0.00  0.00    -0.268 OA
ENDROOT
BRANCH   2   4
ATOM      4  C   UNL A   1     -24.369   0.094  27.838  0.00  0.00    +0.073 A 
ATOM      5  C   UNL A   1     -25.417  -0.510  27.060  0.00  0.00    +0.037 A 
ATOM      6  C   UNL A   1     -25.793   0.034  25.855  0.00  0.00    +0.100 A 
ATOM      7  C   UNL A   1     -23.502   0.963  27.178  0.00  0.00    +0.013 A 
ATOM      8  C   UNL A   1     -22.427   1.590  27.833  0.00  0.00    +0.034 C 
ATOM      9  N   UNL A   1     -24.899   0.979  25.268  0.00  0.00    -0.243 NA
ATOM     10  C   UNL A   1     -23.880   1.419  25.782  0.00  0.00    +0.096 A 
ENDBRANCH   2   4
BRANCH   1  13
ATOM     11  C   UNL A   1     -23.825  -3.418  28.911  0.00  0.00    +0.005 A 
ATOM     12  C   UNL A   1     -24.289  -4.362  28.859  0.00  0.00    +0.000 A 
ATOM     13  C   UNL A   1     -24.599  -2.427  29.668  0.00  0.00    +0.055 A 
ATOM     14  C   UNL A   1     -25.846  -2.657  30.083  0.00  0.00    +0.005 A 
ATOM     15  C   UNL A   1     -25.608  -4.835  29.204  0.00  0.00    +0.000 A 
ATOM     16  C   UNL A   1     -26.321  -3.892  29.884  0.00  0.00    +0.000 A 
ENDBRANCH   1  13
TORSDOF 2
ENDMDL
ENDMDL
