REMARK  Name = No_4541-gen_results/8p0m/2024-11-27-11-27-31/
REMARK  8 active torsions:
REMARK  status: ('A' for Active; 'I' for Inactive)
REMARK    1  A    between atoms: C_3  and  C_4
REMARK    2  A    between atoms: C_4  and  C_8
REMARK    3  A    between atoms: C_6  and  C_24
REMARK    4  A    between atoms: C_9  and  C_10
REMARK    5  A    between atoms: C_10  and  C_11
REMARK    6  A    between atoms: C_12  and  C_13
REMARK    7  A    between atoms: C_16  and  C_17
REMARK    8  A    between atoms: C_17  and  C_18
REMARK                            x       y       z     vdW  Elec       q    Type
REMARK                         _______ _______ _______ _____ _____    ______ ____
ROOT
ATOM      1  C   UNL A   1     -26.252   0.411  27.422  0.00  0.00    +0.294 C 
ATOM      2  F   UNL A   1     -27.022   0.009  26.366  0.00  0.00    -0.197 F 
ATOM      3  O   UNL A   1     -25.164  -0.615  27.535  0.00  0.00    -0.180 OA
ENDROOT
BRANCH   1   6
ATOM      4  C   UNL A   1     -28.016  -0.814  28.878  0.00  0.00    +0.001 A 
ATOM      5  C   UNL A   1     -28.469  -0.785  29.829  0.00  0.00    -0.000 A 
ATOM      6  C   UNL A   1     -27.087   0.290  28.638  0.00  0.00    +0.040 A 
ATOM      7  C   UNL A   1     -28.391   0.104  30.980  0.00  0.00    -0.000 A 
ATOM      8  C   UNL A   1     -27.533   1.167  30.787  0.00  0.00    -0.000 A 
ATOM      9  C   UNL A   1     -26.828   1.256  29.645  0.00  0.00    +0.001 A 
BRANCH   8  10
ATOM     10  C   UNL A   1     -27.422   2.227  31.840  0.00  0.00    -0.000 A 
ATOM     11  C   UNL A   1     -26.526   3.236  31.625  0.00  0.00    -0.000 A 
ATOM     12  C   UNL A   1     -26.246   4.185  32.642  0.00  0.00    -0.000 A 
ATOM     13  C   UNL A   1     -26.841   4.109  33.901  0.00  0.00    +0.000 A 
ATOM     14  C   UNL A   1     -27.734   3.018  34.081  0.00  0.00    -0.000 A 
ATOM     15  C   UNL A   1     -27.960   2.088  33.094  0.00  0.00    -0.000 A 
ENDBRANCH   8  10
ENDBRANCH   1   6
BRANCH   1  16
ATOM     16  C   UNL A   1     -25.733   1.689  27.155  0.00  0.00    +0.037 C 
ATOM     17  C   UNL A   1     -24.674   1.780  26.331  0.00  0.00    -0.021 C 
BRANCH  17  18
ATOM     18  C   UNL A   1     -23.489   1.830  26.570  0.00  0.00    +0.052 C 
BRANCH  18  19
ATOM     19  C   UNL A   1     -22.928   1.782  27.902  0.00  0.00    -0.021 C 
ATOM     20  C   UNL A   1     -21.504   1.492  28.066  0.00  0.00    -0.005 C 
BRANCH  20  21
ATOM     21  C   UNL A   1     -20.975   0.423  28.177  0.00  0.00    -0.005 C 
ATOM     22  C   UNL A   1     -21.519  -0.492  29.165  0.00  0.00    -0.021 C 
BRANCH  22  23
ATOM     23  C   UNL A   1     -22.816  -0.689  29.329  0.00  0.00    +0.054 C 
BRANCH  23  24
ATOM     24  C   UNL A   1     -23.296  -0.696  30.551  0.00  0.00    +0.001 A 
ATOM     25  C   UNL A   1     -24.193  -0.144  31.106  0.00  0.00    -0.001 A 
ATOM     26  C   UNL A   1     -24.681  -0.218  32.460  0.00  0.00    +0.020 A 
ATOM     27  C   UNL A   1     -24.024  -1.144  33.244  0.00  0.00    +0.099 A 
ATOM     28  C   UNL A   1     -22.786  -1.692  31.657  0.00  0.00    +0.095 A 
ATOM     29  N   UNL A   1     -23.046  -1.758  32.851  0.00  0.00    -0.243 NA
ENDBRANCH  23  24
ENDBRANCH  22  23
ENDBRANCH  20  21
ENDBRANCH  18  19
ENDBRANCH  17  18
ENDBRANCH   1  16
TORSDOF 8
