MODEL 4541
MODEL 1
REMARK VINA RESULT:    -6.732      0.000      0.000
REMARK INTER + INTRA:         -13.764
REMARK INTER:                  -9.880
REMARK INTRA:                  -3.884
REMARK UNBOUND:                -3.884
REMARK  Name = No_4541-gen_results/8p0m/2024-11-27-11-27-31/
REMARK  8 active torsions:
REMARK  status: ('A' for Active; 'I' for Inactive)
REMARK    1  A    between atoms: C_3  and  C_4
REMARK    2  A    between atoms: C_4  and  C_8
REMARK    3  A    between atoms: C_6  and  C_24
REMARK    4  A    between atoms: C_9  and  C_10
REMARK    5  A    between atoms: C_10  and  C_11
REMARK    6  A    between atoms: C_12  and  C_13
REMARK    7  A    between atoms: C_16  and  C_17
REMARK    8  A    between atoms: C_17  and  C_18
REMARK                            x       y       z     vdW  Elec       q    Type
REMARK                         _______ _______ _______ _____ _____    ______ ____
ROOT
ATOM      1  C   UNL A   1     -22.530  -0.602  29.168  0.00  0.00    +0.294 C 
ATOM      2  F   UNL A   1     -22.470   0.074  30.355  0.00  0.00    -0.197 F 
ATOM      3  O   UNL A   1     -21.144  -1.126  28.937  0.00  0.00    -0.180 OA
ENDROOT
BRANCH   1   6
ATOM      4  C   UNL A   1     -21.898   1.514  27.807  0.00  0.00    +0.001 A 
ATOM      5  C   UNL A   1     -22.199   2.082  26.972  0.00  0.00    -0.000 A 
ATOM      6  C   UNL A   1     -22.795   0.399  28.111  0.00  0.00    +0.040 A 
ATOM      7  C   UNL A   1     -23.312   2.024  26.034  0.00  0.00    -0.000 A 
ATOM      8  C   UNL A   1     -24.189   0.991  26.297  0.00  0.00    -0.000 A 
ATOM      9  C   UNL A   1     -23.927   0.132  27.298  0.00  0.00    +0.001 A 
BRANCH   8  10
ATOM     10  C   UNL A   1     -25.440   0.861  25.483  0.00  0.00    -0.000 A 
ATOM     11  C   UNL A   1     -26.301   1.922  25.478  0.00  0.00    -0.000 A 
ATOM     12  C   UNL A   1     -27.577   1.816  24.867  0.00  0.00    -0.000 A 
ATOM     13  C   UNL A   1     -28.015   0.628  24.282  0.00  0.00    +0.000 A 
ATOM     14  C   UNL A   1     -27.095  -0.453  24.351  0.00  0.00    -0.000 A 
ATOM     15  C   UNL A   1     -25.879  -0.339  24.983  0.00  0.00    -0.000 A 
ENDBRANCH   8  10
ENDBRANCH   1   6
BRANCH   1  16
ATOM     16  C   UNL A   1     -23.466  -1.645  29.278  0.00  0.00    +0.037 C 
ATOM     17  C   UNL A   1     -24.592  -1.410  29.976  0.00  0.00    -0.021 C 
BRANCH  17  18
ATOM     18  C   UNL A   1     -24.864  -1.634  31.134  0.00  0.00    +0.052 C 
BRANCH  18  19
ATOM     19  C   UNL A   1     -25.523  -0.689  32.008  0.00  0.00    -0.021 C 
ATOM     20  C   UNL A   1     -25.807   0.659  31.518  0.00  0.00    -0.005 C 
BRANCH  20  21
ATOM     21  C   UNL A   1     -25.104   1.627  31.568  0.00  0.00    -0.005 C 
ATOM     22  C   UNL A   1     -24.814   2.308  30.319  0.00  0.00    -0.021 C 
BRANCH  22  23
ATOM     23  C   UNL A   1     -25.732   2.550  29.399  0.00  0.00    +0.054 C 
BRANCH  23  24
ATOM     24  C   UNL A   1     -25.754   3.737  28.837  0.00  0.00    +0.001 A 
ATOM     25  C   UNL A   1     -25.303   4.204  27.839  0.00  0.00    -0.001 A 
ATOM     26  C   UNL A   1     -25.388   5.525  27.269  0.00  0.00    +0.020 A 
ATOM     27  C   UNL A   1     -26.188   6.394  27.981  0.00  0.00    +0.099 A 
ATOM     28  C   UNL A   1     -26.631   4.921  29.390  0.00  0.00    +0.095 A 
ATOM     29  N   UNL A   1     -26.684   6.097  29.055  0.00  0.00    -0.243 NA
ENDBRANCH  23  24
ENDBRANCH  22  23
ENDBRANCH  20  21
ENDBRANCH  18  19
ENDBRANCH  17  18
ENDBRANCH   1  16
TORSDOF 8
ENDMDL
ENDMDL
