MODEL 4542
MODEL 1
REMARK VINA RESULT:    -5.614      0.000      0.000
REMARK INTER + INTRA:          -6.837
REMARK INTER:                  -6.599
REMARK INTRA:                  -0.238
REMARK UNBOUND:                -0.238
REMARK  Name = No_4542-gen_results/8p0m/2024-11-27-11-27-31/
REMARK  3 active torsions:
REMARK  status: ('A' for Active; 'I' for Inactive)
REMARK    1  A    between atoms: C_2  and  C_11
REMARK    2  A    between atoms: C_4  and  C_7
REMARK    3  A    between atoms: N_8  and  C_10
REMARK                            x       y       z     vdW  Elec       q    Type
REMARK                         _______ _______ _______ _____ _____    ______ ____
ROOT
ATOM      1  C   UNL A   1     -28.936 -10.460  32.754  0.00  0.00    +0.007 A 
ATOM      2  C   UNL A   1     -28.203 -11.213  32.679  0.00  0.00    +0.080 A 
ATOM      3  C   UNL A   1     -29.660 -10.120  31.519  0.00  0.00    +0.005 A 
ATOM      4  C   UNL A   1     -29.462 -10.880  30.330  0.00  0.00    +0.055 A 
ATOM      5  C   UNL A   1     -28.516 -11.872  30.400  0.00  0.00    +0.005 A 
ATOM      6  C   UNL A   1     -27.863 -12.125  31.554  0.00  0.00    +0.007 A 
ENDROOT
BRANCH   4   7
ATOM      7  C   UNL A   1     -30.174 -10.574  29.116  0.00  0.00    +0.265 C 
ATOM      8  N   UNL A   1     -30.117 -11.127  28.209  0.00  0.00    -0.202 NA
ATOM      9  O   UNL A   1     -31.219  -9.747  29.206  0.00  0.00    -0.268 OA
BRANCH   8  10
ATOM     10  C   UNL A   1     -30.635 -10.783  26.819  0.00  0.00    +0.116 C 
ATOM     11  C   UNL A   1     -29.913 -11.638  25.922  0.00  0.00    +0.025 C 
ENDBRANCH   8  10
ENDBRANCH   4   7
BRANCH   2  12
ATOM     12  C   UNL A   1     -27.348 -11.588  33.982  0.00  0.00    +0.388 C 
ATOM     13  O   UNL A   1     -26.785 -12.704  34.037  0.00  0.00    -0.241 OA
ATOM     14  O   UNL A   1     -27.217 -10.690  34.822  0.00  0.00    -0.241 OA
ENDBRANCH   2  12
TORSDOF 3
ENDMDL
ENDMDL
