REMARK  Name = outputs/IAG933/test6/raw/output_4543_IAG933_linker_design_.xyz
REMARK  11 active torsions:
REMARK  status: ('A' for Active; 'I' for Inactive)
REMARK    1  A    between atoms: C_1  and  C_2
REMARK    2  A    between atoms: C_1  and  C_8
REMARK    3  A    between atoms: C_1  and  N_32
REMARK    4  A    between atoms: C_9  and  C_41
REMARK    5  A    between atoms: C_13  and  C_33
REMARK    6  A    between atoms: C_14  and  C_15
REMARK    7  A    between atoms: C_21  and  O_22
REMARK    8  A    between atoms: O_22  and  C_23
REMARK    9  A    between atoms: C_23  and  C_24
REMARK   10  A    between atoms: C_30  and  N_32
REMARK   11  A    between atoms: N_32  and  C_39
REMARK                            x       y       z     vdW  Elec       q    Type
REMARK                         _______ _______ _______ _____ _____    ______ ____
ROOT
ATOM      1  O   UNL A   1     -21.951   1.960  26.943  0.00  0.00    -0.443 OA
ATOM      2  C   UNL A   1     -24.286   1.423  27.012  0.00  0.00    +0.068 C 
ATOM      3  C   UNL A   1     -22.824   0.795  28.828  0.00  0.00    +0.055 C 
ATOM      4  C   UNL A   1     -23.133   1.933  26.311  0.00  0.00    +0.352 C 
ATOM      5  F   UNL A   1     -23.129   2.337  25.062  0.00  0.00    -0.183 F 
ATOM      6  C   UNL A   1     -24.090   0.698  28.255  0.00  0.00    +0.055 C 
ATOM      7  C   UNL A   1     -21.785   1.377  28.157  0.00  0.00    +0.177 C 
ENDROOT
BRANCH   2   8
ATOM      8  C   UNL A   1     -25.688   1.614  26.461  0.00  0.00    +0.041 C 
ATOM      9  C   UNL A   1     -26.250   2.920  26.395  0.00  0.00    +0.076 C 
ATOM     10  C   UNL A   1     -27.438   3.091  25.645  0.00  0.00    +0.107 C 
ATOM     11  N   UNL A   1     -28.075   2.089  25.003  0.00  0.00    -0.208 NA
ATOM     12  C   UNL A   1     -27.543   0.849  25.079  0.00  0.00    +0.253 C 
ATOM     13  C   UNL A   1     -26.354   0.576  25.777  0.00  0.00    +0.193 C 
ATOM     14  F   UNL A   1     -25.860  -0.681  25.795  0.00  0.00    -0.199 F 
BRANCH   9  15
ATOM     15  C   UNL A   1     -25.642   4.093  27.123  0.00  0.00    +0.266 C 
ATOM     16  N   UNL A   1     -25.614   5.252  26.449  0.00  0.00    -0.200 NA
ATOM     17  C   UNL A   1     -25.026   6.479  26.963  0.00  0.00    +0.139 C 
ATOM     18  O   UNL A   1     -25.143   3.966  28.243  0.00  0.00    -0.268 OA
ENDBRANCH   9  15
BRANCH  12  19
ATOM     19  O   UNL A   1     -28.193  -0.208  24.477  0.00  0.00    -0.456 OA
BRANCH  19  20
ATOM     20  C   UNL A   1     -29.460   0.005  23.866  0.00  0.00    +0.243 C 
BRANCH  20  21
ATOM     21  C   UNL A   1     -30.065  -1.377  23.573  0.00  0.00    +0.229 C 
ATOM     22  O   UNL A   1     -30.729  -1.878  24.721  0.00  0.00    -0.216 OA
ENDBRANCH  20  21
ENDBRANCH  19  20
ENDBRANCH  12  19
ENDBRANCH   2   8
BRANCH   6  23
ATOM     23  N   UNL A   1     -24.991  -0.128  29.001  0.00  0.00    -0.277 N 
BRANCH  23  24
ATOM     24  C   UNL A   1     -26.038  -0.250  28.539  0.00  0.00    +0.279 C 
ATOM     25  O   UNL A   1     -27.145  -0.362  28.494  0.00  0.00    -0.196 OA
ENDBRANCH  23  24
BRANCH  23  26
ATOM     26  C   UNL A   1     -24.855  -1.012  30.143  0.00  0.00    +0.114 C 
BRANCH  26  27
ATOM     27  C   UNL A   1     -24.973  -2.505  29.788  0.00  0.00    -0.003 C 
ATOM     28  C   UNL A   1     -23.906  -3.173  29.146  0.00  0.00    -0.003 C 
ATOM     29  C   UNL A   1     -23.989  -4.549  28.853  0.00  0.00    -0.000 C 
ATOM     30  C   UNL A   1     -25.137  -5.280  29.205  0.00  0.00    -0.000 C 
ATOM     31  C   UNL A   1     -26.232  -4.611  29.784  0.00  0.00    -0.000 C 
ATOM     32  C   UNL A   1     -26.155  -3.232  30.065  0.00  0.00    -0.003 C 
ENDBRANCH  26  27
BRANCH  26  33
ATOM     33  C   UNL A   1     -25.387  -0.679  31.571  0.00  0.00    +0.095 C 
ATOM     34  C   UNL A   1     -25.189   0.773  32.028  0.00  0.00    +0.022 C 
ATOM     35  C   UNL A   1     -25.336   0.684  33.544  0.00  0.00    +0.020 C 
ATOM     36  C   UNL A   1     -24.829  -0.715  33.905  0.00  0.00    +0.089 C 
ATOM     37  N   UNL A   1     -24.758  -1.481  32.646  0.00  0.00    -0.217 NA
BRANCH  34  42
ATOM     38  C   UNL A   1     -26.974   2.151  30.368  0.00  0.00    +0.142 C 
ATOM     39  C   UNL A   1     -26.381   4.027  31.616  0.00  0.00    +0.142 C 
ATOM     40  C   UNL A   1     -25.150   3.122  31.398  0.00  0.00    +0.035 C 
ATOM     41  O   UNL A   1     -27.350   3.481  30.702  0.00  0.00    -0.354 OA
ATOM     42  C   UNL A   1     -25.894   1.823  31.333  0.00  0.00    +0.034 C 
ENDBRANCH  34  42
ENDBRANCH  26  33
ENDBRANCH  23  26
ENDBRANCH   6  23
TORSDOF 11
