MODEL 4544
MODEL 1
REMARK VINA RESULT:    -4.501      0.000      0.000
REMARK INTER + INTRA:          -4.794
REMARK INTER:                  -4.764
REMARK INTRA:                  -0.029
REMARK UNBOUND:                -0.029
REMARK  Name = No_4544-gen_results/8p0m/2024-11-27-11-27-31/
REMARK  1 active torsions:
REMARK  status: ('A' for Active; 'I' for Inactive)
REMARK    1  A    between atoms: C_2  and  O_7
REMARK                            x       y       z     vdW  Elec       q    Type
REMARK                         _______ _______ _______ _____ _____    ______ ____
ROOT
ATOM      1  C   UNL A   1     -24.194  -4.147  28.649  0.00  0.00    +0.037 A 
ATOM      2  C   UNL A   1     -23.992  -3.249  29.162  0.00  0.00    +0.139 A 
ATOM      3  C   UNL A   1     -25.119  -5.031  29.357  0.00  0.00    +0.003 A 
ATOM      4  C   UNL A   1     -26.303  -4.725  29.493  0.00  0.00    +0.000 A 
ATOM      5  C   UNL A   1     -25.215  -2.400  29.678  0.00  0.00    +0.037 A 
ATOM      6  C   UNL A   1     -26.321  -3.229  30.058  0.00  0.00    +0.003 A 
ENDROOT
BRANCH   2   7
ATOM      7  O   UNL A   1     -23.015  -2.295  28.803  0.00  0.00    -0.471 OA
ATOM      8  C   UNL A   1     -22.822  -1.128  29.194  0.00  0.00    +0.253 C 
ENDBRANCH   2   7
TORSDOF 1
ENDMDL
ENDMDL
