MODEL 4546
MODEL 1
REMARK VINA RESULT:    -5.681      0.000      0.000
REMARK INTER + INTRA:          -6.648
REMARK INTER:                  -6.345
REMARK INTRA:                  -0.303
REMARK UNBOUND:                -0.303
REMARK  Name = No_4546-gen_results/8p0m/2024-11-27-11-27-31/
REMARK  2 active torsions:
REMARK  status: ('A' for Active; 'I' for Inactive)
REMARK    1  A    between atoms: C_2  and  C_8
REMARK    2  A    between atoms: C_9  and  C_10
REMARK                            x       y       z     vdW  Elec       q    Type
REMARK                         _______ _______ _______ _____ _____    ______ ____
ROOT
ATOM      1  C   UNL A   1     -22.913  -0.981  28.641  0.00  0.00    -0.044 C 
ATOM      2  C   UNL A   1     -23.343  -1.610  29.369  0.00  0.00    -0.009 C 
ATOM      3  C   UNL A   1     -23.722   0.118  28.196  0.00  0.00    +0.022 C 
ATOM      4  C   UNL A   1     -23.155   1.180  27.340  0.00  0.00    +0.004 C 
ATOM      5  C   UNL A   1     -21.786   1.487  27.447  0.00  0.00    +0.001 C 
ATOM      6  C   UNL A   1     -20.958   0.651  28.224  0.00  0.00    +0.004 C 
ATOM      7  C   UNL A   1     -21.468  -0.412  28.873  0.00  0.00    +0.022 C 
ENDROOT
BRANCH   2   8
ATOM      8  C   UNL A   1     -24.573  -1.980  29.542  0.00  0.00    -0.001 C 
ATOM      9  C   UNL A   1     -25.174  -3.215  29.329  0.00  0.00    -0.000 C 
BRANCH   9  10
ATOM     10  C   UNL A   1     -24.401  -4.256  28.792  0.00  0.00    -0.000 C 
ATOM     11  C   UNL A   1     -24.776  -5.547  28.957  0.00  0.00    -0.000 C 
ENDBRANCH   9  10
ENDBRANCH   2   8
TORSDOF 2
ENDMDL
ENDMDL
