REMARK  Name = No_4547-gen_results/8p0m/2024-11-27-11-27-31/
REMARK  4 active torsions:
REMARK  status: ('A' for Active; 'I' for Inactive)
REMARK    1  A    between atoms: C_1  and  C_2
REMARK    2  A    between atoms: C_1  and  C_8
REMARK    3  A    between atoms: C_5  and  C_10
REMARK    4  A    between atoms: C_9  and  C_13
REMARK                            x       y       z     vdW  Elec       q    Type
REMARK                         _______ _______ _______ _____ _____    ______ ____
ROOT
ATOM      1  C   UNL A   1     -27.064  -0.119  28.608  0.00  0.00    -0.018 A 
ATOM      2  C   UNL A   1     -26.876   1.133  28.913  0.00  0.00    -0.004 A 
ATOM      3  C   UNL A   1     -25.688   1.952  28.567  0.00  0.00    -0.003 A 
ATOM      4  C   UNL A   1     -24.639   1.283  27.875  0.00  0.00    -0.005 A 
ATOM      5  C   UNL A   1     -24.807  -0.051  27.604  0.00  0.00    -0.003 A 
ATOM      6  C   UNL A   1     -25.902  -0.767  27.951  0.00  0.00    -0.004 A 
ENDROOT
BRANCH   4   7
ATOM      7  C   UNL A   1     -23.427   1.981  27.509  0.00  0.00    +0.114 C 
ATOM      8  N   UNL A   1     -22.270   2.204  28.103  0.00  0.00    -0.128 NA
ATOM      9  C   UNL A   1     -23.452   2.495  26.088  0.00  0.00    +0.025 C 
ENDBRANCH   4   7
BRANCH   1  10
ATOM     10  C   UNL A   1     -28.016  -0.814  28.878  0.00  0.00    +0.052 C 
BRANCH  10  11
ATOM     11  C   UNL A   1     -29.212  -0.115  29.122  0.00  0.00    -0.021 C 
ATOM     12  C   UNL A   1     -30.351  -0.818  29.578  0.00  0.00    -0.005 C 
BRANCH  12  13
ATOM     13  C   UNL A   1     -31.604  -0.356  29.314  0.00  0.00    -0.005 C 
ATOM     14  C   UNL A   1     -31.766   0.944  28.861  0.00  0.00    -0.026 C 
ATOM     15  C   UNL A   1     -30.669   1.655  28.450  0.00  0.00    +0.031 C 
ENDBRANCH  12  13
ENDBRANCH  10  11
ENDBRANCH   1  10
TORSDOF 4
