MODEL 4547
MODEL 1
REMARK VINA RESULT:    -5.939      0.000      0.000
REMARK INTER + INTRA:          -8.332
REMARK INTER:                  -7.328
REMARK INTRA:                  -1.004
REMARK UNBOUND:                -1.004
REMARK  Name = No_4547-gen_results/8p0m/2024-11-27-11-27-31/
REMARK  4 active torsions:
REMARK  status: ('A' for Active; 'I' for Inactive)
REMARK    1  A    between atoms: C_1  and  C_2
REMARK    2  A    between atoms: C_1  and  C_8
REMARK    3  A    between atoms: C_5  and  C_10
REMARK    4  A    between atoms: C_9  and  C_13
REMARK                            x       y       z     vdW  Elec       q    Type
REMARK                         _______ _______ _______ _____ _____    ______ ____
ROOT
ATOM      1  C   UNL A   1     -23.419  -0.531  29.451  0.00  0.00    -0.018 A 
ATOM      2  C   UNL A   1     -23.035  -1.674  28.959  0.00  0.00    -0.004 A 
ATOM      3  C   UNL A   1     -23.827  -2.928  28.932  0.00  0.00    -0.003 A 
ATOM      4  C   UNL A   1     -25.109  -2.880  29.548  0.00  0.00    -0.005 A 
ATOM      5  C   UNL A   1     -25.494  -1.694  30.121  0.00  0.00    -0.003 A 
ATOM      6  C   UNL A   1     -24.734  -0.574  30.137  0.00  0.00    -0.004 A 
ENDROOT
BRANCH   4   7
ATOM      7  C   UNL A   1     -25.954  -4.052  29.598  0.00  0.00    +0.114 C 
ATOM      8  N   UNL A   1     -27.241  -4.259  29.806  0.00  0.00    -0.128 NA
ATOM      9  C   UNL A   1     -25.218  -5.322  29.240  0.00  0.00    +0.025 C 
ENDBRANCH   4   7
BRANCH   1  10
ATOM     10  C   UNL A   1     -22.798   0.506  29.492  0.00  0.00    +0.052 C 
BRANCH  10  11
ATOM     11  C   UNL A   1     -22.465   1.049  28.238  0.00  0.00    -0.021 C 
ATOM     12  C   UNL A   1     -23.383   1.898  27.579  0.00  0.00    -0.005 C 
BRANCH  12  13
ATOM     13  C   UNL A   1     -23.384   1.999  26.221  0.00  0.00    -0.005 C 
ATOM     14  C   UNL A   1     -24.171   1.134  25.477  0.00  0.00    -0.026 C 
ATOM     15  C   UNL A   1     -25.114   0.369  26.111  0.00  0.00    +0.031 C 
ENDBRANCH  12  13
ENDBRANCH  10  11
ENDBRANCH   1  10
TORSDOF 4
ENDMDL
ENDMDL
