MODEL 4548
MODEL 1
REMARK VINA RESULT:    -7.800      0.000      0.000
REMARK INTER + INTRA:          -9.660
REMARK INTER:                  -9.168
REMARK INTRA:                  -0.492
REMARK UNBOUND:                -0.492
REMARK  Name = No_4548-gen_results/8p0m/2024-11-27-11-27-31/
REMARK  3 active torsions:
REMARK  status: ('A' for Active; 'I' for Inactive)
REMARK    1  A    between atoms: C_2  and  O_10
REMARK    2  A    between atoms: C_5  and  C_6
REMARK    3  A    between atoms: O_10  and  C_11
REMARK                            x       y       z     vdW  Elec       q    Type
REMARK                         _______ _______ _______ _____ _____    ______ ____
ROOT
ATOM      1  C   UNL A   1     -23.691   0.294  27.904  0.00  0.00    +0.040 A 
ATOM      2  C   UNL A   1     -23.314  -0.413  28.810  0.00  0.00    +0.145 A 
ATOM      3  C   UNL A   1     -22.022  -0.500  29.216  0.00  0.00    +0.037 A 
ATOM      4  C   UNL A   1     -21.056   0.276  28.546  0.00  0.00    +0.003 A 
ATOM      5  C   UNL A   1     -22.775   1.185  27.238  0.00  0.00    +0.056 A 
ATOM      6  C   UNL A   1     -21.467   1.142  27.601  0.00  0.00    +0.002 A 
ENDROOT
BRANCH   5   7
ATOM      7  C   UNL A   1     -23.214   2.081  26.197  0.00  0.00    +0.350 C 
ATOM      8 CL   UNL A   1     -24.179   3.249  26.409  0.00  0.00    -0.042 Cl
ATOM      9  F   UNL A   1     -22.119   2.338  25.352  0.00  0.00    -0.182 F 
ATOM     10  F   UNL A   1     -23.967   1.182  25.346  0.00  0.00    -0.182 F 
ENDBRANCH   5   7
BRANCH   2  11
ATOM     11  O   UNL A   1     -24.207  -1.237  29.556  0.00  0.00    -0.454 OA
BRANCH  11  12
ATOM     12  C   UNL A   1     -24.376  -2.579  29.213  0.00  0.00    +0.145 A 
ATOM     13  C   UNL A   1     -23.834  -3.418  28.842  0.00  0.00    +0.037 A 
ATOM     14  C   UNL A   1     -25.812  -3.005  29.804  0.00  0.00    +0.037 A 
ATOM     15  C   UNL A   1     -24.111  -4.788  28.558  0.00  0.00    +0.003 A 
ATOM     16  C   UNL A   1     -26.132  -4.319  29.681  0.00  0.00    +0.003 A 
ATOM     17  C   UNL A   1     -25.279  -5.255  29.074  0.00  0.00    +0.000 A 
ENDBRANCH  11  12
ENDBRANCH   2  11
TORSDOF 3
ENDMDL
ENDMDL
