REMARK  Name = No_4549-gen_results/8p0m/2024-11-27-11-27-31/
REMARK  3 active torsions:
REMARK  status: ('A' for Active; 'I' for Inactive)
REMARK    1  A    between atoms: C_2  and  C_7
REMARK    2  A    between atoms: C_3  and  C_11
REMARK    3  A    between atoms: C_11  and  C_12
REMARK                            x       y       z     vdW  Elec       q    Type
REMARK                         _______ _______ _______ _____ _____    ______ ____
ROOT
ATOM      1  C   UNL A   1     -28.016  -0.814  28.878  0.00  0.00    +0.004 A 
ATOM      2  C   UNL A   1     -28.469  -0.785  29.829  0.00  0.00    +0.080 A 
ATOM      3  C   UNL A   1     -26.546  -0.876  28.850  0.00  0.00    -0.007 A 
ATOM      4  C   UNL A   1     -25.804  -1.032  30.057  0.00  0.00    +0.054 A 
ATOM      5  C   UNL A   1     -27.944  -0.987  31.207  0.00  0.00    +0.007 A 
ATOM      6  C   UNL A   1     -26.582  -1.039  31.223  0.00  0.00    +0.011 A 
ATOM      7 CL   UNL A   1     -24.130  -1.109  30.073  0.00  0.00    -0.083 Cl
ENDROOT
BRANCH   2   8
ATOM      8  C   UNL A   1     -30.061  -0.737  29.902  0.00  0.00    +0.388 C 
ATOM      9  O   UNL A   1     -30.725  -1.554  30.270  0.00  0.00    -0.241 OA
ATOM     10  O   UNL A   1     -30.551   0.378  29.354  0.00  0.00    -0.241 OA
ENDBRANCH   2   8
BRANCH   3  11
ATOM     11  C   UNL A   1     -25.672  -0.792  27.613  0.00  0.00    +0.053 C 
BRANCH  11  12
ATOM     12  C   UNL A   1     -26.012   0.167  26.638  0.00  0.00    -0.018 A 
ATOM     13  C   UNL A   1     -25.123   0.474  25.668  0.00  0.00    -0.004 A 
ATOM     14  C   UNL A   1     -26.894   1.192  26.800  0.00  0.00    -0.004 A 
ATOM     15  C   UNL A   1     -27.155   2.133  25.858  0.00  0.00    -0.000 A 
ATOM     16  C   UNL A   1     -25.220   1.375  24.650  0.00  0.00    -0.000 A 
ATOM     17  C   UNL A   1     -26.268   2.241  24.792  0.00  0.00    -0.000 A 
ENDBRANCH  11  12
ENDBRANCH   3  11
TORSDOF 3
