MODEL 4549
MODEL 1
REMARK VINA RESULT:    -7.089      0.000      0.000
REMARK INTER + INTRA:          -9.050
REMARK INTER:                  -8.333
REMARK INTRA:                  -0.717
REMARK UNBOUND:                -0.717
REMARK  Name = No_4549-gen_results/8p0m/2024-11-27-11-27-31/
REMARK  3 active torsions:
REMARK  status: ('A' for Active; 'I' for Inactive)
REMARK    1  A    between atoms: C_2  and  C_7
REMARK    2  A    between atoms: C_3  and  C_11
REMARK    3  A    between atoms: C_11  and  C_12
REMARK                            x       y       z     vdW  Elec       q    Type
REMARK                         _______ _______ _______ _____ _____    ______ ____
ROOT
ATOM      1  C   UNL A   1     -24.494   0.177  27.550  0.00  0.00    +0.004 A 
ATOM      2  C   UNL A   1     -23.753   0.741  27.057  0.00  0.00    +0.080 A 
ATOM      3  C   UNL A   1     -24.136  -0.372  28.868  0.00  0.00    -0.007 A 
ATOM      4  C   UNL A   1     -22.899  -0.026  29.485  0.00  0.00    +0.054 A 
ATOM      5  C   UNL A   1     -22.437   1.284  27.492  0.00  0.00    +0.007 A 
ATOM      6  C   UNL A   1     -22.066   0.789  28.706  0.00  0.00    +0.011 A 
ATOM      7 CL   UNL A   1     -22.450  -0.626  30.984  0.00  0.00    -0.083 Cl
ENDROOT
BRANCH   2   8
ATOM      8  C   UNL A   1     -24.109   1.370  25.635  0.00  0.00    +0.388 C 
ATOM      9  O   UNL A   1     -24.561   0.826  24.773  0.00  0.00    -0.241 OA
ATOM     10  O   UNL A   1     -23.694   2.635  25.533  0.00  0.00    -0.241 OA
ENDBRANCH   2   8
BRANCH   3  11
ATOM     11  C   UNL A   1     -24.980  -1.318  29.700  0.00  0.00    +0.053 C 
BRANCH  11  12
ATOM     12  C   UNL A   1     -25.019  -2.672  29.311  0.00  0.00    -0.018 A 
ATOM     13  C   UNL A   1     -25.951  -3.492  29.845  0.00  0.00    -0.004 A 
ATOM     14  C   UNL A   1     -23.962  -3.403  28.859  0.00  0.00    -0.004 A 
ATOM     15  C   UNL A   1     -24.022  -4.722  28.547  0.00  0.00    -0.000 A 
ATOM     16  C   UNL A   1     -26.160  -4.823  29.642  0.00  0.00    -0.000 A 
ATOM     17  C   UNL A   1     -25.128  -5.440  28.991  0.00  0.00    -0.000 A 
ENDBRANCH  11  12
ENDBRANCH   3  11
TORSDOF 3
ENDMDL
ENDMDL
