MODEL 454
MODEL 1
REMARK VINA RESULT:    -8.823      0.000      0.000
REMARK INTER + INTRA:         -12.184
REMARK INTER:                 -11.917
REMARK INTRA:                  -0.267
REMARK UNBOUND:                -0.267
REMARK  Name = No_454-gen_results/8p0m/2024-11-27-11-27-31/
REMARK  6 active torsions:
REMARK  status: ('A' for Active; 'I' for Inactive)
REMARK    1  A    between atoms: C_3  and  C_7
REMARK    2  A    between atoms: C_4  and  O_27
REMARK    3  A    between atoms: C_7  and  C_15
REMARK    4  A    between atoms: C_8  and  C_9
REMARK    5  A    between atoms: C_16  and  C_19
REMARK    6  A    between atoms: C_19  and  C_23
REMARK                            x       y       z     vdW  Elec       q    Type
REMARK                         _______ _______ _______ _____ _____    ______ ____
ROOT
ATOM      1  C   UNL A   1     -23.687   0.597  28.137  0.00  0.00    -0.004 A 
ATOM      2  C   UNL A   1     -24.080   1.401  27.281  0.00  0.00    -0.018 A 
ATOM      3  C   UNL A   1     -22.320   0.551  28.649  0.00  0.00    -0.000 A 
ATOM      4  C   UNL A   1     -21.244   0.939  27.849  0.00  0.00    -0.000 A 
ATOM      5  C   UNL A   1     -21.620   1.914  26.854  0.00  0.00    -0.000 A 
ATOM      6  C   UNL A   1     -23.016   2.212  26.513  0.00  0.00    -0.004 A 
ENDROOT
BRANCH   2   7
ATOM      7  C   UNL A   1     -25.401   1.496  26.720  0.00  0.00    +0.054 C 
ATOM      8  C   UNL A   1     -26.570   1.081  27.505  0.00  0.00    -0.005 C 
ATOM      9  C   UNL A   1     -25.698   3.050  26.459  0.00  0.00    +0.065 C 
ATOM     10  C   UNL A   1     -27.053   3.581  26.190  0.00  0.00    +0.020 C 
ATOM     11  C   UNL A   1     -24.916   4.105  27.400  0.00  0.00    +0.020 C 
ATOM     12  N   UNL A   1     -26.623   3.049  27.278  0.00  0.00    -0.308 N 
ATOM     13  C   UNL A   1     -26.859   3.924  28.470  0.00  0.00    +0.112 C 
ATOM     14  C   UNL A   1     -27.361   1.878  27.540  0.00  0.00    +0.057 C 
BRANCH   7  15
ATOM     15  C   UNL A   1     -25.729   1.017  25.445  0.00  0.00    +0.009 C 
ATOM     16  C   UNL A   1     -26.533  -0.361  25.456  0.00  0.00    +0.001 C 
ATOM     17  C   UNL A   1     -24.572   0.322  24.767  0.00  0.00    +0.001 C 
ENDBRANCH   7  15
ENDBRANCH   2   7
BRANCH   1  18
ATOM     18  C   UNL A   1     -24.557  -0.340  28.707  0.00  0.00    +0.003 C 
ATOM     19  C   UNL A   1     -24.803  -1.532  28.082  0.00  0.00    +0.000 C 
BRANCH  18  22
ATOM     20  C   UNL A   1     -23.249  -1.072  30.785  0.00  0.00    +0.003 A 
ATOM     21  C   UNL A   1     -23.193  -1.084  31.838  0.00  0.00    +0.000 A 
ATOM     22  C   UNL A   1     -24.373  -0.457  30.192  0.00  0.00    +0.034 A 
ATOM     23  C   UNL A   1     -25.383   0.106  30.949  0.00  0.00    +0.139 A 
ATOM     24  C   UNL A   1     -24.117  -0.561  32.863  0.00  0.00    +0.003 A 
ATOM     25  C   UNL A   1     -25.209   0.037  32.337  0.00  0.00    +0.037 A 
BRANCH  23  26
ATOM     26  O   UNL A   1     -25.765   1.506  30.648  0.00  0.00    -0.471 OA
ATOM     27  C   UNL A   1     -24.846   2.528  31.210  0.00  0.00    +0.253 C 
ENDBRANCH  23  26
ENDBRANCH  18  22
BRANCH  19  28
ATOM     28  C   UNL A   1     -24.993  -2.700  28.806  0.00  0.00    +0.000 A 
ATOM     29  C   UNL A   1     -24.029  -3.816  28.458  0.00  0.00    +0.000 A 
ATOM     30  C   UNL A   1     -24.331  -5.144  28.719  0.00  0.00    +0.000 A 
ATOM     31  C   UNL A   1     -25.466  -5.372  29.522  0.00  0.00    +0.000 A 
ATOM     32  C   UNL A   1     -26.112  -3.331  29.418  0.00  0.00    +0.000 A 
ATOM     33  C   UNL A   1     -26.343  -4.584  29.738  0.00  0.00    +0.000 A 
ENDBRANCH  19  28
ENDBRANCH   1  18
TORSDOF 6
ENDMDL
ENDMDL
