MODEL 4550
MODEL 1
REMARK VINA RESULT:    -6.941      0.000      0.000
REMARK INTER + INTRA:          -9.693
REMARK INTER:                  -8.564
REMARK INTRA:                  -1.130
REMARK UNBOUND:                -1.130
REMARK  Name = No_4550-gen_results/8p0m/2024-11-27-11-27-31/
REMARK  4 active torsions:
REMARK  status: ('A' for Active; 'I' for Inactive)
REMARK    1  A    between atoms: C_3  and  C_4
REMARK    2  A    between atoms: C_4  and  C_8
REMARK    3  A    between atoms: C_8  and  C_9
REMARK    4  A    between atoms: C_8  and  C_15
REMARK                            x       y       z     vdW  Elec       q    Type
REMARK                         _______ _______ _______ _____ _____    ______ ____
ROOT
ATOM      1  C   UNL A   1     -24.128  -0.554  29.998  0.00  0.00    +0.027 C 
ENDROOT
BRANCH   1   2
ATOM      2  C   UNL A   1     -23.113   0.047  29.274  0.00  0.00    -0.022 A 
ATOM      3  C   UNL A   1     -21.788  -0.228  29.148  0.00  0.00    -0.004 A 
ATOM      4  C   UNL A   1     -20.889   0.457  28.277  0.00  0.00    -0.000 A 
ATOM      5  C   UNL A   1     -21.396   1.500  27.526  0.00  0.00    -0.000 A 
ATOM      6  C   UNL A   1     -23.591   1.204  28.387  0.00  0.00    -0.004 A 
ATOM      7  C   UNL A   1     -22.681   1.833  27.535  0.00  0.00    -0.000 A 
ENDBRANCH   1   2
BRANCH   1   8
ATOM      8  C   UNL A   1     -24.277  -0.518  31.344  0.00  0.00    +0.005 C 
ATOM      9  C   UNL A   1     -23.434  -1.389  32.152  0.00  0.00    +0.000 C 
ENDBRANCH   1   8
BRANCH   1  10
ATOM     10  C   UNL A   1     -25.126  -1.147  29.126  0.00  0.00    +0.031 C 
BRANCH  10  13
ATOM     11  C   UNL A   1     -26.327  -3.429  29.674  0.00  0.00    -0.004 A 
ATOM     12  C   UNL A   1     -26.145  -4.466  29.708  0.00  0.00    -0.000 A 
ATOM     13  C   UNL A   1     -25.189  -2.587  29.141  0.00  0.00    -0.022 A 
ATOM     14  C   UNL A   1     -25.076  -5.294  29.134  0.00  0.00    -0.000 A 
ATOM     15  C   UNL A   1     -24.013  -4.597  28.603  0.00  0.00    -0.000 A 
ATOM     16  C   UNL A   1     -24.037  -3.227  28.555  0.00  0.00    -0.004 A 
ENDBRANCH  10  13
ENDBRANCH   1  10
TORSDOF 4
ENDMDL
ENDMDL
