MODEL 4551
MODEL 1
REMARK VINA RESULT:    -5.047      0.000      0.000
REMARK INTER + INTRA:          -5.396
REMARK INTER:                  -5.342
REMARK INTRA:                  -0.054
REMARK UNBOUND:                -0.054
REMARK  Name = No_4551-gen_results/8p0m/2024-11-27-11-27-31/
REMARK  1 active torsions:
REMARK  status: ('A' for Active; 'I' for Inactive)
REMARK    1  A    between atoms: C_2  and  C_5
REMARK                            x       y       z     vdW  Elec       q    Type
REMARK                         _______ _______ _______ _____ _____    ______ ____
ROOT
ATOM      1  C   UNL A   1     -27.797 -12.110  31.654  0.00  0.00    +0.007 A 
ATOM      2  C   UNL A   1     -28.040 -11.558  32.518  0.00  0.00    +0.080 A 
ATOM      3  C   UNL A   1     -28.574 -11.725  30.475  0.00  0.00    +0.000 A 
ATOM      4  C   UNL A   1     -29.510 -10.722  30.513  0.00  0.00    +0.000 A 
ATOM      5  C   UNL A   1     -29.697 -10.057  31.740  0.00  0.00    +0.000 A 
ATOM      6  C   UNL A   1     -28.903 -10.418  32.831  0.00  0.00    +0.007 A 
ENDROOT
BRANCH   2   7
ATOM      7  C   UNL A   1     -27.231 -11.876  33.811  0.00  0.00    +0.388 C 
ATOM      8  O   UNL A   1     -26.720 -12.744  33.803  0.00  0.00    -0.241 OA
ATOM      9  O   UNL A   1     -27.000 -10.756  34.604  0.00  0.00    -0.241 OA
ENDBRANCH   2   7
TORSDOF 1
ENDMDL
ENDMDL
