REMARK  Name = outputs/IAG933/test6/raw/output_4552_IAG933_linker_design_.xyz
REMARK  9 active torsions:
REMARK  status: ('A' for Active; 'I' for Inactive)
REMARK    1  A    between atoms: C_1  and  C_2
REMARK    2  A    between atoms: C_1  and  C_8
REMARK    3  A    between atoms: C_1  and  N_31
REMARK    4  A    between atoms: C_13  and  C_42
REMARK    5  A    between atoms: C_14  and  C_15
REMARK    6  A    between atoms: C_21  and  O_22
REMARK    7  A    between atoms: O_22  and  C_23
REMARK    8  A    between atoms: C_23  and  C_24
REMARK    9  A    between atoms: C_28  and  N_31
REMARK                            x       y       z     vdW  Elec       q    Type
REMARK                         _______ _______ _______ _____ _____    ______ ____
ROOT
ATOM      1  C   UNL A   1     -23.252   1.942  26.696  0.00  0.00    +0.091 A 
ATOM      2  N   UNL A   1     -25.494  -0.076  29.205  0.00  0.00    -0.287 N 
ATOM      3  N   UNL A   1     -23.300   0.225  28.837  0.00  0.00    -0.211 NA
ATOM      4  N   UNL A   1     -21.070   0.231  29.120  0.00  0.00    -0.105 NA
ATOM      5  C   UNL A   1     -22.181   0.708  28.416  0.00  0.00    +0.199 A 
ATOM      6  C   UNL A   1     -22.089   1.581  27.333  0.00  0.00    +0.185 A 
ATOM      7 CL   UNL A   1     -23.082   3.000  25.240  0.00  0.00    -0.080 Cl
ATOM      8  C   UNL A   1     -24.482   1.343  27.224  0.00  0.00    +0.047 A 
ATOM      9  F   UNL A   1     -20.921   2.136  26.988  0.00  0.00    -0.200 F 
ATOM     10  C   UNL A   1     -24.505   0.500  28.374  0.00  0.00    +0.135 A 
ENDROOT
BRANCH   2  11
ATOM     11  C   UNL A   1     -26.899   0.427  29.063  0.00  0.00    +0.124 C 
ATOM     12  N   UNL A   1     -28.134   1.840  30.734  0.00  0.00    -0.260 N 
ATOM     13  O   UNL A   1     -30.382   2.767  30.842  0.00  0.00    -0.249 OA
ATOM     14  C   UNL A   1     -26.970   1.835  29.756  0.00  0.00    +0.117 C 
ATOM     15  O   UNL A   1     -28.268  -1.521  28.987  0.00  0.00    -0.221 OA
ATOM     16  C   UNL A   1     -29.098   2.925  30.971  0.00  0.00    +0.343 C 
ATOM     17  C   UNL A   1     -29.483   0.338  29.449  0.00  0.00    +0.056 C 
ATOM     18  N   UNL A   1     -28.782   4.015  31.634  0.00  0.00    -0.069 NA
ATOM     19  C   UNL A   1     -28.261  -0.176  28.665  0.00  0.00    +0.173 C 
ATOM     20  C   UNL A   1     -29.035   0.592  30.921  0.00  0.00    +0.098 C 
ENDBRANCH   2  11
BRANCH   8  21
ATOM     21  C   UNL A   1     -25.688   1.614  26.461  0.00  0.00    +0.042 C 
ATOM     22  C   UNL A   1     -26.250   2.920  26.395  0.00  0.00    +0.077 C 
ATOM     23  C   UNL A   1     -27.438   3.091  25.645  0.00  0.00    +0.107 C 
ATOM     24  N   UNL A   1     -28.075   2.089  25.003  0.00  0.00    -0.208 NA
ATOM     25  C   UNL A   1     -27.543   0.849  25.079  0.00  0.00    +0.253 C 
ATOM     26  C   UNL A   1     -26.354   0.576  25.777  0.00  0.00    +0.193 C 
ATOM     27  F   UNL A   1     -25.860  -0.681  25.795  0.00  0.00    -0.199 F 
BRANCH  22  28
ATOM     28  C   UNL A   1     -25.642   4.093  27.123  0.00  0.00    +0.266 C 
ATOM     29  N   UNL A   1     -25.614   5.252  26.449  0.00  0.00    -0.200 NA
ATOM     30  C   UNL A   1     -25.026   6.479  26.963  0.00  0.00    +0.139 C 
ATOM     31  O   UNL A   1     -25.143   3.966  28.243  0.00  0.00    -0.268 OA
ENDBRANCH  22  28
BRANCH  25  32
ATOM     32  O   UNL A   1     -28.193  -0.208  24.477  0.00  0.00    -0.456 OA
BRANCH  32  33
ATOM     33  C   UNL A   1     -29.460   0.005  23.866  0.00  0.00    +0.243 C 
BRANCH  33  34
ATOM     34  C   UNL A   1     -30.065  -1.377  23.573  0.00  0.00    +0.229 C 
ATOM     35  O   UNL A   1     -30.729  -1.878  24.721  0.00  0.00    -0.216 OA
ENDBRANCH  33  34
ENDBRANCH  32  33
ENDBRANCH  25  32
ENDBRANCH   8  21
BRANCH   2  36
ATOM     36  C   UNL A   1     -24.855  -1.012  30.143  0.00  0.00    +0.113 C 
BRANCH  36  37
ATOM     37  C   UNL A   1     -24.973  -2.505  29.788  0.00  0.00    -0.003 C 
ATOM     38  C   UNL A   1     -23.906  -3.173  29.146  0.00  0.00    -0.003 C 
ATOM     39  C   UNL A   1     -23.989  -4.549  28.853  0.00  0.00    -0.000 C 
ATOM     40  C   UNL A   1     -25.137  -5.280  29.205  0.00  0.00    -0.000 C 
ATOM     41  C   UNL A   1     -26.232  -4.611  29.784  0.00  0.00    -0.000 C 
ATOM     42  C   UNL A   1     -26.155  -3.232  30.065  0.00  0.00    -0.003 C 
ENDBRANCH  36  37
BRANCH  36  43
ATOM     43  C   UNL A   1     -25.387  -0.679  31.571  0.00  0.00    +0.095 C 
ATOM     44  C   UNL A   1     -25.189   0.773  32.028  0.00  0.00    +0.021 C 
ATOM     45  C   UNL A   1     -25.336   0.684  33.544  0.00  0.00    +0.020 C 
ATOM     46  C   UNL A   1     -24.829  -0.715  33.905  0.00  0.00    +0.089 C 
ATOM     47  N   UNL A   1     -24.758  -1.481  32.646  0.00  0.00    -0.217 NA
ENDBRANCH  36  43
ENDBRANCH   2  36
TORSDOF 9
