MODEL 4552
MODEL 1
REMARK VINA RESULT:    -5.812      0.000      0.000
REMARK INTER + INTRA:          -7.713
REMARK INTER:                  -6.832
REMARK INTRA:                  -0.881
REMARK UNBOUND:                -0.881
REMARK  Name = No_4552-gen_results/8p0m/2024-11-27-11-27-31/
REMARK  3 active torsions:
REMARK  status: ('A' for Active; 'I' for Inactive)
REMARK    1  A    between atoms: C_2  and  C_7
REMARK    2  A    between atoms: C_8  and  C_9
REMARK    3  A    between atoms: C_10  and  C_11
REMARK                            x       y       z     vdW  Elec       q    Type
REMARK                         _______ _______ _______ _____ _____    ______ ____
ROOT
ATOM      1  C   UNL A   1     -25.003  -1.112  28.875  0.00  0.00    -0.000 C 
ATOM      2  C   UNL A   1     -24.419  -0.401  29.929  0.00  0.00    -0.005 C 
ENDROOT
BRANCH   1   4
ATOM      3  C   UNL A   1     -24.092  -3.279  28.379  0.00  0.00    -0.000 A 
ATOM      4  C   UNL A   1     -24.975  -2.635  28.897  0.00  0.00    -0.000 A 
ATOM      5  C   UNL A   1     -26.020  -3.182  29.567  0.00  0.00    -0.000 A 
ATOM      6  C   UNL A   1     -26.088  -4.585  29.668  0.00  0.00    -0.000 A 
ATOM      7  C   UNL A   1     -24.047  -4.711  28.525  0.00  0.00    -0.000 A 
ATOM      8  C   UNL A   1     -25.089  -5.313  29.164  0.00  0.00    +0.000 A 
ENDBRANCH   1   4
BRANCH   2   9
ATOM      9  C   UNL A   1     -23.326  -0.769  30.582  0.00  0.00    -0.026 C 
ATOM     10  C   UNL A   1     -23.328  -1.153  31.708  0.00  0.00    -0.030 C 
ATOM     11  C   UNL A   1     -21.968  -0.354  29.832  0.00  0.00    +0.031 C 
BRANCH  10  12
ATOM     12  C   UNL A   1     -24.523  -0.895  32.547  0.00  0.00    +0.026 C 
ATOM     13  C   UNL A   1     -24.204  -0.920  33.916  0.00  0.00    +0.005 C 
ENDBRANCH  10  12
ENDBRANCH   2   9
TORSDOF 3
ENDMDL
ENDMDL
