MODEL 4553
MODEL 1
REMARK VINA RESULT:    -6.700      0.000      0.000
REMARK INTER + INTRA:          -8.425
REMARK INTER:                  -7.875
REMARK INTRA:                  -0.550
REMARK UNBOUND:                -0.550
REMARK  Name = No_4553-gen_results/8p0m/2024-11-27-11-27-31/
REMARK  3 active torsions:
REMARK  status: ('A' for Active; 'I' for Inactive)
REMARK    1  A    between atoms: C_5  and  C_6
REMARK    2  A    between atoms: C_9  and  O_14
REMARK    3  A    between atoms: O_14  and  C_15
REMARK                            x       y       z     vdW  Elec       q    Type
REMARK                         _______ _______ _______ _____ _____    ______ ____
ROOT
ATOM      1  C   UNL A   1     -23.421  -2.053  28.944  0.00  0.00    +0.003 A 
ATOM      2  C   UNL A   1     -23.926  -1.077  29.449  0.00  0.00    +0.035 A 
ATOM      3  C   UNL A   1     -25.166  -1.153  30.074  0.00  0.00    +0.005 A 
ATOM      4  C   UNL A   1     -25.909  -2.386  30.099  0.00  0.00    -0.004 A 
ATOM      5  C   UNL A   1     -25.262  -3.458  29.471  0.00  0.00    -0.022 A 
ATOM      6  C   UNL A   1     -24.019  -3.351  28.903  0.00  0.00    -0.004 A 
ATOM      7  C   UNL A   1     -23.330   0.333  29.428  0.00  0.00    +0.148 A 
ATOM      8  C   UNL A   1     -23.361   1.076  30.453  0.00  0.00    +0.067 A 
ATOM      9  C   UNL A   1     -24.430   0.857  31.466  0.00  0.00    +0.143 A 
ATOM     10  C   UNL A   1     -25.298  -0.223  31.307  0.00  0.00    +0.030 A 
ATOM     11  F   UNL A   1     -24.771   1.776  32.326  0.00  0.00    -0.204 F 
ENDROOT
BRANCH   5  12
ATOM     12  C   UNL A   1     -25.894  -4.749  29.545  0.00  0.00    +0.026 C 
ATOM     13  C   UNL A   1     -24.831  -5.667  28.925  0.00  0.00    +0.005 C 
ENDBRANCH   5  12
BRANCH   7  14
ATOM     14  O   UNL A   1     -22.344   0.529  28.522  0.00  0.00    -0.451 OA
BRANCH  14  15
ATOM     15  C   UNL A   1     -22.388   1.529  27.698  0.00  0.00    +0.175 C 
ATOM     16  C   UNL A   1     -23.339   1.510  26.719  0.00  0.00    +0.015 C 
ATOM     17  C   UNL A   1     -23.451   2.612  25.811  0.00  0.00    +0.034 C 
ENDBRANCH  14  15
ENDBRANCH   7  14
TORSDOF 3
ENDMDL
ENDMDL
