REMARK  Name = No_4553-gen_results/8p0m/2024-11-27-11-27-31/
REMARK  3 active torsions:
REMARK  status: ('A' for Active; 'I' for Inactive)
REMARK    1  A    between atoms: C_5  and  C_6
REMARK    2  A    between atoms: C_9  and  O_14
REMARK    3  A    between atoms: O_14  and  C_15
REMARK                            x       y       z     vdW  Elec       q    Type
REMARK                         _______ _______ _______ _____ _____    ______ ____
ROOT
ATOM      1  C   UNL A   1     -28.016  -0.814  28.878  0.00  0.00    +0.003 A 
ATOM      2  C   UNL A   1     -27.064  -0.119  28.608  0.00  0.00    +0.035 A 
ATOM      3  C   UNL A   1     -25.792  -0.430  29.076  0.00  0.00    +0.005 A 
ATOM      4  C   UNL A   1     -25.576  -1.565  29.936  0.00  0.00    -0.004 A 
ATOM      5  C   UNL A   1     -26.735  -2.300  30.217  0.00  0.00    -0.022 A 
ATOM      6  C   UNL A   1     -27.964  -1.983  29.700  0.00  0.00    -0.004 A 
ATOM      7  C   UNL A   1     -27.123   1.177  27.796  0.00  0.00    +0.148 A 
ATOM      8  C   UNL A   1     -26.246   1.448  26.923  0.00  0.00    +0.067 A 
ATOM      9  C   UNL A   1     -24.890   0.848  27.059  0.00  0.00    +0.143 A 
ATOM     10  C   UNL A   1     -24.659  -0.071  28.082  0.00  0.00    +0.030 A 
ATOM     11  F   UNL A   1     -23.846   1.348  26.458  0.00  0.00    -0.204 F 
ENDROOT
BRANCH   5  12
ATOM     12  C   UNL A   1     -26.584  -3.508  30.985  0.00  0.00    +0.026 C 
ATOM     13  C   UNL A   1     -26.723  -4.596  29.910  0.00  0.00    +0.005 C 
ENDBRANCH   5  12
BRANCH   7  14
ATOM     14  O   UNL A   1     -28.358   1.713  27.653  0.00  0.00    -0.451 OA
BRANCH  14  15
ATOM     15  C   UNL A   1     -28.963   2.265  28.658  0.00  0.00    +0.175 C 
ATOM     16  C   UNL A   1     -30.303   2.046  28.797  0.00  0.00    +0.015 C 
ATOM     17  C   UNL A   1     -31.005   2.602  29.915  0.00  0.00    +0.034 C 
ENDBRANCH  14  15
ENDBRANCH   7  14
TORSDOF 3
