MODEL 4554
MODEL 1
REMARK VINA RESULT:    -4.516      0.000      0.000
REMARK INTER + INTRA:          -5.568
REMARK INTER:                  -5.308
REMARK INTRA:                  -0.260
REMARK UNBOUND:                -0.260
REMARK  Name = No_4554-gen_results/8p0m/2024-11-27-11-27-31/
REMARK  3 active torsions:
REMARK  status: ('A' for Active; 'I' for Inactive)
REMARK    1  A    between atoms: C_2  and  C_3
REMARK    2  A    between atoms: C_5  and  C_6
REMARK    3  A    between atoms: C_7  and  C_8
REMARK                            x       y       z     vdW  Elec       q    Type
REMARK                         _______ _______ _______ _____ _____    ______ ____
ROOT
ATOM      1  C   UNL A   1     -24.190  -3.409  29.308  0.00  0.00    +0.012 C 
ATOM      2  C   UNL A   1     -24.076  -2.391  29.069  0.00  0.00    -0.054 C 
ENDROOT
BRANCH   1   4
ATOM      3  O   UNL A   1     -25.274  -5.130  29.367  0.00  0.00    -0.244 OA
ATOM      4  C   UNL A   1     -24.479  -4.370  29.041  0.00  0.00    +0.376 C 
ATOM      5  F   UNL A   1     -23.663  -4.971  27.936  0.00  0.00    -0.149 F 
ENDBRANCH   1   4
BRANCH   2   6
ATOM      6  C   UNL A   1     -22.950  -1.437  29.021  0.00  0.00    +0.050 C 
ATOM      7  C   UNL A   1     -22.477  -0.591  30.107  0.00  0.00    +0.009 C 
BRANCH   7   8
ATOM      8  C   UNL A   1     -23.332  -0.556  31.297  0.00  0.00    +0.001 C 
ATOM      9  C   UNL A   1     -22.962  -1.171  32.464  0.00  0.00    +0.000 C 
ENDBRANCH   7   8
ENDBRANCH   2   6
TORSDOF 3
ENDMDL
ENDMDL
