MODEL 4555
MODEL 1
REMARK VINA RESULT:    -5.030      0.000      0.000
REMARK INTER + INTRA:          -5.760
REMARK INTER:                  -5.618
REMARK INTRA:                  -0.142
REMARK UNBOUND:                -0.142
REMARK  Name = No_4555-gen_results/8p0m/2024-11-27-11-27-31/
REMARK  2 active torsions:
REMARK  status: ('A' for Active; 'I' for Inactive)
REMARK    1  A    between atoms: C_1  and  C_7
REMARK    2  A    between atoms: C_7  and  N_8
REMARK                            x       y       z     vdW  Elec       q    Type
REMARK                         _______ _______ _______ _____ _____    ______ ____
ROOT
ATOM      1  C   UNL A   1     -24.477  -2.677  29.180  0.00  0.00    -0.006 A 
ATOM      2  C   UNL A   1     -23.838  -3.531  28.609  0.00  0.00    -0.003 A 
ATOM      3  C   UNL A   1     -24.193  -4.866  28.588  0.00  0.00    -0.000 A 
ATOM      4  C   UNL A   1     -25.398  -5.245  29.243  0.00  0.00    -0.000 A 
ATOM      5  C   UNL A   1     -26.162  -4.234  29.718  0.00  0.00    -0.000 A 
ATOM      6  C   UNL A   1     -25.761  -2.979  29.658  0.00  0.00    -0.003 A 
ENDROOT
BRANCH   1   7
ATOM      7  C   UNL A   1     -24.020  -1.240  29.141  0.00  0.00    +0.099 C 
BRANCH   7   8
ATOM      8  N   UNL A   1     -22.970  -0.932  29.804  0.00  0.00    -0.267 NA
ATOM      9  C   UNL A   1     -23.039  -0.751  31.139  0.00  0.00    +0.090 C 
ATOM     10  C   UNL A   1     -21.819  -0.425  29.140  0.00  0.00    +0.090 C 
ENDBRANCH   7   8
ENDBRANCH   1   7
TORSDOF 2
ENDMDL
ENDMDL
