REMARK  Name = outputs/IAG933/test6/raw/output_4555_IAG933_linker_design_.xyz
REMARK  11 active torsions:
REMARK  status: ('A' for Active; 'I' for Inactive)
REMARK    1  A    between atoms: C_1  and  C_2
REMARK    2  A    between atoms: C_1  and  C_8
REMARK    3  A    between atoms: C_1  and  C_31
REMARK    4  A    between atoms: C_13  and  C_40
REMARK    5  A    between atoms: C_14  and  C_15
REMARK    6  A    between atoms: C_21  and  O_22
REMARK    7  A    between atoms: O_22  and  C_23
REMARK    8  A    between atoms: C_23  and  C_24
REMARK    9  A    between atoms: C_28  and  N_36
REMARK   10  A    between atoms: C_30  and  C_31
REMARK   11  A    between atoms: C_31  and  C_33
REMARK                            x       y       z     vdW  Elec       q    Type
REMARK                         _______ _______ _______ _____ _____    ______ ____
ROOT
ATOM      1  F   UNL A   1     -22.179   0.063  29.467  0.00  0.00    -0.201 F 
ATOM      2  C   UNL A   1     -23.989   0.759  28.078  0.00  0.00    +0.016 C 
ATOM      3  C   UNL A   1     -23.168   2.093  26.163  0.00  0.00    +0.347 C 
ATOM      4  F   UNL A   1     -23.296   3.030  25.166  0.00  0.00    -0.184 F 
ATOM      5  C   UNL A   1     -22.546   0.755  28.366  0.00  0.00    +0.173 C 
ATOM      6  C   UNL A   1     -21.530   1.320  27.631  0.00  0.00    +0.205 C 
ATOM      7  O   UNL A   1     -21.874   1.879  26.484  0.00  0.00    -0.441 OA
ATOM      8  C   UNL A   1     -24.270   1.455  26.905  0.00  0.00    +0.036 C 
ENDROOT
BRANCH   8   9
ATOM      9  C   UNL A   1     -25.688   1.614  26.461  0.00  0.00    +0.094 C 
ATOM     10  C   UNL A   1     -26.250   2.920  26.395  0.00  0.00    +0.059 C 
ATOM     11  C   UNL A   1     -27.438   3.091  25.645  0.00  0.00    +0.102 C 
ATOM     12  N   UNL A   1     -28.075   2.089  25.003  0.00  0.00    -0.212 NA
ATOM     13  C   UNL A   1     -27.543   0.849  25.079  0.00  0.00    +0.234 C 
ATOM     14  C   UNL A   1     -26.354   0.576  25.777  0.00  0.00    +0.244 C 
ATOM     15  F   UNL A   1     -25.860  -0.681  25.795  0.00  0.00    -0.227 F 
BRANCH  10  16
ATOM     16  C   UNL A   1     -25.642   4.093  27.123  0.00  0.00    +0.263 C 
ATOM     17  N   UNL A   1     -25.614   5.252  26.449  0.00  0.00    -0.200 NA
ATOM     18  C   UNL A   1     -25.026   6.479  26.963  0.00  0.00    +0.139 C 
ATOM     19  O   UNL A   1     -25.143   3.966  28.243  0.00  0.00    -0.269 OA
ENDBRANCH  10  16
BRANCH  13  20
ATOM     20  O   UNL A   1     -28.193  -0.208  24.477  0.00  0.00    -0.459 OA
BRANCH  20  21
ATOM     21  C   UNL A   1     -29.460   0.005  23.866  0.00  0.00    +0.242 C 
BRANCH  21  22
ATOM     22  C   UNL A   1     -30.065  -1.377  23.573  0.00  0.00    +0.229 C 
ATOM     23  O   UNL A   1     -30.729  -1.878  24.721  0.00  0.00    -0.216 OA
ENDBRANCH  21  22
ENDBRANCH  20  21
ENDBRANCH  13  20
ENDBRANCH   8   9
BRANCH   2  24
ATOM     24  C   UNL A   1     -25.101   0.056  28.996  0.00  0.00    +0.108 C 
BRANCH  24  25
ATOM     25  C   UNL A   1     -26.520   0.527  29.000  0.00  0.00    +0.248 C 
ATOM     26  N   UNL A   1     -26.713   1.791  29.338  0.00  0.00    -0.171 NA
ATOM     27  O   UNL A   1     -27.431  -0.223  28.740  0.00  0.00    -0.273 OA
BRANCH  26  28
ATOM     28  C   UNL A   1     -27.460   2.774  29.844  0.00  0.00    +0.298 C 
ATOM     29  O   UNL A   1     -26.680   3.396  30.770  0.00  0.00    -0.194 OA
ENDBRANCH  26  28
ENDBRANCH  24  25
BRANCH  24  30
ATOM     30  C   UNL A   1     -24.855  -1.012  30.143  0.00  0.00    +0.051 C 
BRANCH  30  31
ATOM     31  C   UNL A   1     -24.973  -2.505  29.788  0.00  0.00    -0.020 C 
ATOM     32  C   UNL A   1     -23.906  -3.173  29.146  0.00  0.00    -0.004 C 
ATOM     33  C   UNL A   1     -23.989  -4.549  28.853  0.00  0.00    -0.000 C 
ATOM     34  C   UNL A   1     -25.137  -5.280  29.205  0.00  0.00    -0.000 C 
ATOM     35  C   UNL A   1     -26.232  -4.611  29.784  0.00  0.00    -0.000 C 
ATOM     36  C   UNL A   1     -26.155  -3.232  30.065  0.00  0.00    -0.004 C 
ENDBRANCH  30  31
BRANCH  30  37
ATOM     37  C   UNL A   1     -25.387  -0.679  31.571  0.00  0.00    +0.078 C 
ATOM     38  C   UNL A   1     -25.189   0.773  32.028  0.00  0.00    +0.019 C 
ATOM     39  C   UNL A   1     -25.336   0.684  33.544  0.00  0.00    +0.020 C 
ATOM     40  C   UNL A   1     -24.829  -0.715  33.905  0.00  0.00    +0.089 C 
ATOM     41  N   UNL A   1     -24.758  -1.481  32.646  0.00  0.00    -0.219 NA
ENDBRANCH  30  37
ENDBRANCH  24  30
ENDBRANCH   2  24
TORSDOF 11
