MODEL 4556
MODEL 1
REMARK VINA RESULT:    -7.181      0.000      0.000
REMARK INTER + INTRA:          -8.958
REMARK INTER:                  -8.860
REMARK INTRA:                  -0.098
REMARK UNBOUND:                -0.098
REMARK  Name = No_4556-gen_results/8p0m/2024-11-27-11-27-31/
REMARK  4 active torsions:
REMARK  status: ('A' for Active; 'I' for Inactive)
REMARK    1  A    between atoms: C_4  and  C_11
REMARK    2  A    between atoms: N_19  and  C_20
REMARK    3  A    between atoms: C_21  and  C_22
REMARK    4  A    between atoms: C_22  and  C_23
REMARK                            x       y       z     vdW  Elec       q    Type
REMARK                         _______ _______ _______ _____ _____    ______ ____
ROOT
ATOM      1  N   UNL A   1     -25.658  -1.124  30.296  0.00  0.00    -0.225 NA
ATOM      2  C   UNL A   1     -25.681  -2.195  30.054  0.00  0.00    +0.164 A 
ATOM      3  C   UNL A   1     -24.582  -0.444  29.802  0.00  0.00    +0.105 A 
ATOM      4  C   UNL A   1     -23.733  -0.876  29.353  0.00  0.00    +0.073 A 
ATOM      5  N   UNL A   1     -26.836  -3.014  30.498  0.00  0.00    -0.210 NA
ATOM      6  C   UNL A   1     -24.720  -2.990  29.369  0.00  0.00    +0.036 A 
ATOM      7  C   UNL A   1     -23.625  -2.267  28.964  0.00  0.00    +0.009 A 
ATOM      8  C   UNL A   1     -27.066  -4.252  30.070  0.00  0.00    +0.153 A 
ATOM      9  C   UNL A   1     -26.068  -4.940  29.470  0.00  0.00    +0.036 A 
ATOM     10  C   UNL A   1     -24.899  -4.367  29.040  0.00  0.00    +0.006 A 
ATOM     11  N   UNL A   1     -28.213  -4.808  30.541  0.00  0.00    -0.193 NA
ENDROOT
BRANCH   4  12
ATOM     12  C   UNL A   1     -22.441  -0.028  28.834  0.00  0.00    +0.252 C 
ATOM     13  O   UNL A   1     -21.462  -0.157  29.126  0.00  0.00    -0.270 OA
ATOM     14  N   UNL A   1     -22.732   1.105  28.022  0.00  0.00    -0.261 N 
ATOM     15  C   UNL A   1     -21.675   1.846  27.421  0.00  0.00    +0.186 C 
ATOM     16  C   UNL A   1     -24.042   1.488  27.526  0.00  0.00    +0.097 C 
ATOM     17  C   UNL A   1     -24.075   1.511  26.119  0.00  0.00    +0.040 C 
ATOM     18  C   UNL A   1     -22.982   2.196  25.411  0.00  0.00    +0.092 C 
ATOM     19  N   UNL A   1     -21.760   2.028  26.006  0.00  0.00    -0.197 NA
ENDBRANCH   4  12
BRANCH  11  20
ATOM     20  C   UNL A   1     -29.180  -4.611  30.854  0.00  0.00    +0.083 C 
ATOM     21  C   UNL A   1     -30.183  -5.330  30.259  0.00  0.00    -0.007 C 
BRANCH  21  22
ATOM     22  C   UNL A   1     -30.745  -5.172  29.349  0.00  0.00    +0.048 C 
BRANCH  22  23
ATOM     23  C   UNL A   1     -30.763  -5.919  28.019  0.00  0.00    +0.114 C 
ATOM     24  N   UNL A   1     -31.259  -5.435  26.902  0.00  0.00    -0.131 NA
ENDBRANCH  22  23
ENDBRANCH  21  22
ENDBRANCH  11  20
TORSDOF 4
ENDMDL
ENDMDL
