MODEL 4557
MODEL 1
REMARK VINA RESULT:    -5.162      0.000      0.000
REMARK INTER + INTRA:          -5.504
REMARK INTER:                  -5.464
REMARK INTRA:                  -0.040
REMARK UNBOUND:                -0.040
REMARK  Name = No_4557-gen_results/8p0m/2024-11-27-11-27-31/
REMARK  1 active torsions:
REMARK  status: ('A' for Active; 'I' for Inactive)
REMARK    1  A    between atoms: C_2  and  C_7
REMARK                            x       y       z     vdW  Elec       q    Type
REMARK                         _______ _______ _______ _____ _____    ______ ____
ROOT
ATOM      1  C   UNL A   1      -8.490 -10.523  18.431  0.00  0.00    +0.007 A 
ATOM      2  C   UNL A   1      -9.461 -10.137  18.293  0.00  0.00    +0.080 A 
ATOM      3  C   UNL A   1      -7.801 -10.143  19.674  0.00  0.00    +0.000 A 
ATOM      4  C   UNL A   1      -8.485  -9.409  20.687  0.00  0.00    +0.000 A 
ATOM      5  C   UNL A   1     -10.401  -9.416  19.194  0.00  0.00    +0.007 A 
ATOM      6  C   UNL A   1      -9.794  -9.038  20.354  0.00  0.00    +0.000 A 
ENDROOT
BRANCH   2   7
ATOM      7  C   UNL A   1     -10.249 -10.541  16.967  0.00  0.00    +0.388 C 
ATOM      8  O   UNL A   1      -9.580 -10.976  15.975  0.00  0.00    -0.241 OA
ATOM      9  O   UNL A   1     -11.486 -10.526  17.043  0.00  0.00    -0.241 OA
ENDBRANCH   2   7
TORSDOF 1
ENDMDL
ENDMDL
