MODEL 4558
MODEL 1
REMARK VINA RESULT:    -5.440      0.000      0.000
REMARK INTER + INTRA:         -13.144
REMARK INTER:                  -8.302
REMARK INTRA:                  -4.842
REMARK UNBOUND:                -4.842
REMARK  Name = No_4558-gen_results/8p0m/2024-11-27-11-27-31/
REMARK  9 active torsions:
REMARK  status: ('A' for Active; 'I' for Inactive)
REMARK    1  A    between atoms: C_3  and  C_7
REMARK    2  A    between atoms: C_6  and  O_13
REMARK    3  A    between atoms: O_13  and  C_14
REMARK    4  A    between atoms: C_14  and  C_15
REMARK    5  A    between atoms: C_15  and  C_16
REMARK    6  A    between atoms: N_18  and  C_19
REMARK    7  A    between atoms: C_19  and  C_20
REMARK    8  A    between atoms: C_21  and  C_22
REMARK    9  A    between atoms: C_24  and  C_28
REMARK                            x       y       z     vdW  Elec       q    Type
REMARK                         _______ _______ _______ _____ _____    ______ ____
ROOT
ATOM      1  C   UNL A   1     -28.245   2.595  24.011  0.00  0.00    +0.134 C 
ENDROOT
BRANCH   1   2
ATOM      2  C   UNL A   1     -28.598   1.237  23.854  0.00  0.00    +0.245 C 
ATOM      3  O   UNL A   1     -29.732   0.904  23.685  0.00  0.00    -0.273 OA
ATOM      4  N   UNL A   1     -27.637   0.335  24.209  0.00  0.00    -0.201 NA
BRANCH   4   5
ATOM      5  C   UNL A   1     -26.321   0.628  24.582  0.00  0.00    +0.141 C 
BRANCH   5   6
ATOM      6  C   UNL A   1     -25.800   0.022  25.514  0.00  0.00    -0.003 C 
ATOM      7  C   UNL A   1     -24.839   0.535  26.372  0.00  0.00    -0.003 C 
BRANCH   7   8
ATOM      8  C   UNL A   1     -24.187  -0.207  27.402  0.00  0.00    -0.000 A 
ATOM      9  C   UNL A   1     -24.768  -1.413  27.800  0.00  0.00    +0.007 A 
ATOM     10  C   UNL A   1     -24.221  -2.077  28.925  0.00  0.00    +0.080 A 
ATOM     11  C   UNL A   1     -23.258  -1.444  29.698  0.00  0.00    +0.007 A 
ATOM     12  C   UNL A   1     -22.698  -0.239  29.281  0.00  0.00    +0.000 A 
ATOM     13  C   UNL A   1     -23.228   0.433  28.180  0.00  0.00    -0.000 A 
BRANCH  10  14
ATOM     14  C   UNL A   1     -24.819  -3.328  29.404  0.00  0.00    +0.388 C 
ATOM     15  O   UNL A   1     -25.783  -3.321  29.972  0.00  0.00    -0.241 OA
ATOM     16  O   UNL A   1     -24.122  -4.433  29.307  0.00  0.00    -0.241 OA
ENDBRANCH  10  14
ENDBRANCH   7   8
ENDBRANCH   5   6
ENDBRANCH   4   5
ENDBRANCH   1   2
BRANCH   1  17
ATOM     17  C   UNL A   1     -28.921   3.151  25.138  0.00  0.00    +0.215 C 
BRANCH  17  18
ATOM     18  O   UNL A   1     -28.136   3.848  25.934  0.00  0.00    -0.475 OA
BRANCH  18  24
ATOM     19  C   UNL A   1     -28.021   2.184  27.522  0.00  0.00    +0.037 A 
ATOM     20  C   UNL A   1     -27.574   1.730  28.550  0.00  0.00    +0.003 A 
ATOM     21  C   UNL A   1     -26.507   2.108  29.193  0.00  0.00    +0.000 A 
ATOM     22  C   UNL A   1     -25.736   3.177  28.644  0.00  0.00    +0.003 A 
ATOM     23  C   UNL A   1     -26.250   3.765  27.539  0.00  0.00    +0.037 A 
ATOM     24  C   UNL A   1     -27.413   3.323  26.962  0.00  0.00    +0.139 A 
BRANCH  21  25
ATOM     25  C   UNL A   1     -25.975   1.443  30.428  0.00  0.00    +0.000 A 
ATOM     26  C   UNL A   1     -25.203   1.768  31.107  0.00  0.00    +0.000 A 
ATOM     27  C   UNL A   1     -24.623   1.011  32.273  0.00  0.00    +0.000 A 
ATOM     28  C   UNL A   1     -26.627   0.085  30.755  0.00  0.00    +0.000 A 
ATOM     29  C   UNL A   1     -26.262  -0.619  31.907  0.00  0.00    +0.000 A 
ATOM     30  C   UNL A   1     -25.176  -0.130  32.636  0.00  0.00    +0.000 A 
ENDBRANCH  21  25
ENDBRANCH  18  24
ENDBRANCH  17  18
ENDBRANCH   1  17
TORSDOF 9
ENDMDL
ENDMDL
