MODEL 4559
MODEL 1
REMARK VINA RESULT:    -6.342      0.000      0.000
REMARK INTER + INTRA:          -8.436
REMARK INTER:                  -7.825
REMARK INTRA:                  -0.611
REMARK UNBOUND:                -0.611
REMARK  Name = No_4559-gen_results/8p0m/2024-11-27-11-27-31/
REMARK  4 active torsions:
REMARK  status: ('A' for Active; 'I' for Inactive)
REMARK    1  A    between atoms: C_3  and  C_7
REMARK    2  A    between atoms: C_7  and  C_9
REMARK    3  A    between atoms: C_10  and  C_11
REMARK    4  A    between atoms: C_12  and  C_13
REMARK                            x       y       z     vdW  Elec       q    Type
REMARK                         _______ _______ _______ _____ _____    ______ ____
ROOT
ATOM      1  C   UNL A   1     -24.334  -1.266  29.177  0.00  0.00    +0.044 C 
ATOM      2  C   UNL A   1     -25.255  -0.406  29.793  0.00  0.00    +0.009 C 
ENDROOT
BRANCH   1   5
ATOM      3  C   UNL A   1     -23.884  -3.737  28.666  0.00  0.00    -0.004 A 
ATOM      4  C   UNL A   1     -24.235  -4.729  28.721  0.00  0.00    -0.000 A 
ATOM      5  C   UNL A   1     -24.718  -2.715  29.172  0.00  0.00    -0.018 A 
ATOM      6  C   UNL A   1     -25.960  -2.985  29.711  0.00  0.00    -0.004 A 
ATOM      7  C   UNL A   1     -26.339  -4.317  29.751  0.00  0.00    -0.000 A 
ATOM      8  C   UNL A   1     -25.477  -5.284  29.279  0.00  0.00    -0.000 A 
ENDBRANCH   1   5
BRANCH   1   9
ATOM      9  C   UNL A   1     -23.183  -0.785  28.592  0.00  0.00    -0.022 C 
ATOM     10  C   UNL A   1     -22.554   0.349  29.008  0.00  0.00    -0.004 C 
BRANCH  10  11
ATOM     11  C   UNL A   1     -21.404   0.740  28.264  0.00  0.00    -0.000 C 
ATOM     12  C   UNL A   1     -21.579   1.672  27.237  0.00  0.00    -0.000 C 
BRANCH  12  13
ATOM     13  C   UNL A   1     -22.852   2.186  26.972  0.00  0.00    -0.000 C 
ATOM     14  C   UNL A   1     -23.299   2.347  25.659  0.00  0.00    -0.000 C 
ENDBRANCH  12  13
ENDBRANCH  10  11
ENDBRANCH   1   9
TORSDOF 4
ENDMDL
ENDMDL
