REMARK  Name = No_4559-gen_results/8p0m/2024-11-27-11-27-31/
REMARK  4 active torsions:
REMARK  status: ('A' for Active; 'I' for Inactive)
REMARK    1  A    between atoms: C_3  and  C_7
REMARK    2  A    between atoms: C_7  and  C_9
REMARK    3  A    between atoms: C_10  and  C_11
REMARK    4  A    between atoms: C_12  and  C_13
REMARK                            x       y       z     vdW  Elec       q    Type
REMARK                         _______ _______ _______ _____ _____    ______ ____
ROOT
ATOM      1  C   UNL A   1     -26.408   0.307  27.226  0.00  0.00    +0.044 C 
ATOM      2  C   UNL A   1     -25.011   0.390  27.323  0.00  0.00    +0.009 C 
ENDROOT
BRANCH   1   5
ATOM      3  C   UNL A   1     -28.016  -0.814  28.878  0.00  0.00    -0.004 A 
ATOM      4  C   UNL A   1     -28.469  -0.785  29.829  0.00  0.00    -0.000 A 
ATOM      5  C   UNL A   1     -27.136   0.236  28.535  0.00  0.00    -0.018 A 
ATOM      6  C   UNL A   1     -26.875   1.282  29.398  0.00  0.00    -0.004 A 
ATOM      7  C   UNL A   1     -27.507   1.238  30.630  0.00  0.00    -0.000 A 
ATOM      8  C   UNL A   1     -28.329   0.174  30.935  0.00  0.00    -0.000 A 
ENDBRANCH   1   5
BRANCH   1   9
ATOM      9  C   UNL A   1     -27.046   0.329  26.005  0.00  0.00    -0.022 C 
ATOM     10  C   UNL A   1     -28.401   0.362  25.874  0.00  0.00    -0.004 C 
BRANCH  10  11
ATOM     11  C   UNL A   1     -28.905   0.328  24.542  0.00  0.00    -0.000 C 
ATOM     12  C   UNL A   1     -30.292   0.292  24.372  0.00  0.00    -0.000 C 
BRANCH  12  13
ATOM     13  C   UNL A   1     -31.132   0.291  25.491  0.00  0.00    -0.000 C 
ATOM     14  C   UNL A   1     -30.602   0.304  26.782  0.00  0.00    -0.000 C 
ENDBRANCH  12  13
ENDBRANCH  10  11
ENDBRANCH   1   9
TORSDOF 4
