MODEL 455
MODEL 1
REMARK VINA RESULT:    -4.345      0.000      0.000
REMARK INTER + INTRA:          -4.345
REMARK INTER:                  -4.345
REMARK INTRA:                   0.000
REMARK UNBOUND:                 0.000
REMARK  Name = No_455-gen_results/8p0m/2024-11-27-11-27-31/
REMARK  0 active torsions:
REMARK  status: ('A' for Active; 'I' for Inactive)
REMARK                            x       y       z     vdW  Elec       q    Type
REMARK                         _______ _______ _______ _____ _____    ______ ____
ROOT
ATOM      1  C   UNL A   1     -24.057  -4.031  28.814  0.00  0.00    +0.007 A 
ATOM      2  C   UNL A   1     -24.339  -2.923  29.210  0.00  0.00    +0.035 A 
ATOM      3  C   UNL A   1     -25.522  -2.606  29.795  0.00  0.00    +0.007 A 
ATOM      4  C   UNL A   1     -26.483  -3.622  29.955  0.00  0.00    +0.001 A 
ATOM      5  C   UNL A   1     -24.953  -5.138  29.031  0.00  0.00    +0.001 A 
ATOM      6  C   UNL A   1     -26.166  -4.866  29.589  0.00  0.00    +0.000 A 
ATOM      7 BR   UNL A   1     -23.104  -1.467  29.053  0.00  0.00    -0.049 Br
ENDROOT
TORSDOF 0
ENDMDL
ENDMDL
