REMARK  Name = outputs/IAG933/test6/raw/output_4560_IAG933_linker_design_.xyz
REMARK  13 active torsions:
REMARK  status: ('A' for Active; 'I' for Inactive)
REMARK    1  A    between atoms: C_1  and  C_2
REMARK    2  A    between atoms: C_1  and  C_8
REMARK    3  A    between atoms: C_1  and  N_34
REMARK    4  A    between atoms: C_13  and  C_30
REMARK    5  A    between atoms: C_14  and  C_15
REMARK    6  A    between atoms: C_21  and  O_22
REMARK    7  A    between atoms: O_22  and  C_23
REMARK    8  A    between atoms: C_23  and  C_24
REMARK    9  A    between atoms: C_29  and  C_41
REMARK   10  A    between atoms: O_32  and  C_37
REMARK   11  A    between atoms: O_32  and  C_41
REMARK   12  A    between atoms: C_35  and  N_36
REMARK   13  A    between atoms: C_35  and  C_38
REMARK                            x       y       z     vdW  Elec       q    Type
REMARK                         _______ _______ _______ _____ _____    ______ ____
ROOT
ATOM      1  C   UNL A   1     -25.911   0.398  28.434  0.00  0.00    +0.097 A 
ATOM      2  C   UNL A   1     -25.258   0.966  27.482  0.00  0.00    +0.078 A 
ATOM      3  N   UNL A   1     -24.920  -0.173  28.962  0.00  0.00    -0.266 N 
ATOM      4  N   UNL A   1     -24.177   0.745  27.980  0.00  0.00    -0.251 N 
ENDROOT
BRANCH   2   5
ATOM      5  C   UNL A   1     -25.688   1.614  26.461  0.00  0.00    +0.111 C 
ATOM      6  C   UNL A   1     -26.250   2.920  26.395  0.00  0.00    +0.060 C 
ATOM      7  C   UNL A   1     -27.438   3.091  25.645  0.00  0.00    +0.102 C 
ATOM      8  N   UNL A   1     -28.075   2.089  25.003  0.00  0.00    -0.212 NA
ATOM      9  C   UNL A   1     -27.543   0.849  25.079  0.00  0.00    +0.234 C 
ATOM     10  C   UNL A   1     -26.354   0.576  25.777  0.00  0.00    +0.246 C 
ATOM     11  F   UNL A   1     -25.860  -0.681  25.795  0.00  0.00    -0.227 F 
BRANCH   6  12
ATOM     12  C   UNL A   1     -25.642   4.093  27.123  0.00  0.00    +0.263 C 
ATOM     13  N   UNL A   1     -25.614   5.252  26.449  0.00  0.00    -0.200 NA
ATOM     14  C   UNL A   1     -25.026   6.479  26.963  0.00  0.00    +0.139 C 
ATOM     15  O   UNL A   1     -25.143   3.966  28.243  0.00  0.00    -0.269 OA
ENDBRANCH   6  12
BRANCH   9  16
ATOM     16  O   UNL A   1     -28.193  -0.208  24.477  0.00  0.00    -0.459 OA
BRANCH  16  17
ATOM     17  C   UNL A   1     -29.460   0.005  23.866  0.00  0.00    +0.242 C 
BRANCH  17  18
ATOM     18  C   UNL A   1     -30.065  -1.377  23.573  0.00  0.00    +0.229 C 
ATOM     19  O   UNL A   1     -30.729  -1.878  24.721  0.00  0.00    -0.216 OA
ENDBRANCH  17  18
ENDBRANCH  16  17
ENDBRANCH   9  16
ENDBRANCH   2   5
BRANCH   4  20
ATOM     20  C   UNL A   1     -23.126   1.303  28.390  0.00  0.00    +0.260 C 
ATOM     21  N   UNL A   1     -22.377   0.735  29.465  0.00  0.00    -0.100 NA
BRANCH  20  23
ATOM     22  F   UNL A   1     -21.133   1.079  27.364  0.00  0.00    -0.195 F 
ATOM     23  C   UNL A   1     -22.224   1.683  27.298  0.00  0.00    +0.358 C 
ATOM     24  F   UNL A   1     -22.687   2.363  26.292  0.00  0.00    -0.195 F 
ENDBRANCH  20  23
ENDBRANCH   4  20
BRANCH   3  25
ATOM     25  C   UNL A   1     -24.855  -1.012  30.143  0.00  0.00    +0.141 C 
BRANCH  25  26
ATOM     26  C   UNL A   1     -24.973  -2.505  29.788  0.00  0.00    +0.001 C 
ATOM     27  C   UNL A   1     -23.906  -3.173  29.146  0.00  0.00    -0.002 C 
ATOM     28  C   UNL A   1     -23.989  -4.549  28.853  0.00  0.00    -0.000 C 
ATOM     29  C   UNL A   1     -25.137  -5.280  29.205  0.00  0.00    -0.000 C 
ATOM     30  C   UNL A   1     -26.232  -4.611  29.784  0.00  0.00    -0.000 C 
ATOM     31  C   UNL A   1     -26.155  -3.232  30.065  0.00  0.00    -0.002 C 
ENDBRANCH  25  26
BRANCH  25  32
ATOM     32  C   UNL A   1     -25.387  -0.679  31.571  0.00  0.00    +0.099 C 
ATOM     33  C   UNL A   1     -25.189   0.773  32.028  0.00  0.00    +0.021 C 
ATOM     34  C   UNL A   1     -25.336   0.684  33.544  0.00  0.00    +0.020 C 
ATOM     35  C   UNL A   1     -24.829  -0.715  33.905  0.00  0.00    +0.089 C 
ATOM     36  N   UNL A   1     -24.758  -1.481  32.646  0.00  0.00    -0.217 NA
ENDBRANCH  25  32
ENDBRANCH   3  25
BRANCH   1  37
ATOM     37  C   UNL A   1     -27.404   0.512  28.711  0.00  0.00    +0.188 C 
BRANCH  37  38
ATOM     38  O   UNL A   1     -27.603   1.733  29.479  0.00  0.00    -0.350 OA
BRANCH  38  41
ATOM     39  C   UNL A   1     -26.844   3.716  30.548  0.00  0.00    +0.032 C 
ATOM     40  C   UNL A   1     -28.077   4.220  28.856  0.00  0.00    +0.032 C 
ATOM     41  C   UNL A   1     -27.143   3.000  29.290  0.00  0.00    +0.116 C 
ENDBRANCH  38  41
ENDBRANCH  37  38
ENDBRANCH   1  37
TORSDOF 13
