MODEL 4560
MODEL 1
REMARK VINA RESULT:    -5.071      0.000      0.000
REMARK INTER + INTRA:          -5.071
REMARK INTER:                  -5.071
REMARK INTRA:                   0.000
REMARK UNBOUND:                 0.000
REMARK  Name = No_4560-gen_results/8p0m/2024-11-27-11-27-31/
REMARK  0 active torsions:
REMARK  status: ('A' for Active; 'I' for Inactive)
REMARK                            x       y       z     vdW  Elec       q    Type
REMARK                         _______ _______ _______ _____ _____    ______ ____
ROOT
ATOM      1  O   UNL A   1     -11.096 -10.374  16.891  0.00  0.00    -0.265 OA
ATOM      2  C   UNL A   1     -10.259 -10.123  17.766  0.00  0.00    +0.279 A 
ATOM      3  C   UNL A   1      -9.042 -10.668  17.776  0.00  0.00    +0.062 A 
ATOM      4  C   UNL A   1      -8.204 -10.508  18.865  0.00  0.00    +0.006 A 
ATOM      5  N   UNL A   1     -10.515  -9.301  18.896  0.00  0.00    -0.206 NA
ATOM      6  C   UNL A   1      -9.721  -9.032  19.955  0.00  0.00    +0.102 A 
ATOM      7  C   UNL A   1      -8.509  -9.647  19.981  0.00  0.00    +0.021 A 
ENDROOT
TORSDOF 0
ENDMDL
ENDMDL
