MODEL 4561
MODEL 1
REMARK VINA RESULT:    -6.038      0.000      0.000
REMARK INTER + INTRA:          -7.023
REMARK INTER:                  -6.744
REMARK INTRA:                  -0.279
REMARK UNBOUND:                -0.279
REMARK  Name = No_4561-gen_results/8p0m/2024-11-27-11-27-31/
REMARK  2 active torsions:
REMARK  status: ('A' for Active; 'I' for Inactive)
REMARK    1  A    between atoms: C_2  and  C_11
REMARK    2  A    between atoms: C_3  and  C_7
REMARK                            x       y       z     vdW  Elec       q    Type
REMARK                         _______ _______ _______ _____ _____    ______ ____
ROOT
ATOM      1  C   UNL A   1     -28.337 -11.921  31.119  0.00  0.00    +0.010 A 
ATOM      2  C   UNL A   1     -28.217 -11.625  32.124  0.00  0.00    +0.080 A 
ATOM      3  C   UNL A   1     -29.228 -11.177  30.315  0.00  0.00    +0.072 A 
ATOM      4  C   UNL A   1     -29.937 -10.101  30.813  0.00  0.00    +0.004 A 
ATOM      5  C   UNL A   1     -28.841 -10.530  32.892  0.00  0.00    +0.007 A 
ATOM      6  C   UNL A   1     -29.703  -9.792  32.159  0.00  0.00    +0.000 A 
ENDROOT
BRANCH   3   7
ATOM      7  C   UNL A   1     -29.461 -11.471  28.861  0.00  0.00    +0.419 C 
ATOM      8  F   UNL A   1     -28.549 -11.780  28.232  0.00  0.00    -0.166 F 
ATOM      9  F   UNL A   1     -30.116 -10.340  28.308  0.00  0.00    -0.166 F 
ATOM     10  F   UNL A   1     -30.499 -12.424  28.621  0.00  0.00    -0.166 F 
ENDBRANCH   3   7
BRANCH   2  11
ATOM     11  C   UNL A   1     -27.143 -12.363  33.070  0.00  0.00    +0.388 C 
ATOM     12  O   UNL A   1     -26.367 -12.913  32.545  0.00  0.00    -0.241 OA
ATOM     13  O   UNL A   1     -27.225 -12.215  34.383  0.00  0.00    -0.241 OA
ENDBRANCH   2  11
TORSDOF 2
ENDMDL
ENDMDL
