MODEL 4562
MODEL 1
REMARK VINA RESULT:    -7.362      0.000      0.000
REMARK INTER + INTRA:         -13.581
REMARK INTER:                 -10.375
REMARK INTRA:                  -3.206
REMARK UNBOUND:                -3.206
REMARK  Name = No_4562-gen_results/8p0m/2024-11-27-11-27-31/
REMARK  7 active torsions:
REMARK  status: ('A' for Active; 'I' for Inactive)
REMARK    1  A    between atoms: C_3  and  C_13
REMARK    2  A    between atoms: C_4  and  C_5
REMARK    3  A    between atoms: C_13  and  C_14
REMARK    4  A    between atoms: C_14  and  C_15
REMARK    5  A    between atoms: C_19  and  C_21
REMARK    6  A    between atoms: N_22  and  C_23
REMARK    7  A    between atoms: C_23  and  C_25
REMARK                            x       y       z     vdW  Elec       q    Type
REMARK                         _______ _______ _______ _____ _____    ______ ____
ROOT
ATOM      1  C   UNL A   1     -32.624  -7.437  10.489  0.00  0.00    -0.022 A 
ATOM      2  C   UNL A   1     -33.251  -7.467   9.202  0.00  0.00    -0.004 A 
ATOM      3  C   UNL A   1     -33.107  -8.452   8.343  0.00  0.00    -0.000 A 
ATOM      4  C   UNL A   1     -32.774  -9.780   8.837  0.00  0.00    +0.004 A 
ATOM      5  C   UNL A   1     -32.179  -9.869  10.102  0.00  0.00    +0.055 A 
ATOM      6  C   UNL A   1     -32.003  -8.667  10.871  0.00  0.00    +0.000 A 
ENDROOT
BRANCH   5   7
ATOM      7  C   UNL A   1     -31.594 -11.155  10.552  0.00  0.00    +0.266 C 
ATOM      8  N   UNL A   1     -30.350 -11.184  10.950  0.00  0.00    -0.179 NA
ATOM      9  O   UNL A   1     -32.383 -12.097  10.936  0.00  0.00    -0.268 OA
BRANCH   8  10
ATOM     10  C   UNL A   1     -29.826 -12.275  11.473  0.00  0.00    +0.208 C 
ATOM     11  N   UNL A   1     -29.703 -12.265  12.846  0.00  0.00    -0.104 NA
BRANCH  10  12
ATOM     12  C   UNL A   1     -29.743 -13.320  10.707  0.00  0.00    +0.015 A 
ATOM     13  C   UNL A   1     -29.279 -13.461   9.579  0.00  0.00    -0.001 A 
ATOM     14  C   UNL A   1     -28.993 -14.210   8.973  0.00  0.00    -0.000 A 
ATOM     15  C   UNL A   1     -29.229 -15.626   9.414  0.00  0.00    -0.000 A 
ATOM     16  C   UNL A   1     -29.786 -15.768  10.652  0.00  0.00    -0.000 A 
ATOM     17  C   UNL A   1     -30.019 -14.669  11.378  0.00  0.00    -0.001 A 
ENDBRANCH  10  12
ENDBRANCH   8  10
ENDBRANCH   5   7
BRANCH   1  18
ATOM     18  C   UNL A   1     -31.989  -6.266  10.864  0.00  0.00    +0.031 C 
BRANCH  18  19
ATOM     19  C   UNL A   1     -30.583  -6.075  10.608  0.00  0.00    +0.031 C 
BRANCH  19  22
ATOM     20  C   UNL A   1     -30.821  -4.113   9.045  0.00  0.00    -0.004 A 
ATOM     21  C   UNL A   1     -30.538  -3.615   8.161  0.00  0.00    -0.000 A 
ATOM     22  C   UNL A   1     -30.214  -5.394   9.273  0.00  0.00    -0.022 A 
ATOM     23  C   UNL A   1     -29.463  -6.018   8.360  0.00  0.00    -0.004 A 
ATOM     24  C   UNL A   1     -29.754  -4.034   7.026  0.00  0.00    -0.000 A 
ATOM     25  C   UNL A   1     -29.182  -5.306   7.216  0.00  0.00    -0.000 A 
BRANCH  23  26
ATOM     26  C   UNL A   1     -28.911  -7.282   8.598  0.00  0.00    -0.000 A 
ATOM     27  C   UNL A   1     -29.410  -8.325   8.085  0.00  0.00    -0.000 A 
ATOM     28  C   UNL A   1     -27.722  -7.392   9.414  0.00  0.00    -0.000 A 
ATOM     29  C   UNL A   1     -28.884  -9.686   8.263  0.00  0.00    -0.000 A 
ATOM     30  C   UNL A   1     -27.778  -9.841   9.116  0.00  0.00    -0.000 A 
ATOM     31  C   UNL A   1     -27.168  -8.700   9.643  0.00  0.00    -0.000 A 
ENDBRANCH  23  26
ENDBRANCH  19  22
ENDBRANCH  18  19
ENDBRANCH   1  18
TORSDOF 7
ENDMDL
ENDMDL
