MODEL 4563
MODEL 1
REMARK VINA RESULT:    -7.453      0.000      0.000
REMARK INTER + INTRA:          -8.818
REMARK INTER:                  -8.324
REMARK INTRA:                  -0.494
REMARK UNBOUND:                -0.494
REMARK  Name = No_4563-gen_results/8p0m/2024-11-27-11-27-31/
REMARK  2 active torsions:
REMARK  status: ('A' for Active; 'I' for Inactive)
REMARK    1  A    between atoms: C_8  and  C_13
REMARK    2  A    between atoms: C_13  and  C_14
REMARK                            x       y       z     vdW  Elec       q    Type
REMARK                         _______ _______ _______ _____ _____    ______ ____
ROOT
ATOM      1 CL   UNL A   1      -7.912  -0.059  34.818  0.00  0.00    -0.087 Cl
ATOM      2  C   UNL A   1      -9.167   0.550  35.180  0.00  0.00    +0.032 C 
ATOM      3  C   UNL A   1      -9.927   1.236  34.244  0.00  0.00    -0.013 C 
ATOM      4  C   UNL A   1     -10.888   1.416  33.899  0.00  0.00    +0.072 C 
ATOM      5  C   UNL A   1     -11.980   1.530  34.345  0.00  0.00    +0.059 A 
ATOM      6  C   UNL A   1     -12.478   1.549  35.215  0.00  0.00    -0.008 A 
ATOM      7  C   UNL A   1     -11.616   1.100  36.454  0.00  0.00    +0.033 C 
ATOM      8  C   UNL A   1     -10.295   0.659  36.498  0.00  0.00    +0.042 C 
ATOM      9  N   UNL A   1     -13.048   2.094  33.307  0.00  0.00    -0.248 NA
ATOM     10  C   UNL A   1     -13.787   2.988  33.794  0.00  0.00    +0.098 A 
ATOM     11  C   UNL A   1     -14.127   3.007  35.178  0.00  0.00    +0.020 A 
ATOM     12  C   UNL A   1     -13.564   2.368  35.960  0.00  0.00    -0.002 A 
ENDROOT
BRANCH   8  13
ATOM     13  C   UNL A   1      -9.614   0.021  37.692  0.00  0.00    +0.032 C 
BRANCH  13  14
ATOM     14  C   UNL A   1     -10.386  -0.767  38.444  0.00  0.00    -0.022 A 
ATOM     15  C   UNL A   1     -10.542  -0.782  39.623  0.00  0.00    -0.004 A 
ATOM     16  C   UNL A   1     -11.433  -1.706  40.367  0.00  0.00    -0.000 A 
ATOM     17  C   UNL A   1     -12.114  -2.617  39.583  0.00  0.00    -0.000 A 
ATOM     18  C   UNL A   1     -11.932  -2.671  38.242  0.00  0.00    -0.000 A 
ATOM     19  C   UNL A   1     -11.062  -1.825  37.590  0.00  0.00    -0.004 A 
ENDBRANCH  13  14
ENDBRANCH   8  13
TORSDOF 2
ENDMDL
ENDMDL
