MODEL 4564
MODEL 1
REMARK VINA RESULT:    -4.354      0.000      0.000
REMARK INTER + INTRA:          -4.354
REMARK INTER:                  -4.354
REMARK INTRA:                   0.000
REMARK UNBOUND:                 0.000
REMARK  Name = No_4564-gen_results/8p0m/2024-11-27-11-27-31/
REMARK  0 active torsions:
REMARK  status: ('A' for Active; 'I' for Inactive)
REMARK                            x       y       z     vdW  Elec       q    Type
REMARK                         _______ _______ _______ _____ _____    ______ ____
ROOT
ATOM      1  C   UNL A   1     -24.931  -5.408  29.022  0.00  0.00    +0.000 A 
ATOM      2  C   UNL A   1     -24.203  -4.737  28.660  0.00  0.00    +0.000 A 
ATOM      3  C   UNL A   1     -26.106  -4.742  29.597  0.00  0.00    +0.000 A 
ATOM      4  C   UNL A   1     -26.153  -3.425  29.805  0.00  0.00    +0.000 A 
ATOM      5  C   UNL A   1     -24.027  -3.311  28.785  0.00  0.00    +0.000 A 
ATOM      6  C   UNL A   1     -25.117  -2.713  29.344  0.00  0.00    +0.000 A 
ENDROOT
TORSDOF 0
ENDMDL
ENDMDL
