MODEL 4565
MODEL 1
REMARK VINA RESULT:    -4.446      0.000      0.000
REMARK INTER + INTRA:          -4.446
REMARK INTER:                  -4.446
REMARK INTRA:                   0.000
REMARK UNBOUND:                 0.000
REMARK  Name = No_4565-gen_results/8p0m/2024-11-27-11-27-31/
REMARK  0 active torsions:
REMARK  status: ('A' for Active; 'I' for Inactive)
REMARK                            x       y       z     vdW  Elec       q    Type
REMARK                         _______ _______ _______ _____ _____    ______ ____
ROOT
ATOM      1  C   UNL A   1     -24.035  -4.150  28.783  0.00  0.00    +0.011 A 
ATOM      2  C   UNL A   1     -24.257  -3.015  29.137  0.00  0.00    +0.058 A 
ATOM      3  C   UNL A   1     -25.420  -2.612  29.709  0.00  0.00    +0.011 A 
ATOM      4  C   UNL A   1     -26.434  -3.569  29.905  0.00  0.00    +0.001 A 
ATOM      5  C   UNL A   1     -24.989  -5.198  29.041  0.00  0.00    +0.001 A 
ATOM      6  C   UNL A   1     -26.185  -4.841  29.587  0.00  0.00    +0.000 A 
ATOM      7 CL   UNL A   1     -23.066  -1.758  28.949  0.00  0.00    -0.082 Cl
ENDROOT
TORSDOF 0
ENDMDL
ENDMDL
