REMARK  Name = outputs/IAG933/test6/raw/output_4565_IAG933_linker_design_.xyz
REMARK  12 active torsions:
REMARK  status: ('A' for Active; 'I' for Inactive)
REMARK    1  A    between atoms: C_1  and  C_2
REMARK    2  A    between atoms: C_1  and  C_8
REMARK    3  A    between atoms: C_1  and  N_37
REMARK    4  A    between atoms: C_13  and  C_35
REMARK    5  A    between atoms: C_14  and  C_15
REMARK    6  A    between atoms: C_21  and  O_22
REMARK    7  A    between atoms: O_22  and  C_23
REMARK    8  A    between atoms: C_23  and  C_24
REMARK    9  A    between atoms: C_30  and  N_41
REMARK   10  A    between atoms: C_30  and  C_42
REMARK   11  A    between atoms: S_36  and  N_41
REMARK   12  A    between atoms: N_37  and  C_42
REMARK                            x       y       z     vdW  Elec       q    Type
REMARK                         _______ _______ _______ _____ _____    ______ ____
ROOT
ATOM      1  C   UNL A   1     -23.360   1.925  26.131  0.00  0.00    -0.010 C 
ATOM      2  C   UNL A   1     -21.280   1.649  27.485  0.00  0.00    +0.050 C 
ATOM      3  C   UNL A   1     -21.815   0.852  28.501  0.00  0.00    +0.235 C 
ATOM      4  C   UNL A   1     -24.197   0.615  28.341  0.00  0.00    +0.308 C 
ATOM      5  C   UNL A   1     -24.353   1.377  27.074  0.00  0.00    +0.152 C 
ATOM      6  N   UNL A   1     -25.251   0.012  29.094  0.00  0.00    -0.191 N 
ATOM      7  C   UNL A   1     -21.982   2.156  26.367  0.00  0.00    +0.000 C 
ATOM      8  N   UNL A   1     -22.984   0.374  28.872  0.00  0.00    -0.040 NA
ENDROOT
BRANCH   5   9
ATOM      9  C   UNL A   1     -25.688   1.614  26.461  0.00  0.00    +0.031 C 
ATOM     10  C   UNL A   1     -26.250   2.920  26.395  0.00  0.00    +0.073 C 
ATOM     11  C   UNL A   1     -27.438   3.091  25.645  0.00  0.00    +0.106 C 
ATOM     12  N   UNL A   1     -28.075   2.089  25.003  0.00  0.00    -0.208 NA
ATOM     13  C   UNL A   1     -27.543   0.849  25.079  0.00  0.00    +0.253 C 
ATOM     14  C   UNL A   1     -26.354   0.576  25.777  0.00  0.00    +0.190 C 
ATOM     15  F   UNL A   1     -25.860  -0.681  25.795  0.00  0.00    -0.200 F 
BRANCH  10  16
ATOM     16  C   UNL A   1     -25.642   4.093  27.123  0.00  0.00    +0.266 C 
ATOM     17  N   UNL A   1     -25.614   5.252  26.449  0.00  0.00    -0.200 NA
ATOM     18  C   UNL A   1     -25.026   6.479  26.963  0.00  0.00    +0.139 C 
ATOM     19  O   UNL A   1     -25.143   3.966  28.243  0.00  0.00    -0.268 OA
ENDBRANCH  10  16
BRANCH  13  20
ATOM     20  O   UNL A   1     -28.193  -0.208  24.477  0.00  0.00    -0.456 OA
BRANCH  20  21
ATOM     21  C   UNL A   1     -29.460   0.005  23.866  0.00  0.00    +0.243 C 
BRANCH  21  22
ATOM     22  C   UNL A   1     -30.065  -1.377  23.573  0.00  0.00    +0.229 C 
ATOM     23  O   UNL A   1     -30.729  -1.878  24.721  0.00  0.00    -0.216 OA
ENDBRANCH  21  22
ENDBRANCH  20  21
ENDBRANCH  13  20
ENDBRANCH   5   9
BRANCH   6  24
ATOM     24  C   UNL A   1     -24.855  -1.012  30.143  0.00  0.00    +0.198 C 
BRANCH  24  25
ATOM     25  C   UNL A   1     -24.973  -2.505  29.788  0.00  0.00    +0.021 C 
ATOM     26  C   UNL A   1     -23.906  -3.173  29.146  0.00  0.00    -0.000 C 
ATOM     27  C   UNL A   1     -23.989  -4.549  28.853  0.00  0.00    -0.000 C 
ATOM     28  C   UNL A   1     -25.137  -5.280  29.205  0.00  0.00    -0.000 C 
ATOM     29  C   UNL A   1     -26.232  -4.611  29.784  0.00  0.00    -0.000 C 
ATOM     30  C   UNL A   1     -26.155  -3.232  30.065  0.00  0.00    -0.000 C 
ENDBRANCH  24  25
BRANCH  24  31
ATOM     31  C   UNL A   1     -25.387  -0.679  31.571  0.00  0.00    +0.120 C 
ATOM     32  C   UNL A   1     -25.189   0.773  32.028  0.00  0.00    +0.023 C 
ATOM     33  C   UNL A   1     -25.336   0.684  33.544  0.00  0.00    +0.020 C 
ATOM     34  C   UNL A   1     -24.829  -0.715  33.905  0.00  0.00    +0.089 C 
ATOM     35  N   UNL A   1     -24.758  -1.481  32.646  0.00  0.00    -0.215 NA
ENDBRANCH  24  31
ENDBRANCH   6  24
BRANCH   6  36
ATOM     36  C   UNL A   1     -26.681   0.457  29.035  0.00  0.00    +0.223 C 
BRANCH  36  37
ATOM     37  C   UNL A   1     -27.681  -0.724  29.158  0.00  0.00    +0.166 C 
BRANCH  37  38
ATOM     38  N   UNL A   1     -28.840  -0.703  28.561  0.00  0.00    -0.078 NA
BRANCH  38  41
ATOM     39  C   UNL A   1     -31.375  -1.002  28.361  0.00  0.00    +0.198 C 
ATOM     40  O   UNL A   1     -30.353   1.210  29.261  0.00  0.00    -0.156 OA
ATOM     41  S   UNL A   1     -30.167  -0.211  29.311  0.00  0.00    +0.059 S 
ATOM     42  O   UNL A   1     -30.087  -0.775  30.771  0.00  0.00    -0.156 OA
ENDBRANCH  38  41
ENDBRANCH  37  38
ENDBRANCH  36  37
ENDBRANCH   6  36
TORSDOF 12
