REMARK  Name = No_4566-gen_results/8p0m/2024-11-27-11-27-31/
REMARK  10 active torsions:
REMARK  status: ('A' for Active; 'I' for Inactive)
REMARK    1  A    between atoms: C_10  and  C_11
REMARK    2  A    between atoms: C_11  and  C_12
REMARK    3  A    between atoms: C_13  and  C_14
REMARK    4  A    between atoms: C_15  and  C_26
REMARK    5  A    between atoms: C_17  and  C_18
REMARK    6  A    between atoms: C_26  and  O_28
REMARK    7  A    between atoms: O_28  and  C_30
REMARK    8  A    between atoms: C_30  and  C_31
REMARK    9  A    between atoms: C_31  and  O_32
REMARK   10  A    between atoms: O_32  and  C_33
REMARK                            x       y       z     vdW  Elec       q    Type
REMARK                         _______ _______ _______ _____ _____    ______ ____
ROOT
ATOM      1  C   UNL A   1     -28.016  -0.814  28.878  0.00  0.00    +0.004 A 
ATOM      2  C   UNL A   1     -28.469  -0.785  29.829  0.00  0.00    +0.000 A 
ATOM      3  C   UNL A   1     -27.087   0.290  28.638  0.00  0.00    +0.054 A 
ATOM      4  C   UNL A   1     -26.252   0.411  27.422  0.00  0.00    +0.253 C 
ATOM      5  C   UNL A   1     -28.391   0.104  30.980  0.00  0.00    +0.000 A 
ATOM      6  C   UNL A   1     -27.533   1.167  30.787  0.00  0.00    +0.000 A 
ATOM      7  C   UNL A   1     -26.828   1.256  29.645  0.00  0.00    +0.005 A 
ATOM      8  N   UNL A   1     -25.786   1.577  27.155  0.00  0.00    -0.254 N 
ATOM      9  C   UNL A   1     -24.925   2.183  27.954  0.00  0.00    +0.056 C 
ATOM     10  C   UNL A   1     -23.831   1.949  28.235  0.00  0.00    -0.006 C 
ATOM     11  C   UNL A   1     -25.834   3.050  28.962  0.00  0.00    +0.089 C 
ATOM     12  C   UNL A   1     -26.219   2.551  29.616  0.00  0.00    +0.008 C 
ATOM     13  C   UNL A   1     -26.457   2.431  26.260  0.00  0.00    +0.120 C 
ATOM     14  O   UNL A   1     -25.748  -0.582  26.891  0.00  0.00    -0.270 OA
ENDROOT
BRANCH  11  15
ATOM     15  C   UNL A   1     -25.661   4.506  28.634  0.00  0.00    +0.343 C 
ATOM     16  O   UNL A   1     -25.172   4.987  27.692  0.00  0.00    -0.245 OA
BRANCH  15  17
ATOM     17  O   UNL A   1     -26.223   5.408  29.581  0.00  0.00    -0.441 OA
BRANCH  17  18
ATOM     18  C   UNL A   1     -26.146   6.718  29.397  0.00  0.00    +0.256 C 
BRANCH  18  19
ATOM     19  C   UNL A   1     -25.456   7.414  30.328  0.00  0.00    +0.254 C 
BRANCH  19  20
ATOM     20  O   UNL A   1     -25.285   6.903  31.450  0.00  0.00    -0.459 OA
BRANCH  20  21
ATOM     21  C   UNL A   1     -24.211   7.110  32.247  0.00  0.00    +0.259 C 
ATOM     22  C   UNL A   1     -23.818   5.998  33.091  0.00  0.00    +0.175 C 
ATOM     23  O   UNL A   1     -24.710   5.340  33.566  0.00  0.00    -0.228 OA
ENDBRANCH  20  21
ENDBRANCH  19  20
ENDBRANCH  18  19
ENDBRANCH  17  18
ENDBRANCH  15  17
ENDBRANCH  11  15
BRANCH  10  24
ATOM     24  C   UNL A   1     -22.929   1.283  27.335  0.00  0.00    +0.053 C 
BRANCH  24  25
ATOM     25  C   UNL A   1     -21.550   1.015  27.709  0.00  0.00    -0.021 C 
ATOM     26  C   UNL A   1     -21.079   0.169  28.597  0.00  0.00    -0.004 C 
BRANCH  26  27
ATOM     27  C   UNL A   1     -22.008  -0.565  29.369  0.00  0.00    -0.000 C 
ATOM     28  C   UNL A   1     -22.751  -1.710  29.009  0.00  0.00    +0.000 C 
BRANCH  28  29
ATOM     29  C   UNL A   1     -23.733  -2.242  29.816  0.00  0.00    +0.003 A 
ATOM     30  C   UNL A   1     -24.690  -1.510  30.093  0.00  0.00    +0.000 A 
ATOM     31  C   UNL A   1     -25.731  -2.089  30.945  0.00  0.00    +0.003 A 
ATOM     32  C   UNL A   1     -26.297  -3.315  30.491  0.00  0.00    +0.042 A 
ATOM     33  C   UNL A   1     -25.463  -4.122  29.556  0.00  0.00    +0.196 A 
ATOM     34  C   UNL A   1     -24.425  -3.492  28.894  0.00  0.00    +0.042 A 
ATOM     35  O   UNL A   1     -25.953  -5.233  29.141  0.00  0.00    -0.287 OA
ENDBRANCH  28  29
ENDBRANCH  26  27
ENDBRANCH  24  25
ENDBRANCH  10  24
TORSDOF 10
