MODEL 4567
MODEL 1
REMARK VINA RESULT:    -4.317      0.000      0.000
REMARK INTER + INTRA:          -4.317
REMARK INTER:                  -4.317
REMARK INTRA:                   0.000
REMARK UNBOUND:                 0.000
REMARK  Name = No_4567-gen_results/8p0m/2024-11-27-11-27-31/
REMARK  0 active torsions:
REMARK  status: ('A' for Active; 'I' for Inactive)
REMARK                            x       y       z     vdW  Elec       q    Type
REMARK                         _______ _______ _______ _____ _____    ______ ____
ROOT
ATOM      1  C   UNL A   1     -24.035  -4.041  28.846  0.00  0.00    +0.011 A 
ATOM      2  C   UNL A   1     -24.283  -3.090  29.226  0.00  0.00    +0.058 A 
ATOM      3  C   UNL A   1     -25.072  -5.120  29.068  0.00  0.00    +0.001 A 
ATOM      4  C   UNL A   1     -26.323  -4.773  29.620  0.00  0.00    +0.000 A 
ATOM      5  C   UNL A   1     -25.500  -2.469  29.796  0.00  0.00    +0.011 A 
ATOM      6  C   UNL A   1     -26.478  -3.430  30.009  0.00  0.00    +0.001 A 
ATOM      7 CL   UNL A   1     -23.039  -1.783  28.951  0.00  0.00    -0.082 Cl
ENDROOT
TORSDOF 0
ENDMDL
ENDMDL
