REMARK  Name = No_4569-gen_results/8p0m/2024-11-27-11-27-31/
REMARK  2 active torsions:
REMARK  status: ('A' for Active; 'I' for Inactive)
REMARK    1  A    between atoms: C_14  and  N_18
REMARK    2  A    between atoms: N_18  and  C_25
REMARK                            x       y       z     vdW  Elec       q    Type
REMARK                         _______ _______ _______ _____ _____    ______ ____
ROOT
ATOM      1  C   UNL A   1     -28.016  -0.814  28.878  0.00  0.00    +0.049 A 
ATOM      2  C   UNL A   1     -28.469  -0.785  29.829  0.00  0.00    -0.009 A 
ATOM      3  C   UNL A   1     -28.196   0.348  28.055  0.00  0.00    +0.032 A 
ATOM      4  C   UNL A   1     -29.019   1.350  28.378  0.00  0.00    +0.003 A 
ATOM      5  C   UNL A   1     -29.411   0.180  30.378  0.00  0.00    -0.003 A 
ATOM      6  C   UNL A   1     -29.606   1.250  29.619  0.00  0.00    -0.000 A 
ATOM      7  C   UNL A   1     -27.460   0.380  26.709  0.00  0.00    +0.100 A 
ATOM      8  N   UNL A   1     -27.883   0.539  25.707  0.00  0.00    -0.241 NA
ATOM      9  C   UNL A   1     -25.941   0.205  26.784  0.00  0.00    +0.100 A 
ATOM     10  C   UNL A   1     -25.145   0.067  27.909  0.00  0.00    +0.034 A 
ATOM     11  C   UNL A   1     -23.822   0.011  27.840  0.00  0.00    +0.003 A 
ATOM     12  C   UNL A   1     -23.046  -0.297  29.028  0.00  0.00    +0.002 A 
ATOM     13  C   UNL A   1     -23.674  -0.774  30.167  0.00  0.00    +0.018 A 
ATOM     14  C   UNL A   1     -25.050  -0.842  30.201  0.00  0.00    +0.084 A 
ATOM     15  C   UNL A   1     -25.771  -0.463  29.162  0.00  0.00    +0.068 A 
ATOM     16  N   UNL A   1     -26.853  -0.743  29.298  0.00  0.00    -0.288 N 
ATOM     17  C   UNL A   1     -26.652  -2.029  30.195  0.00  0.00    +0.078 C 
ATOM     18  C   UNL A   1     -28.802  -2.066  30.588  0.00  0.00    +0.029 C 
ATOM     19  C   UNL A   1     -25.558  -2.754  30.166  0.00  0.00    +0.022 C 
ATOM     20  C   UNL A   1     -27.830  -2.643  30.811  0.00  0.00    +0.025 C 
ATOM     21  N   UNL A   1     -25.483   0.430  25.555  0.00  0.00    -0.241 NA
ATOM     22  C   UNL A   1     -27.591   0.732  24.460  0.00  0.00    +0.119 A 
ATOM     23  C   UNL A   1     -26.097   0.528  24.416  0.00  0.00    +0.119 A 
ENDROOT
BRANCH  14  24
ATOM     24  N   UNL A   1     -25.536  -0.455  31.430  0.00  0.00    -0.211 NA
BRANCH  24  25
ATOM     25  C   UNL A   1     -25.143   0.885  31.969  0.00  0.00    +0.070 A 
ATOM     26  C   UNL A   1     -26.153   1.571  32.654  0.00  0.00    +0.017 A 
ATOM     27  C   UNL A   1     -26.100   2.895  32.822  0.00  0.00    +0.001 A 
ATOM     28  C   UNL A   1     -24.970   3.623  32.275  0.00  0.00    +0.000 A 
ATOM     29  C   UNL A   1     -24.020   2.886  31.491  0.00  0.00    +0.001 A 
ATOM     30  C   UNL A   1     -24.183   1.575  31.282  0.00  0.00    +0.017 A 
ENDBRANCH  24  25
ENDBRANCH  14  24
TORSDOF 2
