MODEL 4569
MODEL 1
REMARK VINA RESULT:    -8.341      0.000      0.000
REMARK INTER + INTRA:         -10.415
REMARK INTER:                  -9.316
REMARK INTRA:                  -1.099
REMARK UNBOUND:                -1.099
REMARK  Name = No_4569-gen_results/8p0m/2024-11-27-11-27-31/
REMARK  2 active torsions:
REMARK  status: ('A' for Active; 'I' for Inactive)
REMARK    1  A    between atoms: C_14  and  N_18
REMARK    2  A    between atoms: N_18  and  C_25
REMARK                            x       y       z     vdW  Elec       q    Type
REMARK                         _______ _______ _______ _____ _____    ______ ____
ROOT
ATOM      1  C   UNL A   1     -13.269 -21.755  17.345  0.00  0.00    +0.049 A 
ATOM      2  C   UNL A   1     -12.410 -21.145  17.358  0.00  0.00    -0.009 A 
ATOM      3  C   UNL A   1     -13.049 -23.155  17.121  0.00  0.00    +0.032 A 
ATOM      4  C   UNL A   1     -11.860 -23.661  16.781  0.00  0.00    +0.003 A 
ATOM      5  C   UNL A   1     -11.036 -21.471  17.000  0.00  0.00    -0.003 A 
ATOM      6  C   UNL A   1     -10.820 -22.759  16.768  0.00  0.00    -0.000 A 
ATOM      7  C   UNL A   1     -14.268 -24.083  17.204  0.00  0.00    +0.100 A 
ATOM      8  N   UNL A   1     -14.632 -24.795  16.450  0.00  0.00    -0.241 NA
ATOM      9  C   UNL A   1     -15.047 -24.031  18.521  0.00  0.00    +0.100 A 
ATOM     10  C   UNL A   1     -14.768 -23.291  19.658  0.00  0.00    +0.034 A 
ATOM     11  C   UNL A   1     -15.480 -23.405  20.771  0.00  0.00    +0.003 A 
ATOM     12  C   UNL A   1     -15.249 -22.492  21.876  0.00  0.00    +0.002 A 
ATOM     13  C   UNL A   1     -14.476 -21.356  21.693  0.00  0.00    +0.018 A 
ATOM     14  C   UNL A   1     -13.834 -21.164  20.488  0.00  0.00    +0.084 A 
ATOM     15  C   UNL A   1     -13.953 -22.044  19.511  0.00  0.00    +0.068 A 
ATOM     16  N   UNL A   1     -13.508 -21.648  18.556  0.00  0.00    -0.288 N 
ATOM     17  C   UNL A   1     -13.762 -20.107  18.799  0.00  0.00    +0.078 C 
ATOM     18  C   UNL A   1     -12.496 -19.648  17.077  0.00  0.00    +0.029 C 
ATOM     19  C   UNL A   1     -14.726 -19.656  19.567  0.00  0.00    +0.022 C 
ATOM     20  C   UNL A   1     -13.150 -19.144  17.881  0.00  0.00    +0.025 C 
ATOM     21  N   UNL A   1     -15.944 -25.012  18.457  0.00  0.00    -0.241 NA
ATOM     22  C   UNL A   1     -15.480 -25.748  16.226  0.00  0.00    +0.119 A 
ATOM     23  C   UNL A   1     -16.343 -25.746  17.463  0.00  0.00    +0.119 A 
ENDROOT
BRANCH  14  24
ATOM     24  N   UNL A   1     -12.568 -20.656  20.676  0.00  0.00    -0.211 NA
BRANCH  24  25
ATOM     25  C   UNL A   1     -11.565 -21.482  21.419  0.00  0.00    +0.070 A 
ATOM     26  C   UNL A   1     -11.289 -21.054  22.722  0.00  0.00    +0.017 A 
ATOM     27  C   UNL A   1     -10.161 -21.407  23.343  0.00  0.00    +0.001 A 
ATOM     28  C   UNL A   1      -9.211 -22.249  22.639  0.00  0.00    +0.000 A 
ATOM     29  C   UNL A   1      -9.494 -22.570  21.269  0.00  0.00    +0.001 A 
ATOM     30  C   UNL A   1     -10.599 -22.104  20.677  0.00  0.00    +0.017 A 
ENDBRANCH  24  25
ENDBRANCH  14  24
TORSDOF 2
ENDMDL
ENDMDL
