MODEL 456
MODEL 1
REMARK VINA RESULT:    -7.830      0.000      0.000
REMARK INTER + INTRA:         -12.772
REMARK INTER:                 -11.034
REMARK INTRA:                  -1.738
REMARK UNBOUND:                -1.738
REMARK  Name = No_456-gen_results/8p0m/2024-11-27-11-27-31/
REMARK  7 active torsions:
REMARK  status: ('A' for Active; 'I' for Inactive)
REMARK    1  A    between atoms: C_2  and  C_11
REMARK    2  A    between atoms: C_3  and  C_4
REMARK    3  A    between atoms: N_13  and  C_15
REMARK    4  A    between atoms: C_17  and  C_21
REMARK    5  A    between atoms: C_24  and  C_27
REMARK    6  A    between atoms: C_25  and  C_33
REMARK    7  A    between atoms: C_33  and  C_34
REMARK                            x       y       z     vdW  Elec       q    Type
REMARK                         _______ _______ _______ _____ _____    ______ ____
ROOT
ATOM      1  C   UNL A   1     -22.703 -16.551   5.432  0.00  0.00    +0.054 A 
ATOM      2  C   UNL A   1     -23.889 -16.639   6.089  0.00  0.00    +0.015 A 
ATOM      3  C   UNL A   1     -24.622 -15.419   6.257  0.00  0.00    +0.001 A 
ATOM      4  C   UNL A   1     -24.044 -14.243   5.885  0.00  0.00    +0.000 A 
ATOM      5  C   UNL A   1     -22.801 -14.198   5.269  0.00  0.00    +0.001 A 
ATOM      6  C   UNL A   1     -22.090 -15.381   5.044  0.00  0.00    +0.015 A 
ENDROOT
BRANCH   3   7
ATOM      7  C   UNL A   1     -25.936 -15.474   6.937  0.00  0.00    -0.000 A 
ATOM      8  C   UNL A   1     -26.267 -16.588   7.665  0.00  0.00    -0.000 A 
ATOM      9  C   UNL A   1     -27.504 -16.720   8.336  0.00  0.00    -0.000 A 
ATOM     10  C   UNL A   1     -28.315 -15.606   8.442  0.00  0.00    -0.004 A 
ATOM     11  C   UNL A   1     -27.906 -14.450   7.755  0.00  0.00    -0.018 A 
ATOM     12  C   UNL A   1     -26.747 -14.368   7.054  0.00  0.00    -0.004 A 
BRANCH  10  13
ATOM     13  C   UNL A   1     -29.548 -15.742   9.179  0.00  0.00    -0.000 A 
ATOM     14  C   UNL A   1     -30.553 -15.709   8.547  0.00  0.00    -0.000 A 
ATOM     15  C   UNL A   1     -31.815 -15.424   9.087  0.00  0.00    -0.000 A 
ATOM     16  C   UNL A   1     -31.835 -15.369  10.511  0.00  0.00    -0.000 A 
ATOM     17  C   UNL A   1     -30.672 -15.381  11.243  0.00  0.00    -0.000 A 
ATOM     18  C   UNL A   1     -29.468 -15.419  10.566  0.00  0.00    -0.000 A 
ENDBRANCH  10  13
BRANCH  11  19
ATOM     19  C   UNL A   1     -28.778 -13.292   7.864  0.00  0.00    +0.052 C 
BRANCH  19  20
ATOM     20  C   UNL A   1     -28.375 -12.330   8.685  0.00  0.00    -0.021 C 
ATOM     21  C   UNL A   1     -29.205 -11.866   9.598  0.00  0.00    -0.005 C 
ENDBRANCH  19  20
ENDBRANCH  11  19
ENDBRANCH   3   7
BRANCH   1  24
ATOM     22  C   UNL A   1     -21.367 -18.301   6.386  0.00  0.00    +0.253 C 
ATOM     23  O   UNL A   1     -21.243 -17.789   7.368  0.00  0.00    -0.270 OA
ATOM     24  N   UNL A   1     -22.032 -17.829   5.296  0.00  0.00    -0.253 N 
ATOM     25  C   UNL A   1     -22.098 -18.410   3.939  0.00  0.00    +0.120 C 
BRANCH  22  27
ATOM     26  C   UNL A   1     -19.520 -19.684   6.383  0.00  0.00    +0.008 A 
ATOM     27  C   UNL A   1     -20.572 -19.721   6.318  0.00  0.00    +0.054 A 
ATOM     28  C   UNL A   1     -18.879 -20.990   6.244  0.00  0.00    +0.072 A 
ATOM     29  C   UNL A   1     -21.554 -20.777   6.119  0.00  0.00    +0.004 A 
ATOM     30  C   UNL A   1     -20.987 -22.029   5.996  0.00  0.00    +0.000 A 
ATOM     31  C   UNL A   1     -19.648 -22.158   6.002  0.00  0.00    +0.004 A 
BRANCH  28  32
ATOM     32  C   UNL A   1     -17.412 -21.184   6.195  0.00  0.00    +0.419 C 
ATOM     33  F   UNL A   1     -16.934 -21.666   6.967  0.00  0.00    -0.166 F 
ATOM     34  F   UNL A   1     -16.822 -19.905   5.957  0.00  0.00    -0.166 F 
ATOM     35  F   UNL A   1     -17.078 -21.844   4.943  0.00  0.00    -0.166 F 
ENDBRANCH  28  32
ENDBRANCH  22  27
ENDBRANCH   1  24
TORSDOF 7
ENDMDL
ENDMDL
