MODEL 4571
MODEL 1
REMARK VINA RESULT:    -5.295      0.000      0.000
REMARK INTER + INTRA:          -5.758
REMARK INTER:                  -5.605
REMARK INTRA:                  -0.153
REMARK UNBOUND:                -0.153
REMARK  Name = No_4571-gen_results/8p0m/2024-11-27-11-27-31/
REMARK  1 active torsions:
REMARK  status: ('A' for Active; 'I' for Inactive)
REMARK    1  A    between atoms: C_4  and  C_7
REMARK                            x       y       z     vdW  Elec       q    Type
REMARK                         _______ _______ _______ _____ _____    ______ ____
ROOT
ATOM      1  C   UNL A   1     -26.608  -3.960  29.906  0.00  0.00    -0.000 A 
ATOM      2  C   UNL A   1     -26.137  -4.867  29.649  0.00  0.00    -0.000 A 
ATOM      3  C   UNL A   1     -25.809  -2.735  29.748  0.00  0.00    +0.004 A 
ATOM      4  C   UNL A   1     -24.519  -2.784  29.143  0.00  0.00    +0.071 A 
ATOM      5  C   UNL A   1     -24.856  -5.183  28.960  0.00  0.00    -0.000 A 
ATOM      6  C   UNL A   1     -24.082  -4.072  28.804  0.00  0.00    +0.004 A 
ENDROOT
BRANCH   4   7
ATOM      7  C   UNL A   1     -23.709  -1.626  28.957  0.00  0.00    +0.419 C 
ATOM      8  F   UNL A   1     -22.611  -1.868  28.906  0.00  0.00    -0.166 F 
ATOM      9  F   UNL A   1     -24.067  -0.913  27.819  0.00  0.00    -0.166 F 
ATOM     10  F   UNL A   1     -23.922  -0.753  29.978  0.00  0.00    -0.166 F 
ENDBRANCH   4   7
TORSDOF 1
ENDMDL
ENDMDL
