MODEL 4572
MODEL 1
REMARK VINA RESULT:    -6.835      0.000      0.000
REMARK INTER + INTRA:          -8.448
REMARK INTER:                  -8.034
REMARK INTRA:                  -0.414
REMARK UNBOUND:                -0.414
REMARK  Name = No_4572-gen_results/8p0m/2024-11-27-11-27-31/
REMARK  3 active torsions:
REMARK  status: ('A' for Active; 'I' for Inactive)
REMARK    1  A    between atoms: C_2  and  N_7
REMARK    2  A    between atoms: N_7  and  C_8
REMARK    3  A    between atoms: C_8  and  C_9
REMARK                            x       y       z     vdW  Elec       q    Type
REMARK                         _______ _______ _______ _____ _____    ______ ____
ROOT
ATOM      1  N   UNL A   1     -23.159  -2.241  28.902  0.00  0.00    -0.233 NA
ENDROOT
BRANCH   1   3
ATOM      2  C   UNL A   1     -24.080  -4.235  28.836  0.00  0.00    +0.016 A 
ATOM      3  C   UNL A   1     -24.236  -3.247  29.169  0.00  0.00    +0.066 A 
ATOM      4  C   UNL A   1     -25.161  -5.198  29.100  0.00  0.00    +0.001 A 
ATOM      5  C   UNL A   1     -26.401  -4.762  29.652  0.00  0.00    +0.000 A 
ATOM      6  C   UNL A   1     -25.428  -2.536  29.705  0.00  0.00    +0.016 A 
ATOM      7  C   UNL A   1     -26.449  -3.398  29.973  0.00  0.00    +0.001 A 
ENDBRANCH   1   3
BRANCH   1   8
ATOM      8  C   UNL A   1     -23.068  -1.063  29.234  0.00  0.00    +0.139 C 
BRANCH   8   9
ATOM      9  C   UNL A   1     -23.018  -0.139  28.475  0.00  0.00    -0.001 A 
ATOM     10  C   UNL A   1     -21.802   0.723  28.187  0.00  0.00    -0.003 A 
ATOM     11  C   UNL A   1     -21.737   1.781  27.268  0.00  0.00    -0.000 A 
ATOM     12  C   UNL A   1     -22.901   2.059  26.469  0.00  0.00    -0.000 A 
ATOM     13  C   UNL A   1     -24.005   1.237  26.562  0.00  0.00    -0.000 A 
ATOM     14  C   UNL A   1     -24.081   0.178  27.475  0.00  0.00    -0.003 A 
ENDBRANCH   8   9
ENDBRANCH   1   8
TORSDOF 3
ENDMDL
ENDMDL
