REMARK  Name = outputs/IAG933/test6/raw/output_4574_IAG933_linker_design_.xyz
REMARK  15 active torsions:
REMARK  status: ('A' for Active; 'I' for Inactive)
REMARK    1  A    between atoms: C_1  and  C_2
REMARK    2  A    between atoms: C_1  and  C_8
REMARK    3  A    between atoms: C_1  and  C_52
REMARK    4  A    between atoms: C_13  and  N_36
REMARK    5  A    between atoms: C_14  and  C_15
REMARK    6  A    between atoms: C_21  and  O_22
REMARK    7  A    between atoms: O_22  and  C_23
REMARK    8  A    between atoms: C_23  and  C_24
REMARK    9  A    between atoms: C_38  and  C_40
REMARK   10  A    between atoms: O_42  and  C_48
REMARK   11  A    between atoms: O_42  and  C_51
REMARK   12  A    between atoms: C_43  and  C_45
REMARK   13  A    between atoms: C_45  and  O_47
REMARK   14  A    between atoms: C_46  and  C_52
REMARK   15  A    between atoms: O_47  and  C_52
REMARK                            x       y       z     vdW  Elec       q    Type
REMARK                         _______ _______ _______ _____ _____    ______ ____
ROOT
ATOM      1  C   UNL A   1     -25.478  -0.126  29.211  0.00  0.00    +0.158 C 
ENDROOT
BRANCH   1   7
ATOM      2  C   UNL A   1     -22.604   1.779  27.910  0.00  0.00    +0.163 C 
ATOM      3  C   UNL A   1     -23.266   0.727  28.781  0.00  0.00    +0.148 C 
ATOM      4  F   UNL A   1     -22.607   0.114  29.739  0.00  0.00    -0.206 F 
ATOM      5  N   UNL A   1     -24.647   1.209  27.206  0.00  0.00    -0.283 N 
ATOM      6  C   UNL A   1     -23.352   1.640  26.607  0.00  0.00    +0.121 C 
ATOM      7  C   UNL A   1     -24.574   0.583  28.412  0.00  0.00    +0.082 C 
ATOM      8  N   UNL A   1     -21.180   1.520  27.713  0.00  0.00    -0.124 NA
BRANCH   5   9
ATOM      9  C   UNL A   1     -25.688   1.614  26.461  0.00  0.00    +0.090 C 
ATOM     10  C   UNL A   1     -26.250   2.920  26.395  0.00  0.00    +0.090 C 
ATOM     11  C   UNL A   1     -27.438   3.091  25.645  0.00  0.00    +0.108 C 
ATOM     12  N   UNL A   1     -28.075   2.089  25.003  0.00  0.00    -0.208 NA
ATOM     13  C   UNL A   1     -27.543   0.849  25.079  0.00  0.00    +0.255 C 
ATOM     14  C   UNL A   1     -26.354   0.576  25.777  0.00  0.00    +0.206 C 
ATOM     15  F   UNL A   1     -25.860  -0.681  25.795  0.00  0.00    -0.198 F 
BRANCH  10  16
ATOM     16  C   UNL A   1     -25.642   4.093  27.123  0.00  0.00    +0.268 C 
ATOM     17  N   UNL A   1     -25.614   5.252  26.449  0.00  0.00    -0.200 NA
ATOM     18  C   UNL A   1     -25.026   6.479  26.963  0.00  0.00    +0.139 C 
ATOM     19  O   UNL A   1     -25.143   3.966  28.243  0.00  0.00    -0.268 OA
ENDBRANCH  10  16
BRANCH  13  20
ATOM     20  O   UNL A   1     -28.193  -0.208  24.477  0.00  0.00    -0.456 OA
BRANCH  20  21
ATOM     21  C   UNL A   1     -29.460   0.005  23.866  0.00  0.00    +0.243 C 
BRANCH  21  22
ATOM     22  C   UNL A   1     -30.065  -1.377  23.573  0.00  0.00    +0.229 C 
ATOM     23  O   UNL A   1     -30.729  -1.878  24.721  0.00  0.00    -0.216 OA
ENDBRANCH  21  22
ENDBRANCH  20  21
ENDBRANCH  13  20
ENDBRANCH   5   9
ENDBRANCH   1   7
BRANCH   1  24
ATOM     24  C   UNL A   1     -24.855  -1.012  30.143  0.00  0.00    +0.071 C 
BRANCH  24  25
ATOM     25  C   UNL A   1     -24.973  -2.505  29.788  0.00  0.00    -0.018 C 
ATOM     26  C   UNL A   1     -23.906  -3.173  29.146  0.00  0.00    -0.004 C 
ATOM     27  C   UNL A   1     -23.989  -4.549  28.853  0.00  0.00    -0.000 C 
ATOM     28  C   UNL A   1     -25.137  -5.280  29.205  0.00  0.00    -0.000 C 
ATOM     29  C   UNL A   1     -26.232  -4.611  29.784  0.00  0.00    -0.000 C 
ATOM     30  C   UNL A   1     -26.155  -3.232  30.065  0.00  0.00    -0.004 C 
ENDBRANCH  24  25
BRANCH  24  31
ATOM     31  C   UNL A   1     -25.387  -0.679  31.571  0.00  0.00    +0.080 C 
ATOM     32  C   UNL A   1     -25.189   0.773  32.028  0.00  0.00    +0.019 C 
ATOM     33  C   UNL A   1     -25.336   0.684  33.544  0.00  0.00    +0.020 C 
ATOM     34  C   UNL A   1     -24.829  -0.715  33.905  0.00  0.00    +0.089 C 
ATOM     35  N   UNL A   1     -24.758  -1.481  32.646  0.00  0.00    -0.219 NA
ENDBRANCH  24  31
ENDBRANCH   1  24
BRANCH   1  36
ATOM     36  O   UNL A   1     -26.841  -0.010  29.383  0.00  0.00    -0.350 OA
BRANCH  36  37
ATOM     37  C   UNL A   1     -27.821  -0.216  28.396  0.00  0.00    +0.149 C 
BRANCH  37  40
ATOM     38  C   UNL A   1     -30.368  -0.005  28.220  0.00  0.00    +0.041 C 
ATOM     39  C   UNL A   1     -30.175   1.296  27.864  0.00  0.00    +0.149 C 
ATOM     40  C   UNL A   1     -29.140  -0.228  29.197  0.00  0.00    +0.102 C 
ATOM     41  O   UNL A   1     -29.579   1.891  29.152  0.00  0.00    -0.320 OA
ATOM     42  C   UNL A   1     -29.318   0.725  30.006  0.00  0.00    +0.290 C 
BRANCH  39  45
ATOM     43  O   UNL A   1     -32.363   2.257  28.250  0.00  0.00    -0.221 OA
ATOM     44  C   UNL A   1     -30.591   3.742  27.671  0.00  0.00    +0.038 C 
ATOM     45  C   UNL A   1     -31.183   2.307  27.416  0.00  0.00    +0.179 C 
ENDBRANCH  39  45
BRANCH  42  46
ATOM     46  O   UNL A   1     -30.218   0.269  30.924  0.00  0.00    -0.452 OA
BRANCH  46  51
ATOM     47  C   UNL A   1     -31.280   0.816  34.881  0.00  0.00    +0.000 C 
ATOM     48  C   UNL A   1     -32.112   0.153  33.998  0.00  0.00    +0.003 C 
ATOM     49  C   UNL A   1     -29.877   1.455  33.054  0.00  0.00    +0.037 C 
ATOM     50  C   UNL A   1     -30.144   1.470  34.409  0.00  0.00    +0.003 C 
ATOM     51  C   UNL A   1     -30.676   0.622  32.193  0.00  0.00    +0.141 C 
ATOM     52  C   UNL A   1     -31.872   0.104  32.670  0.00  0.00    +0.037 C 
ENDBRANCH  46  51
ENDBRANCH  42  46
ENDBRANCH  37  40
ENDBRANCH  36  37
ENDBRANCH   1  36
TORSDOF 15
