MODEL 4574
MODEL 1
REMARK VINA RESULT:    -6.838      0.000      0.000
REMARK INTER + INTRA:          -8.134
REMARK INTER:                  -7.637
REMARK INTRA:                  -0.497
REMARK UNBOUND:                -0.497
REMARK  Name = No_4574-gen_results/8p0m/2024-11-27-11-27-31/
REMARK  2 active torsions:
REMARK  status: ('A' for Active; 'I' for Inactive)
REMARK    1  A    between atoms: C_6  and  C_8
REMARK    2  A    between atoms: C_8  and  C_9
REMARK                            x       y       z     vdW  Elec       q    Type
REMARK                         _______ _______ _______ _____ _____    ______ ____
ROOT
ATOM      1  C   UNL A   1     -22.741   1.329  27.519  0.00  0.00    +0.011 A 
ATOM      2  C   UNL A   1     -23.417   1.464  26.526  0.00  0.00    +0.058 A 
ATOM      3  C   UNL A   1     -24.531   0.736  26.262  0.00  0.00    +0.011 A 
ATOM      4  C   UNL A   1     -24.930  -0.238  27.197  0.00  0.00    -0.003 A 
ATOM      5  C   UNL A   1     -23.142   0.419  28.562  0.00  0.00    -0.003 A 
ATOM      6  C   UNL A   1     -24.239  -0.357  28.332  0.00  0.00    -0.018 A 
ATOM      7 CL   UNL A   1     -23.029   2.655  25.313  0.00  0.00    -0.082 Cl
ENDROOT
BRANCH   6   8
ATOM      8  C   UNL A   1     -24.638  -1.344  29.381  0.00  0.00    +0.053 C 
BRANCH   8   9
ATOM      9  C   UNL A   1     -24.813  -2.473  29.303  0.00  0.00    -0.018 A 
ATOM     10  C   UNL A   1     -26.092  -3.086  29.794  0.00  0.00    -0.004 A 
ATOM     11  C   UNL A   1     -26.326  -4.508  29.684  0.00  0.00    -0.000 A 
ATOM     12  C   UNL A   1     -25.289  -5.270  29.120  0.00  0.00    -0.000 A 
ATOM     13  C   UNL A   1     -24.139  -4.765  28.675  0.00  0.00    -0.000 A 
ATOM     14  C   UNL A   1     -23.838  -3.399  28.743  0.00  0.00    -0.004 A 
ENDBRANCH   8   9
ENDBRANCH   6   8
TORSDOF 2
ENDMDL
ENDMDL
