MODEL 4575
MODEL 1
REMARK VINA RESULT:    -4.446      0.000      0.000
REMARK INTER + INTRA:          -4.446
REMARK INTER:                  -4.446
REMARK INTRA:                   0.000
REMARK UNBOUND:                 0.000
REMARK  Name = No_4575-gen_results/8p0m/2024-11-27-11-27-31/
REMARK  0 active torsions:
REMARK  status: ('A' for Active; 'I' for Inactive)
REMARK                            x       y       z     vdW  Elec       q    Type
REMARK                         _______ _______ _______ _____ _____    ______ ____
ROOT
ATOM      1  C   UNL A   1     -24.010  -4.150  28.758  0.00  0.00    +0.011 A 
ATOM      2  C   UNL A   1     -24.277  -3.034  29.140  0.00  0.00    +0.058 A 
ATOM      3  C   UNL A   1     -25.378  -2.624  29.701  0.00  0.00    +0.011 A 
ATOM      4  C   UNL A   1     -26.426  -3.573  29.896  0.00  0.00    +0.001 A 
ATOM      5  C   UNL A   1     -24.981  -5.194  29.026  0.00  0.00    +0.001 A 
ATOM      6  C   UNL A   1     -26.145  -4.855  29.582  0.00  0.00    +0.000 A 
ATOM      7 CL   UNL A   1     -23.070  -1.750  28.947  0.00  0.00    -0.082 Cl
ENDROOT
TORSDOF 0
ENDMDL
ENDMDL
