REMARK  Name = outputs/IAG933/test6/raw/output_4575_IAG933_linker_design_.xyz
REMARK  13 active torsions:
REMARK  status: ('A' for Active; 'I' for Inactive)
REMARK    1  A    between atoms: C_1  and  C_2
REMARK    2  A    between atoms: C_1  and  C_8
REMARK    3  A    between atoms: C_1  and  C_38
REMARK    4  A    between atoms: C_13  and  C_36
REMARK    5  A    between atoms: C_14  and  C_15
REMARK    6  A    between atoms: C_21  and  O_22
REMARK    7  A    between atoms: O_22  and  C_23
REMARK    8  A    between atoms: C_23  and  C_24
REMARK    9  A    between atoms: N_29  and  C_38
REMARK   10  A    between atoms: C_30  and  C_32
REMARK   11  A    between atoms: C_30  and  O_41
REMARK   12  A    between atoms: C_37  and  C_38
REMARK   13  A    between atoms: C_37  and  O_41
REMARK                            x       y       z     vdW  Elec       q    Type
REMARK                         _______ _______ _______ _____ _____    ______ ____
ROOT
ATOM      1  N   UNL A   1     -24.554   0.511  28.323  0.00  0.00    -0.275 N 
ATOM      2  O   UNL A   1     -22.574  -0.317  29.181  0.00  0.00    -0.275 OA
ATOM      3  C   UNL A   1     -23.220   0.548  28.643  0.00  0.00    +0.227 C 
ATOM      4  C   UNL A   1     -22.306   1.745  28.060  0.00  0.00    +0.094 C 
ATOM      5 CL   UNL A   1     -22.823   2.481  25.249  0.00  0.00    -0.112 Cl
ATOM      6  C   UNL A   1     -24.614   1.306  27.330  0.00  0.00    +0.116 C 
ATOM      7  C   UNL A   1     -23.328   2.037  26.937  0.00  0.00    +0.111 C 
ATOM      8  C   UNL A   1     -20.889   1.413  27.497  0.00  0.00    +0.011 C 
ENDROOT
BRANCH   6   9
ATOM      9  C   UNL A   1     -25.688   1.614  26.461  0.00  0.00    +0.035 C 
ATOM     10  C   UNL A   1     -26.250   2.920  26.395  0.00  0.00    +0.074 C 
ATOM     11  C   UNL A   1     -27.438   3.091  25.645  0.00  0.00    +0.106 C 
ATOM     12  N   UNL A   1     -28.075   2.089  25.003  0.00  0.00    -0.208 NA
ATOM     13  C   UNL A   1     -27.543   0.849  25.079  0.00  0.00    +0.253 C 
ATOM     14  C   UNL A   1     -26.354   0.576  25.777  0.00  0.00    +0.191 C 
ATOM     15  F   UNL A   1     -25.860  -0.681  25.795  0.00  0.00    -0.200 F 
BRANCH  10  16
ATOM     16  C   UNL A   1     -25.642   4.093  27.123  0.00  0.00    +0.266 C 
ATOM     17  N   UNL A   1     -25.614   5.252  26.449  0.00  0.00    -0.200 NA
ATOM     18  C   UNL A   1     -25.026   6.479  26.963  0.00  0.00    +0.139 C 
ATOM     19  O   UNL A   1     -25.143   3.966  28.243  0.00  0.00    -0.268 OA
ENDBRANCH  10  16
BRANCH  13  20
ATOM     20  O   UNL A   1     -28.193  -0.208  24.477  0.00  0.00    -0.456 OA
BRANCH  20  21
ATOM     21  C   UNL A   1     -29.460   0.005  23.866  0.00  0.00    +0.243 C 
BRANCH  21  22
ATOM     22  C   UNL A   1     -30.065  -1.377  23.573  0.00  0.00    +0.229 C 
ATOM     23  O   UNL A   1     -30.729  -1.878  24.721  0.00  0.00    -0.216 OA
ENDBRANCH  21  22
ENDBRANCH  20  21
ENDBRANCH  13  20
ENDBRANCH   6   9
BRANCH   1  24
ATOM     24  C   UNL A   1     -25.568  -0.240  29.011  0.00  0.00    +0.111 C 
BRANCH  24  25
ATOM     25  C   UNL A   1     -24.855  -1.012  30.143  0.00  0.00    +0.059 C 
BRANCH  25  26
ATOM     26  C   UNL A   1     -24.973  -2.505  29.788  0.00  0.00    -0.019 C 
ATOM     27  C   UNL A   1     -23.906  -3.173  29.146  0.00  0.00    -0.004 C 
ATOM     28  C   UNL A   1     -23.989  -4.549  28.853  0.00  0.00    -0.000 C 
ATOM     29  C   UNL A   1     -25.137  -5.280  29.205  0.00  0.00    -0.000 C 
ATOM     30  C   UNL A   1     -26.232  -4.611  29.784  0.00  0.00    -0.000 C 
ATOM     31  C   UNL A   1     -26.155  -3.232  30.065  0.00  0.00    -0.004 C 
ENDBRANCH  25  26
BRANCH  25  32
ATOM     32  C   UNL A   1     -25.387  -0.679  31.571  0.00  0.00    +0.079 C 
ATOM     33  C   UNL A   1     -25.189   0.773  32.028  0.00  0.00    +0.019 C 
ATOM     34  C   UNL A   1     -25.336   0.684  33.544  0.00  0.00    +0.020 C 
ATOM     35  C   UNL A   1     -24.829  -0.715  33.905  0.00  0.00    +0.089 C 
ATOM     36  N   UNL A   1     -24.758  -1.481  32.646  0.00  0.00    -0.219 NA
ENDBRANCH  25  32
ENDBRANCH  24  25
BRANCH  24  37
ATOM     37  C   UNL A   1     -27.203  -0.344  28.910  0.00  0.00    +0.162 C 
BRANCH  37  38
ATOM     38  O   UNL A   1     -28.475  -1.159  29.241  0.00  0.00    -0.349 OA
BRANCH  38  39
ATOM     39  C   UNL A   1     -29.290  -0.616  30.273  0.00  0.00    +0.178 C 
BRANCH  39  41
ATOM     40  O   UNL A   1     -30.660   0.027  28.428  0.00  0.00    -0.218 OA
ATOM     41  C   UNL A   1     -30.715  -0.107  29.758  0.00  0.00    +0.214 C 
ENDBRANCH  39  41
ENDBRANCH  38  39
ENDBRANCH  37  38
ENDBRANCH  24  37
ENDBRANCH   1  24
TORSDOF 13
