MODEL 4576
MODEL 1
REMARK VINA RESULT:    -4.300      0.000      0.000
REMARK INTER + INTRA:          -4.300
REMARK INTER:                  -4.300
REMARK INTRA:                   0.000
REMARK UNBOUND:                 0.000
REMARK  Name = No_4576-gen_results/8p0m/2024-11-27-11-27-31/
REMARK  0 active torsions:
REMARK  status: ('A' for Active; 'I' for Inactive)
REMARK                            x       y       z     vdW  Elec       q    Type
REMARK                         _______ _______ _______ _____ _____    ______ ____
ROOT
ATOM      1 BR   UNL A   1     -23.235  -1.348  29.083  0.00  0.00    -0.049 Br
ATOM      2  C   UNL A   1     -24.250  -2.622  29.373  0.00  0.00    +0.035 A 
ATOM      3  C   UNL A   1     -25.441  -2.583  29.851  0.00  0.00    +0.007 A 
ATOM      4  C   UNL A   1     -26.391  -3.630  29.886  0.00  0.00    +0.001 A 
ATOM      5  C   UNL A   1     -25.933  -4.895  29.451  0.00  0.00    +0.000 A 
ATOM      6  C   UNL A   1     -24.679  -4.997  28.924  0.00  0.00    +0.001 A 
ATOM      7  C   UNL A   1     -23.935  -3.900  28.845  0.00  0.00    +0.007 A 
ENDROOT
TORSDOF 0
ENDMDL
ENDMDL
