MODEL 4577
MODEL 1
REMARK VINA RESULT:    -7.429      0.000      0.000
REMARK INTER + INTRA:          -8.084
REMARK INTER:                  -7.863
REMARK INTRA:                  -0.221
REMARK UNBOUND:                -0.221
REMARK  Name = No_4577-gen_results/8p0m/2024-11-27-11-27-31/
REMARK  1 active torsions:
REMARK  status: ('A' for Active; 'I' for Inactive)
REMARK    1  A    between atoms: C_18  and  C_24
REMARK                            x       y       z     vdW  Elec       q    Type
REMARK                         _______ _______ _______ _____ _____    ______ ____
ROOT
ATOM      1  C   UNL A   1     -30.169  -6.347  10.204  0.00  0.00    +0.005 A 
ATOM      2  C   UNL A   1     -31.111  -6.133  10.625  0.00  0.00    +0.000 A 
ATOM      3  C   UNL A   1     -29.901  -7.683   9.832  0.00  0.00    +0.055 A 
ATOM      4  C   UNL A   1     -28.671  -8.132   9.129  0.00  0.00    +0.198 A 
ATOM      5  C   UNL A   1     -32.260  -7.004  10.929  0.00  0.00    +0.002 A 
ATOM      6  C   UNL A   1     -32.066  -8.343  10.589  0.00  0.00    +0.018 A 
ATOM      7  C   UNL A   1     -30.904  -8.712   9.990  0.00  0.00    +0.067 A 
ATOM      8  C   UNL A   1     -28.445  -9.539   9.033  0.00  0.00    +0.055 A 
ATOM      9  C   UNL A   1     -27.701 -10.033   8.114  0.00  0.00    +0.005 A 
ATOM     10  C   UNL A   1     -27.677 -11.573   7.962  0.00  0.00    +0.000 A 
ATOM     11  C   UNL A   1     -28.446 -12.342   8.856  0.00  0.00    +0.005 A 
ATOM     12  C   UNL A   1     -29.145 -11.722   9.846  0.00  0.00    +0.055 A 
ATOM     13  C   UNL A   1     -29.272 -10.326   9.894  0.00  0.00    +0.070 A 
ATOM     14  N   UNL A   1     -30.705 -10.101  10.059  0.00  0.00    -0.306 N 
ATOM     15  C   UNL A   1     -31.685 -11.017  10.268  0.00  0.00    +0.067 A 
ATOM     16  C   UNL A   1     -32.784 -11.020   9.413  0.00  0.00    +0.018 A 
ATOM     17  C   UNL A   1     -33.748 -12.065   9.637  0.00  0.00    +0.002 A 
ATOM     18  C   UNL A   1     -33.508 -13.082  10.598  0.00  0.00    -0.000 A 
ATOM     19  C   UNL A   1     -31.468 -12.523  10.429  0.00  0.00    +0.055 A 
ATOM     20  C   UNL A   1     -32.392 -13.269  11.162  0.00  0.00    +0.005 A 
ATOM     21  C   UNL A   1     -29.990 -12.773  10.367  0.00  0.00    +0.198 A 
ATOM     22  O   UNL A   1     -29.726 -13.944  10.486  0.00  0.00    -0.286 OA
ATOM     23  O   UNL A   1     -27.857  -7.334   8.738  0.00  0.00    -0.286 OA
ENDROOT
BRANCH  18  24
ATOM     24  C   UNL A   1     -34.629 -14.089  10.856  0.00  0.00    -0.005 C 
ATOM     25  C   UNL A   1     -34.465 -15.267  10.637  0.00  0.00    -0.026 C 
ATOM     26  C   UNL A   1     -35.494 -16.304  10.853  0.00  0.00    +0.031 C 
ENDBRANCH  18  24
TORSDOF 1
ENDMDL
ENDMDL
