REMARK  Name = outputs/IAG933/test6/raw/output_4577_IAG933_linker_design_.xyz
REMARK  15 active torsions:
REMARK  status: ('A' for Active; 'I' for Inactive)
REMARK    1  A    between atoms: C_1  and  C_2
REMARK    2  A    between atoms: C_1  and  C_8
REMARK    3  A    between atoms: C_1  and  C_37
REMARK    4  A    between atoms: C_13  and  N_40
REMARK    5  A    between atoms: C_14  and  C_15
REMARK    6  A    between atoms: C_21  and  O_22
REMARK    7  A    between atoms: O_22  and  C_23
REMARK    8  A    between atoms: C_23  and  C_24
REMARK    9  A    between atoms: C_29  and  C_41
REMARK   10  A    between atoms: C_29  and  C_42
REMARK   11  A    between atoms: N_30  and  C_37
REMARK   12  A    between atoms: N_30  and  C_41
REMARK   13  A    between atoms: C_34  and  N_36
REMARK   14  A    between atoms: C_34  and  C_44
REMARK   15  A    between atoms: C_35  and  C_37
REMARK                            x       y       z     vdW  Elec       q    Type
REMARK                         _______ _______ _______ _____ _____    ______ ____
ROOT
ATOM      1  N   UNL A   1     -23.094   0.647  28.625  0.00  0.00    -0.202 NA
ATOM      2  F   UNL A   1     -21.137   1.393  27.596  0.00  0.00    -0.182 F 
ATOM      3  C   UNL A   1     -22.897   2.266  25.326  0.00  0.00    +0.054 C 
ATOM      4  C   UNL A   1     -24.398   0.629  28.209  0.00  0.00    +0.143 A 
ATOM      5  C   UNL A   1     -23.312   1.617  26.625  0.00  0.00    +0.089 A 
ATOM      6  C   UNL A   1     -22.458   1.212  27.607  0.00  0.00    +0.235 A 
ATOM      7  N   UNL A   1     -24.492   1.340  27.047  0.00  0.00    -0.291 N 
ENDROOT
BRANCH   7   8
ATOM      8  C   UNL A   1     -25.688   1.614  26.461  0.00  0.00    +0.103 C 
ATOM      9  C   UNL A   1     -26.250   2.920  26.395  0.00  0.00    +0.093 C 
ATOM     10  C   UNL A   1     -27.438   3.091  25.645  0.00  0.00    +0.108 C 
ATOM     11  N   UNL A   1     -28.075   2.089  25.003  0.00  0.00    -0.208 NA
ATOM     12  C   UNL A   1     -27.543   0.849  25.079  0.00  0.00    +0.255 C 
ATOM     13  C   UNL A   1     -26.354   0.576  25.777  0.00  0.00    +0.209 C 
ATOM     14  F   UNL A   1     -25.860  -0.681  25.795  0.00  0.00    -0.198 F 
BRANCH   9  15
ATOM     15  C   UNL A   1     -25.642   4.093  27.123  0.00  0.00    +0.268 C 
ATOM     16  N   UNL A   1     -25.614   5.252  26.449  0.00  0.00    -0.200 NA
ATOM     17  C   UNL A   1     -25.026   6.479  26.963  0.00  0.00    +0.139 C 
ATOM     18  O   UNL A   1     -25.143   3.966  28.243  0.00  0.00    -0.268 OA
ENDBRANCH   9  15
BRANCH  12  19
ATOM     19  O   UNL A   1     -28.193  -0.208  24.477  0.00  0.00    -0.456 OA
BRANCH  19  20
ATOM     20  C   UNL A   1     -29.460   0.005  23.866  0.00  0.00    +0.243 C 
BRANCH  20  21
ATOM     21  C   UNL A   1     -30.065  -1.377  23.573  0.00  0.00    +0.229 C 
ATOM     22  O   UNL A   1     -30.729  -1.878  24.721  0.00  0.00    -0.216 OA
ENDBRANCH  20  21
ENDBRANCH  19  20
ENDBRANCH  12  19
ENDBRANCH   7   8
BRANCH   4  23
ATOM     23  C   UNL A   1     -25.371  -0.079  29.004  0.00  0.00    +0.135 C 
BRANCH  23  24
ATOM     24  C   UNL A   1     -24.855  -1.012  30.143  0.00  0.00    +0.062 C 
BRANCH  24  25
ATOM     25  C   UNL A   1     -24.973  -2.505  29.788  0.00  0.00    -0.019 C 
ATOM     26  C   UNL A   1     -23.906  -3.173  29.146  0.00  0.00    -0.004 C 
ATOM     27  C   UNL A   1     -23.989  -4.549  28.853  0.00  0.00    -0.000 C 
ATOM     28  C   UNL A   1     -25.137  -5.280  29.205  0.00  0.00    -0.000 C 
ATOM     29  C   UNL A   1     -26.232  -4.611  29.784  0.00  0.00    -0.000 C 
ATOM     30  C   UNL A   1     -26.155  -3.232  30.065  0.00  0.00    -0.004 C 
ENDBRANCH  24  25
BRANCH  24  31
ATOM     31  C   UNL A   1     -25.387  -0.679  31.571  0.00  0.00    +0.079 C 
ATOM     32  C   UNL A   1     -25.189   0.773  32.028  0.00  0.00    +0.019 C 
ATOM     33  C   UNL A   1     -25.336   0.684  33.544  0.00  0.00    +0.020 C 
ATOM     34  C   UNL A   1     -24.829  -0.715  33.905  0.00  0.00    +0.089 C 
ATOM     35  N   UNL A   1     -24.758  -1.481  32.646  0.00  0.00    -0.219 NA
ENDBRANCH  24  31
ENDBRANCH  23  24
BRANCH  23  36
ATOM     36  N   UNL A   1     -26.645  -0.215  28.531  0.00  0.00    -0.211 NA
BRANCH  36  37
ATOM     37  C   UNL A   1     -27.720  -1.038  28.705  0.00  0.00    +0.099 C 
BRANCH  37  38
ATOM     38  C   UNL A   1     -28.288  -1.281  29.915  0.00  0.00    +0.106 C 
BRANCH  38  41
ATOM     39  O   UNL A   1     -28.235   0.771  31.084  0.00  0.00    -0.273 OA
ATOM     40  N   UNL A   1     -30.194  -0.326  30.819  0.00  0.00    -0.205 NA
ATOM     41  C   UNL A   1     -28.932  -0.167  30.640  0.00  0.00    +0.243 C 
BRANCH  40  42
ATOM     42  C   UNL A   1     -31.163   0.753  30.924  0.00  0.00    +0.115 C 
BRANCH  42  44
ATOM     43  C   UNL A   1     -32.617   1.483  32.833  0.00  0.00    +0.002 C 
ATOM     44  C   UNL A   1     -31.203   1.494  32.263  0.00  0.00    +0.023 C 
ENDBRANCH  42  44
ENDBRANCH  40  42
ENDBRANCH  38  41
ENDBRANCH  37  38
ENDBRANCH  36  37
ENDBRANCH  23  36
ENDBRANCH   4  23
TORSDOF 15
