MODEL 4578
MODEL 1
REMARK VINA RESULT:    -4.454      0.000      0.000
REMARK INTER + INTRA:          -4.454
REMARK INTER:                  -4.454
REMARK INTRA:                   0.000
REMARK UNBOUND:                 0.000
REMARK  Name = No_4578-gen_results/8p0m/2024-11-27-11-27-31/
REMARK  0 active torsions:
REMARK  status: ('A' for Active; 'I' for Inactive)
REMARK                            x       y       z     vdW  Elec       q    Type
REMARK                         _______ _______ _______ _____ _____    ______ ____
ROOT
ATOM      1  C   UNL A   1      -9.188  -9.202  19.962  0.00  0.00    +0.011 A 
ATOM      2  C   UNL A   1      -8.352  -9.814  19.772  0.00  0.00    +0.058 A 
ATOM      3  C   UNL A   1     -10.306  -9.298  19.009  0.00  0.00    +0.001 A 
ATOM      4  C   UNL A   1     -10.221 -10.008  18.014  0.00  0.00    +0.000 A 
ATOM      5  C   UNL A   1      -8.076 -10.819  18.728  0.00  0.00    +0.011 A 
ATOM      6  C   UNL A   1      -9.077 -10.867  17.807  0.00  0.00    +0.001 A 
ATOM      7 CL   UNL A   1      -6.976  -9.800  20.963  0.00  0.00    -0.082 Cl
ENDROOT
TORSDOF 0
ENDMDL
ENDMDL
