MODEL 4579
MODEL 1
REMARK VINA RESULT:    -6.484      0.000      0.000
REMARK INTER + INTRA:          -7.259
REMARK INTER:                  -6.863
REMARK INTRA:                  -0.396
REMARK UNBOUND:                -0.396
REMARK  Name = No_4579-gen_results/8p0m/2024-11-27-11-27-31/
REMARK  1 active torsions:
REMARK  status: ('A' for Active; 'I' for Inactive)
REMARK    1  A    between atoms: C_3  and  C_4
REMARK                            x       y       z     vdW  Elec       q    Type
REMARK                         _______ _______ _______ _____ _____    ______ ____
ROOT
ATOM      1  C   UNL A   1     -25.849  -2.583  29.885  0.00  0.00    +0.000 A 
ATOM      2  C   UNL A   1     -26.418  -3.464  29.990  0.00  0.00    +0.000 A 
ATOM      3  C   UNL A   1     -24.572  -2.690  29.291  0.00  0.00    +0.000 A 
ATOM      4  C   UNL A   1     -26.120  -4.862  29.633  0.00  0.00    +0.000 A 
ATOM      5  C   UNL A   1     -24.870  -5.045  29.042  0.00  0.00    +0.000 A 
ATOM      6  C   UNL A   1     -24.081  -3.963  28.812  0.00  0.00    +0.000 A 
ENDROOT
BRANCH   3   7
ATOM      7  C   UNL A   1     -23.692  -1.536  28.971  0.00  0.00    +0.000 A 
ATOM      8  C   UNL A   1     -22.671  -1.178  29.309  0.00  0.00    +0.000 A 
ATOM      9  C   UNL A   1     -21.892  -0.049  28.914  0.00  0.00    +0.000 A 
ATOM     10  C   UNL A   1     -22.591   0.796  27.954  0.00  0.00    +0.000 A 
ATOM     11  C   UNL A   1     -23.799   0.459  27.605  0.00  0.00    +0.000 A 
ATOM     12  C   UNL A   1     -24.400  -0.630  28.023  0.00  0.00    +0.000 A 
ENDBRANCH   3   7
TORSDOF 1
ENDMDL
ENDMDL
