MODEL 457
MODEL 1
REMARK VINA RESULT:    -6.076      0.000      0.000
REMARK INTER + INTRA:          -6.176
REMARK INTER:                  -6.431
REMARK INTRA:                   0.255
REMARK UNBOUND:                 0.255
REMARK  Name = No_457-gen_results/8p0m/2024-11-27-11-27-31/
REMARK  2 active torsions:
REMARK  status: ('A' for Active; 'I' for Inactive)
REMARK    1  A    between atoms: C_2  and  C_11
REMARK    2  A    between atoms: C_4  and  C_7
REMARK                            x       y       z     vdW  Elec       q    Type
REMARK                         _______ _______ _______ _____ _____    ______ ____
ROOT
ATOM      1  C   UNL A   1     -22.886  -0.244  28.624  0.00  0.00    -0.001 C 
ATOM      2  C   UNL A   1     -23.736  -0.854  28.498  0.00  0.00    +0.075 C 
ATOM      3  C   UNL A   1     -22.818   0.970  27.723  0.00  0.00    -0.026 C 
ATOM      4  C   UNL A   1     -23.922   1.284  26.903  0.00  0.00    +0.154 C 
ATOM      5  C   UNL A   1     -25.014  -0.739  27.760  0.00  0.00    -0.018 C 
ATOM      6  C   UNL A   1     -24.992   0.370  26.925  0.00  0.00    +0.049 C 
ATOM      7 BR   UNL A   1     -24.129   2.368  27.253  0.00  0.00    -0.069 Br
ATOM      8  C   UNL A   1     -21.412   1.551  27.587  0.00  0.00    +0.028 C 
ENDROOT
BRANCH   4   9
ATOM      9  C   UNL A   1     -23.907   2.403  26.023  0.00  0.00    +0.409 C 
ATOM     10  F   UNL A   1     -23.646   3.455  26.583  0.00  0.00    -0.169 F 
ATOM     11  F   UNL A   1     -25.151   2.544  25.361  0.00  0.00    -0.169 F 
ATOM     12  F   UNL A   1     -23.025   2.227  25.014  0.00  0.00    -0.169 F 
ENDBRANCH   4   9
BRANCH   2  13
ATOM     13  C   UNL A   1     -23.792  -2.169  29.440  0.00  0.00    +0.387 C 
ATOM     14  O   UNL A   1     -24.299  -2.262  30.465  0.00  0.00    -0.241 OA
ATOM     15  O   UNL A   1     -23.487  -3.255  28.763  0.00  0.00    -0.241 OA
ENDBRANCH   2  13
TORSDOF 2
ENDMDL
ENDMDL
