REMARK  Name = No_458-gen_results/8p0m/2024-11-27-11-27-31/
REMARK  3 active torsions:
REMARK  status: ('A' for Active; 'I' for Inactive)
REMARK    1  A    between atoms: C_3  and  C_8
REMARK    2  A    between atoms: C_4  and  C_15
REMARK    3  A    between atoms: C_15  and  C_16
REMARK                            x       y       z     vdW  Elec       q    Type
REMARK                         _______ _______ _______ _____ _____    ______ ____
ROOT
ATOM      1  F   UNL A   1     -28.073  -1.254  28.532  0.00  0.00    -0.202 F 
ATOM      2  C   UNL A   1     -28.266  -0.421  29.193  0.00  0.00    +0.167 A 
ATOM      3  C   UNL A   1     -27.236  -0.057  30.015  0.00  0.00    +0.026 A 
ATOM      4  C   UNL A   1     -27.261   1.101  30.935  0.00  0.00    -0.015 A 
ATOM      5  C   UNL A   1     -29.497   0.318  29.290  0.00  0.00    +0.167 A 
ATOM      6  C   UNL A   1     -29.557   1.440  30.204  0.00  0.00    +0.032 A 
ATOM      7  C   UNL A   1     -28.453   1.802  31.001  0.00  0.00    -0.002 A 
ATOM      8  F   UNL A   1     -30.480   0.004  28.581  0.00  0.00    -0.202 F 
ENDROOT
BRANCH   3   9
ATOM      9  C   UNL A   1     -25.945  -0.742  30.026  0.00  0.00    +0.002 A 
ATOM     10  C   UNL A   1     -25.038  -0.432  29.006  0.00  0.00    +0.000 A 
ATOM     11  C   UNL A   1     -23.834  -1.019  28.977  0.00  0.00    +0.000 A 
ATOM     12  C   UNL A   1     -23.512  -2.048  29.894  0.00  0.00    +0.000 A 
ATOM     13  C   UNL A   1     -24.489  -2.427  30.814  0.00  0.00    +0.000 A 
ATOM     14  C   UNL A   1     -25.677  -1.785  30.931  0.00  0.00    +0.000 A 
ENDBRANCH   3   9
BRANCH   4  15
ATOM     15  C   UNL A   1     -26.163   1.468  31.793  0.00  0.00    +0.056 C 
BRANCH  15  16
ATOM     16  C   UNL A   1     -26.234   2.344  32.671  0.00  0.00    +0.021 A 
ATOM     17  C   UNL A   1     -27.180   2.516  33.560  0.00  0.00    -0.001 A 
ATOM     18  C   UNL A   1     -27.211   3.613  34.511  0.00  0.00    -0.000 A 
ATOM     19  C   UNL A   1     -26.230   4.575  34.362  0.00  0.00    +0.003 A 
ATOM     20  C   UNL A   1     -25.228   4.509  33.383  0.00  0.00    +0.042 A 
ATOM     21  C   UNL A   1     -25.224   3.415  32.531  0.00  0.00    +0.192 A 
ATOM     22  O   UNL A   1     -24.357   3.201  31.576  0.00  0.00    -0.287 OA
ENDBRANCH  15  16
ENDBRANCH   4  15
TORSDOF 3
