MODEL 4581
MODEL 1
REMARK VINA RESULT:    -5.224      0.000      0.000
REMARK INTER + INTRA:          -5.998
REMARK INTER:                  -5.835
REMARK INTRA:                  -0.163
REMARK UNBOUND:                -0.163
REMARK  Name = No_4581-gen_results/8p0m/2024-11-27-11-27-31/
REMARK  2 active torsions:
REMARK  status: ('A' for Active; 'I' for Inactive)
REMARK    1  A    between atoms: C_1  and  C_3
REMARK    2  A    between atoms: C_3  and  C_4
REMARK                            x       y       z     vdW  Elec       q    Type
REMARK                         _______ _______ _______ _____ _____    ______ ____
ROOT
ATOM      1  C   UNL A   1     -24.398  -2.772  29.620  0.00  0.00    +0.008 A 
ATOM      2  C   UNL A   1     -23.791  -3.339  28.972  0.00  0.00    -0.002 A 
ATOM      3  C   UNL A   1     -24.158  -4.812  28.560  0.00  0.00    -0.000 A 
ATOM      4  C   UNL A   1     -25.327  -5.278  29.155  0.00  0.00    -0.000 A 
ATOM      5  C   UNL A   1     -26.227  -4.422  29.707  0.00  0.00    -0.000 A 
ATOM      6  C   UNL A   1     -25.857  -3.087  29.818  0.00  0.00    -0.002 A 
ENDROOT
BRANCH   1   7
ATOM      7  C   UNL A   1     -24.010  -1.404  29.816  0.00  0.00    +0.174 C 
ATOM      8  O   UNL A   1     -23.545  -0.973  31.015  0.00  0.00    -0.218 OA
BRANCH   7   9
ATOM      9  C   UNL A   1     -23.100  -0.730  28.868  0.00  0.00    +0.037 C 
ATOM     10  C   UNL A   1     -21.889  -0.262  29.228  0.00  0.00    +0.003 C 
ENDBRANCH   7   9
ENDBRANCH   1   7
TORSDOF 2
ENDMDL
ENDMDL
