MODEL 4582
MODEL 1
REMARK VINA RESULT:    -6.919      0.000      0.000
REMARK INTER + INTRA:          -7.567
REMARK INTER:                  -7.323
REMARK INTRA:                  -0.244
REMARK UNBOUND:                -0.244
REMARK  Name = No_4582-gen_results/8p0m/2024-11-27-11-27-31/
REMARK  1 active torsions:
REMARK  status: ('A' for Active; 'I' for Inactive)
REMARK    1  A    between atoms: C_4  and  C_9
REMARK                            x       y       z     vdW  Elec       q    Type
REMARK                         _______ _______ _______ _____ _____    ______ ____
ROOT
ATOM      1  C   UNL A   1     -26.544  -3.635  30.048  0.00  0.00    +0.014 A 
ATOM      2  C   UNL A   1     -26.276  -4.572  29.647  0.00  0.00    +0.030 A 
ATOM      3  C   UNL A   1     -25.693  -2.532  29.704  0.00  0.00    +0.058 A 
ATOM      4  C   UNL A   1     -24.533  -2.681  29.056  0.00  0.00    +0.013 A 
ATOM      5  C   UNL A   1     -25.066  -4.967  28.941  0.00  0.00    +0.140 A 
ATOM      6  C   UNL A   1     -24.256  -3.961  28.635  0.00  0.00    +0.030 A 
ATOM      7 CL   UNL A   1     -26.360  -1.043  30.285  0.00  0.00    -0.082 Cl
ATOM      8  F   UNL A   1     -24.667  -6.184  28.591  0.00  0.00    -0.204 F 
ENDROOT
BRANCH   4   9
ATOM      9  C   UNL A   1     -23.709  -1.501  28.775  0.00  0.00    +0.001 A 
ATOM     10  C   UNL A   1     -22.465  -1.215  29.321  0.00  0.00    +0.000 A 
ATOM     11  C   UNL A   1     -24.264  -0.500  27.846  0.00  0.00    +0.000 A 
ATOM     12  C   UNL A   1     -23.626   0.614  27.496  0.00  0.00    +0.000 A 
ATOM     13  C   UNL A   1     -21.730  -0.073  28.983  0.00  0.00    +0.000 A 
ATOM     14  C   UNL A   1     -22.334   0.889  28.045  0.00  0.00    +0.000 A 
ENDBRANCH   4   9
TORSDOF 1
ENDMDL
ENDMDL
