MODEL 4583
MODEL 1
REMARK VINA RESULT:    -6.713      0.000      0.000
REMARK INTER + INTRA:          -7.965
REMARK INTER:                  -7.497
REMARK INTRA:                  -0.468
REMARK UNBOUND:                -0.468
REMARK  Name = No_4583-gen_results/8p0m/2024-11-27-11-27-31/
REMARK  2 active torsions:
REMARK  status: ('A' for Active; 'I' for Inactive)
REMARK    1  A    between atoms: C_3  and  C_4
REMARK    2  A    between atoms: C_4  and  C_8
REMARK                            x       y       z     vdW  Elec       q    Type
REMARK                         _______ _______ _______ _____ _____    ______ ____
ROOT
ATOM      1  C   UNL A   1     -23.433  -1.565  29.562  0.00  0.00    +0.053 C 
ENDROOT
BRANCH   1   4
ATOM      2  C   UNL A   1     -23.936  -4.007  28.845  0.00  0.00    -0.004 A 
ATOM      3  C   UNL A   1     -24.682  -4.749  28.899  0.00  0.00    -0.000 A 
ATOM      4  C   UNL A   1     -24.340  -2.726  29.425  0.00  0.00    -0.018 A 
ATOM      5  C   UNL A   1     -26.041  -4.806  29.420  0.00  0.00    -0.000 A 
ATOM      6  C   UNL A   1     -26.463  -3.611  29.965  0.00  0.00    -0.000 A 
ATOM      7  C   UNL A   1     -25.615  -2.570  30.028  0.00  0.00    -0.004 A 
ENDBRANCH   1   4
BRANCH   1   8
ATOM      8  C   UNL A   1     -22.981  -0.801  28.814  0.00  0.00    -0.018 A 
ATOM      9  C   UNL A   1     -21.595  -0.380  29.098  0.00  0.00    -0.004 A 
ATOM     10  C   UNL A   1     -21.159   0.668  28.137  0.00  0.00    -0.000 A 
ATOM     11  C   UNL A   1     -22.007   1.460  27.428  0.00  0.00    -0.000 A 
ATOM     12  C   UNL A   1     -23.336   1.107  27.383  0.00  0.00    -0.000 A 
ATOM     13  C   UNL A   1     -23.828   0.028  28.076  0.00  0.00    -0.004 A 
ENDBRANCH   1   8
TORSDOF 2
ENDMDL
ENDMDL
