REMARK  Name = outputs/IAG933/test6/raw/output_4585_IAG933_linker_design_.xyz
REMARK  21 active torsions:
REMARK  status: ('A' for Active; 'I' for Inactive)
REMARK    1  A    between atoms: C_1  and  C_2
REMARK    2  A    between atoms: C_1  and  C_8
REMARK    3  A    between atoms: C_1  and  C_43
REMARK    4  A    between atoms: C_14  and  C_15
REMARK    5  A    between atoms: C_15  and  O_18
REMARK    6  A    between atoms: O_18  and  C_35
REMARK    7  A    between atoms: C_21  and  O_22
REMARK    8  A    between atoms: O_22  and  C_23
REMARK    9  A    between atoms: C_23  and  C_24
REMARK   10  A    between atoms: N_28  and  C_35
REMARK   11  A    between atoms: O_29  and  C_34
REMARK   12  A    between atoms: C_30  and  O_36
REMARK   13  A    between atoms: C_30  and  C_44
REMARK   14  A    between atoms: C_31  and  C_34
REMARK   15  A    between atoms: C_31  and  C_38
REMARK   16  A    between atoms: C_32  and  C_40
REMARK   17  A    between atoms: C_32  and  C_43
REMARK   18  A    between atoms: C_35  and  C_41
REMARK   19  A    between atoms: O_36  and  C_41
REMARK   20  A    between atoms: C_38  and  C_44
REMARK   21  A    between atoms: C_43  and  C_45
REMARK                            x       y       z     vdW  Elec       q    Type
REMARK                         _______ _______ _______ _____ _____    ______ ____
ROOT
ATOM      1  C   UNL A   1     -25.934   3.352  29.453  0.00  0.00    +0.380 C 
ATOM      2  O   UNL A   1     -25.523   3.995  30.437  0.00  0.00    -0.155 OA
ENDROOT
BRANCH   1   3
ATOM      3  N   UNL A   1     -25.579   1.973  29.535  0.00  0.00    -0.210 NA
ATOM      4  C   UNL A   1     -24.479   1.359  29.281  0.00  0.00    +0.073 C 
BRANCH   4   5
ATOM      5  C   UNL A   1     -24.111  -0.024  29.220  0.00  0.00    +0.058 C 
BRANCH   5   6
ATOM      6  C   UNL A   1     -24.855  -1.012  30.143  0.00  0.00    +0.044 C 
BRANCH   6   7
ATOM      7  C   UNL A   1     -24.973  -2.505  29.788  0.00  0.00    -0.021 C 
ATOM      8  C   UNL A   1     -23.906  -3.173  29.146  0.00  0.00    -0.004 C 
ATOM      9  C   UNL A   1     -23.989  -4.549  28.853  0.00  0.00    -0.000 C 
ATOM     10  C   UNL A   1     -25.137  -5.280  29.205  0.00  0.00    -0.000 C 
ATOM     11  C   UNL A   1     -26.232  -4.611  29.784  0.00  0.00    -0.000 C 
ATOM     12  C   UNL A   1     -26.155  -3.232  30.065  0.00  0.00    -0.004 C 
ENDBRANCH   6   7
BRANCH   6  13
ATOM     13  C   UNL A   1     -25.387  -0.679  31.571  0.00  0.00    +0.077 C 
ATOM     14  C   UNL A   1     -25.189   0.773  32.028  0.00  0.00    +0.019 C 
ATOM     15  C   UNL A   1     -25.336   0.684  33.544  0.00  0.00    +0.020 C 
ATOM     16  C   UNL A   1     -24.829  -0.715  33.905  0.00  0.00    +0.089 C 
ATOM     17  N   UNL A   1     -24.758  -1.481  32.646  0.00  0.00    -0.219 NA
ENDBRANCH   6  13
ENDBRANCH   5   6
BRANCH   5  18
ATOM     18  C   UNL A   1     -22.681  -0.013  29.091  0.00  0.00    +0.120 C 
BRANCH  18  20
ATOM     19  O   UNL A   1     -22.470   2.219  28.057  0.00  0.00    -0.246 OA
ATOM     20  C   UNL A   1     -22.011   1.135  28.552  0.00  0.00    +0.365 C 
ATOM     21  O   UNL A   1     -20.765   1.016  28.210  0.00  0.00    -0.246 OA
ENDBRANCH  18  20
ENDBRANCH   5  18
ENDBRANCH   4   5
ENDBRANCH   1   3
BRANCH   1  22
ATOM     22  C   UNL A   1     -27.534   3.197  29.643  0.00  0.00    +0.242 C 
BRANCH  22  23
ATOM     23  O   UNL A   1     -27.889   1.966  30.199  0.00  0.00    -0.346 OA
BRANCH  23  24
ATOM     24  C   UNL A   1     -29.140   1.541  30.596  0.00  0.00    +0.142 C 
BRANCH  24  25
ATOM     25  C   UNL A   1     -29.970   1.658  29.394  0.00  0.00    +0.033 C 
BRANCH  25  26
ATOM     26  C   UNL A   1     -29.905   1.587  28.157  0.00  0.00    +0.014 C 
BRANCH  26  27
ATOM     27  C   UNL A   1     -29.882   0.136  27.522  0.00  0.00    +0.110 C 
BRANCH  27  28
ATOM     28  C   UNL A   1     -29.422  -0.852  28.515  0.00  0.00    +0.317 C 
ATOM     29  O   UNL A   1     -28.285  -1.249  28.438  0.00  0.00    -0.250 OA
BRANCH  28  30
ATOM     30  O   UNL A   1     -30.293  -1.144  29.492  0.00  0.00    -0.444 OA
ATOM     31  C   UNL A   1     -29.925  -2.193  30.359  0.00  0.00    +0.256 C 
ENDBRANCH  28  30
ENDBRANCH  27  28
ENDBRANCH  26  27
ENDBRANCH  25  26
ENDBRANCH  24  25
ENDBRANCH  23  24
ENDBRANCH  22  23
ENDBRANCH   1  22
BRANCH   1  32
ATOM     32  O   UNL A   1     -25.143   3.966  28.243  0.00  0.00    -0.420 OA
BRANCH  32  33
ATOM     33  C   UNL A   1     -25.642   4.093  27.123  0.00  0.00    +0.226 C 
ATOM     34  N   UNL A   1     -25.614   5.252  26.449  0.00  0.00    -0.236 NA
ATOM     35  C   UNL A   1     -25.026   6.479  26.963  0.00  0.00    +0.155 C 
BRANCH  33  37
ATOM     36  C   UNL A   1     -25.688   1.614  26.461  0.00  0.00    +0.041 C 
ATOM     37  C   UNL A   1     -26.250   2.920  26.395  0.00  0.00    +0.074 C 
ATOM     38  C   UNL A   1     -27.438   3.091  25.645  0.00  0.00    +0.107 C 
ATOM     39  N   UNL A   1     -28.075   2.089  25.003  0.00  0.00    -0.208 NA
ATOM     40  C   UNL A   1     -27.543   0.849  25.079  0.00  0.00    +0.253 C 
ATOM     41  C   UNL A   1     -26.354   0.576  25.777  0.00  0.00    +0.193 C 
ATOM     42  F   UNL A   1     -25.860  -0.681  25.795  0.00  0.00    -0.199 F 
BRANCH  40  43
ATOM     43  O   UNL A   1     -28.193  -0.208  24.477  0.00  0.00    -0.456 OA
BRANCH  43  44
ATOM     44  C   UNL A   1     -29.460   0.005  23.866  0.00  0.00    +0.243 C 
BRANCH  44  45
ATOM     45  C   UNL A   1     -30.065  -1.377  23.573  0.00  0.00    +0.229 C 
ATOM     46  O   UNL A   1     -30.729  -1.878  24.721  0.00  0.00    -0.216 OA
ENDBRANCH  44  45
ENDBRANCH  43  44
ENDBRANCH  40  43
ENDBRANCH  33  37
ENDBRANCH  32  33
ENDBRANCH   1  32
TORSDOF 21
