MODEL 4585
MODEL 1
REMARK VINA RESULT:    -6.342      0.000      0.000
REMARK INTER + INTRA:          -7.865
REMARK INTER:                  -7.083
REMARK INTRA:                  -0.781
REMARK UNBOUND:                -0.781
REMARK  Name = No_4585-gen_results/8p0m/2024-11-27-11-27-31/
REMARK  2 active torsions:
REMARK  status: ('A' for Active; 'I' for Inactive)
REMARK    1  A    between atoms: C_4  and  C_5
REMARK    2  A    between atoms: C_8  and  C_9
REMARK                            x       y       z     vdW  Elec       q    Type
REMARK                         _______ _______ _______ _____ _____    ______ ____
ROOT
ATOM      1  C   UNL A   1     -25.020  -0.170  29.550  0.00  0.00    -0.020 C 
ATOM      2  C   UNL A   1     -25.306  -1.033  28.671  0.00  0.00    -0.004 C 
ATOM      3  C   UNL A   1     -25.056   1.276  29.354  0.00  0.00    +0.031 C 
ENDROOT
BRANCH   1   7
ATOM      4  C   UNL A   1     -22.746  -1.241  32.301  0.00  0.00    +0.030 A 
ATOM      5  C   UNL A   1     -23.421  -1.197  33.110  0.00  0.00    +0.002 A 
ATOM      6  C   UNL A   1     -23.256  -0.822  31.027  0.00  0.00    +0.140 A 
ATOM      7  C   UNL A   1     -24.545  -0.547  30.812  0.00  0.00    +0.024 A 
ATOM      8  C   UNL A   1     -24.837  -0.933  33.172  0.00  0.00    +0.000 A 
ATOM      9  C   UNL A   1     -25.361  -0.557  31.921  0.00  0.00    +0.002 A 
ATOM     10  F   UNL A   1     -22.208  -0.736  30.122  0.00  0.00    -0.204 F 
ENDBRANCH   1   7
BRANCH   2  11
ATOM     11  C   UNL A   1     -25.237  -2.453  29.005  0.00  0.00    -0.000 A 
ATOM     12  C   UNL A   1     -24.061  -3.110  28.456  0.00  0.00    -0.000 A 
ATOM     13  C   UNL A   1     -24.066  -4.561  28.622  0.00  0.00    -0.000 A 
ATOM     14  C   UNL A   1     -25.134  -5.235  29.335  0.00  0.00    -0.000 A 
ATOM     15  C   UNL A   1     -26.232  -4.493  29.762  0.00  0.00    -0.000 A 
ATOM     16  C   UNL A   1     -26.286  -3.167  29.493  0.00  0.00    -0.000 A 
ENDBRANCH   2  11
TORSDOF 2
ENDMDL
ENDMDL
