MODEL 4586
MODEL 1
REMARK VINA RESULT:    -7.196      0.000      0.000
REMARK INTER + INTRA:          -9.030
REMARK INTER:                  -8.458
REMARK INTRA:                  -0.573
REMARK UNBOUND:                -0.573
REMARK  Name = No_4586-gen_results/8p0m/2024-11-27-11-27-31/
REMARK  3 active torsions:
REMARK  status: ('A' for Active; 'I' for Inactive)
REMARK    1  A    between atoms: C_3  and  C_4
REMARK    2  A    between atoms: C_10  and  C_13
REMARK    3  A    between atoms: N_14  and  C_16
REMARK                            x       y       z     vdW  Elec       q    Type
REMARK                         _______ _______ _______ _____ _____    ______ ____
ROOT
ATOM      1  C   UNL A   1     -10.599   1.297  36.687  0.00  0.00    +0.005 A 
ATOM      2  C   UNL A   1     -11.635   1.781  37.081  0.00  0.00    +0.000 A 
ATOM      3  C   UNL A   1     -12.596   2.244  36.188  0.00  0.00    +0.000 A 
ATOM      4  C   UNL A   1     -10.189   1.361  35.287  0.00  0.00    +0.055 A 
ATOM      5  C   UNL A   1     -11.114   1.704  34.322  0.00  0.00    +0.005 A 
ATOM      6  C   UNL A   1     -12.340   2.225  34.755  0.00  0.00    +0.000 A 
ENDROOT
BRANCH   3   7
ATOM      7  C   UNL A   1     -13.902   2.868  36.546  0.00  0.00    +0.000 A 
ATOM      8  C   UNL A   1     -14.211   2.913  37.938  0.00  0.00    +0.000 A 
ATOM      9  C   UNL A   1     -15.429   3.435  38.371  0.00  0.00    +0.000 A 
ATOM     10  C   UNL A   1     -16.378   3.761  37.379  0.00  0.00    +0.000 A 
ATOM     11  C   UNL A   1     -16.100   3.704  36.044  0.00  0.00    +0.000 A 
ATOM     12  C   UNL A   1     -14.825   3.195  35.590  0.00  0.00    +0.000 A 
ENDBRANCH   3   7
BRANCH   4  13
ATOM     13  C   UNL A   1      -8.898   0.826  34.819  0.00  0.00    +0.269 C 
ATOM     14  N   UNL A   1      -8.283  -0.082  35.549  0.00  0.00    -0.175 NA
ATOM     15  O   UNL A   1      -8.311   1.303  33.817  0.00  0.00    -0.268 OA
BRANCH  14  16
ATOM     16  C   UNL A   1      -7.011  -0.652  35.155  0.00  0.00    +0.074 A 
ATOM     17  C   UNL A   1      -6.979  -1.668  34.587  0.00  0.00    +0.017 A 
ATOM     18  C   UNL A   1      -5.768  -2.290  34.182  0.00  0.00    +0.001 A 
ATOM     19  C   UNL A   1      -4.572  -1.594  34.484  0.00  0.00    +0.000 A 
ATOM     20  C   UNL A   1      -4.644  -0.384  35.139  0.00  0.00    +0.001 A 
ATOM     21  C   UNL A   1      -5.836   0.127  35.534  0.00  0.00    +0.017 A 
ENDBRANCH  14  16
ENDBRANCH   4  13
TORSDOF 3
ENDMDL
ENDMDL
