REMARK  Name = outputs/IAG933/test6/raw/output_4586_IAG933_linker_design_.xyz
REMARK  13 active torsions:
REMARK  status: ('A' for Active; 'I' for Inactive)
REMARK    1  A    between atoms: C_1  and  C_2
REMARK    2  A    between atoms: C_1  and  C_8
REMARK    3  A    between atoms: C_1  and  C_36
REMARK    4  A    between atoms: C_13  and  C_35
REMARK    5  A    between atoms: C_14  and  C_15
REMARK    6  A    between atoms: C_21  and  O_22
REMARK    7  A    between atoms: O_22  and  C_23
REMARK    8  A    between atoms: C_23  and  C_24
REMARK    9  A    between atoms: C_33  and  C_36
REMARK   10  A    between atoms: C_33  and  N_40
REMARK   11  A    between atoms: C_35  and  C_36
REMARK   12  A    between atoms: C_35  and  N_39
REMARK   13  A    between atoms: N_40  and  N_43
REMARK                            x       y       z     vdW  Elec       q    Type
REMARK                         _______ _______ _______ _____ _____    ______ ____
ROOT
ATOM      1  C   UNL A   1     -25.199   0.052  28.939  0.00  0.00    +0.040 C 
ENDROOT
BRANCH   1   2
ATOM      2  C   UNL A   1     -24.855  -1.012  30.143  0.00  0.00    +0.041 C 
BRANCH   2   3
ATOM      3  C   UNL A   1     -24.973  -2.505  29.788  0.00  0.00    -0.021 C 
ATOM      4  C   UNL A   1     -23.906  -3.173  29.146  0.00  0.00    -0.004 C 
ATOM      5  C   UNL A   1     -23.989  -4.549  28.853  0.00  0.00    -0.000 C 
ATOM      6  C   UNL A   1     -25.137  -5.280  29.205  0.00  0.00    -0.000 C 
ATOM      7  C   UNL A   1     -26.232  -4.611  29.784  0.00  0.00    -0.000 C 
ATOM      8  C   UNL A   1     -26.155  -3.232  30.065  0.00  0.00    -0.004 C 
ENDBRANCH   2   3
BRANCH   2   9
ATOM      9  C   UNL A   1     -25.387  -0.679  31.571  0.00  0.00    +0.077 C 
ATOM     10  C   UNL A   1     -25.189   0.773  32.028  0.00  0.00    +0.019 C 
ATOM     11  C   UNL A   1     -25.336   0.684  33.544  0.00  0.00    +0.020 C 
ATOM     12  C   UNL A   1     -24.829  -0.715  33.905  0.00  0.00    +0.089 C 
ATOM     13  N   UNL A   1     -24.758  -1.481  32.646  0.00  0.00    -0.219 NA
ENDBRANCH   2   9
ENDBRANCH   1   2
BRANCH   1  14
ATOM     14  C   UNL A   1     -26.354  -0.665  28.161  0.00  0.00    +0.112 C 
BRANCH  14  15
ATOM     15  N   UNL A   1     -27.834  -0.494  27.983  0.00  0.00    -0.121 NA
BRANCH  15  22
ATOM     16  O   UNL A   1     -28.491  -0.925  30.031  0.00  0.00    -0.264 OA
ATOM     17  N   UNL A   1     -30.895   0.320  29.206  0.00  0.00    -0.252 NA
ATOM     18  C   UNL A   1     -29.697   0.498  28.378  0.00  0.00    +0.196 C 
ATOM     19  C   UNL A   1     -29.844  -1.597  30.278  0.00  0.00    +0.186 C 
ATOM     20  C   UNL A   1     -31.904  -0.568  28.691  0.00  0.00    +0.091 C 
ATOM     21  C   UNL A   1     -30.790  -0.397  30.487  0.00  0.00    +0.108 C 
ATOM     22  N   UNL A   1     -28.491  -0.200  28.930  0.00  0.00    -0.075 NA
ENDBRANCH  15  22
ENDBRANCH  14  15
ENDBRANCH   1  14
BRANCH   1  23
ATOM     23  C   UNL A   1     -24.796   1.053  27.626  0.00  0.00    +0.067 C 
BRANCH  23  24
ATOM     24  C   UNL A   1     -25.688   1.614  26.461  0.00  0.00    +0.085 C 
ATOM     25  C   UNL A   1     -26.250   2.920  26.395  0.00  0.00    +0.056 C 
ATOM     26  C   UNL A   1     -27.438   3.091  25.645  0.00  0.00    +0.102 C 
ATOM     27  N   UNL A   1     -28.075   2.089  25.003  0.00  0.00    -0.212 NA
ATOM     28  C   UNL A   1     -27.543   0.849  25.079  0.00  0.00    +0.234 C 
ATOM     29  C   UNL A   1     -26.354   0.576  25.777  0.00  0.00    +0.241 C 
ATOM     30  F   UNL A   1     -25.860  -0.681  25.795  0.00  0.00    -0.227 F 
BRANCH  25  31
ATOM     31  C   UNL A   1     -25.642   4.093  27.123  0.00  0.00    +0.263 C 
ATOM     32  N   UNL A   1     -25.614   5.252  26.449  0.00  0.00    -0.200 NA
ATOM     33  C   UNL A   1     -25.026   6.479  26.963  0.00  0.00    +0.139 C 
ATOM     34  O   UNL A   1     -25.143   3.966  28.243  0.00  0.00    -0.269 OA
ENDBRANCH  25  31
BRANCH  28  35
ATOM     35  O   UNL A   1     -28.193  -0.208  24.477  0.00  0.00    -0.459 OA
BRANCH  35  36
ATOM     36  C   UNL A   1     -29.460   0.005  23.866  0.00  0.00    +0.242 C 
BRANCH  36  37
ATOM     37  C   UNL A   1     -30.065  -1.377  23.573  0.00  0.00    +0.229 C 
ATOM     38  O   UNL A   1     -30.729  -1.878  24.721  0.00  0.00    -0.216 OA
ENDBRANCH  36  37
ENDBRANCH  35  36
ENDBRANCH  28  35
ENDBRANCH  23  24
BRANCH  23  41
ATOM     39  C   UNL A   1     -22.382   1.106  27.878  0.00  0.00    +0.059 C 
ATOM     40  C   UNL A   1     -22.677   0.291  29.122  0.00  0.00    +0.017 C 
ATOM     41  N   UNL A   1     -23.515   1.130  26.914  0.00  0.00    -0.275 NA
ATOM     42  C   UNL A   1     -22.762   2.032  26.047  0.00  0.00    +0.073 C 
ATOM     43  C   UNL A   1     -21.629   2.151  27.097  0.00  0.00    +0.033 C 
ENDBRANCH  23  41
ENDBRANCH   1  23
TORSDOF 13
