REMARK  Name = outputs/IAG933/test6/raw/output_4587_IAG933_linker_design_.xyz
REMARK  12 active torsions:
REMARK  status: ('A' for Active; 'I' for Inactive)
REMARK    1  A    between atoms: C_1  and  C_2
REMARK    2  A    between atoms: C_1  and  C_8
REMARK    3  A    between atoms: C_9  and  C_41
REMARK    4  A    between atoms: C_13  and  C_37
REMARK    5  A    between atoms: C_14  and  C_15
REMARK    6  A    between atoms: C_21  and  O_22
REMARK    7  A    between atoms: O_22  and  C_23
REMARK    8  A    between atoms: C_23  and  C_24
REMARK    9  A    between atoms: N_29  and  C_41
REMARK   10  A    between atoms: C_36  and  C_40
REMARK   11  A    between atoms: O_38  and  C_40
REMARK   12  A    between atoms: O_38  and  C_41
REMARK                            x       y       z     vdW  Elec       q    Type
REMARK                         _______ _______ _______ _____ _____    ______ ____
ROOT
ATOM      1  F   UNL A   1     -20.859   2.268  28.234  0.00  0.00    -0.228 F 
ATOM      2  N   UNL A   1     -23.966   0.997  29.630  0.00  0.00    -0.254 N 
ATOM      3  C   UNL A   1     -23.546   1.272  26.517  0.00  0.00    +0.015 C 
ATOM      4  F   UNL A   1     -21.282   1.654  25.916  0.00  0.00    -0.206 F 
ATOM      5  C   UNL A   1     -24.886   0.753  28.651  0.00  0.00    +0.235 C 
ATOM      6  C   UNL A   1     -22.238   1.457  26.848  0.00  0.00    +0.148 C 
ATOM      7  O   UNL A   1     -25.959   0.078  28.812  0.00  0.00    -0.274 OA
ATOM      8  C   UNL A   1     -24.647   1.204  27.277  0.00  0.00    +0.125 C 
ATOM      9  C   UNL A   1     -22.706   1.159  29.340  0.00  0.00    +0.138 C 
ATOM     10  C   UNL A   1     -21.988   1.593  28.223  0.00  0.00    +0.230 C 
ENDROOT
BRANCH   8  11
ATOM     11  C   UNL A   1     -25.688   1.614  26.461  0.00  0.00    +0.028 C 
ATOM     12  C   UNL A   1     -26.250   2.920  26.395  0.00  0.00    +0.073 C 
ATOM     13  C   UNL A   1     -27.438   3.091  25.645  0.00  0.00    +0.106 C 
ATOM     14  N   UNL A   1     -28.075   2.089  25.003  0.00  0.00    -0.208 NA
ATOM     15  C   UNL A   1     -27.543   0.849  25.079  0.00  0.00    +0.253 C 
ATOM     16  C   UNL A   1     -26.354   0.576  25.777  0.00  0.00    +0.190 C 
ATOM     17  F   UNL A   1     -25.860  -0.681  25.795  0.00  0.00    -0.200 F 
BRANCH  12  18
ATOM     18  C   UNL A   1     -25.642   4.093  27.123  0.00  0.00    +0.266 C 
ATOM     19  N   UNL A   1     -25.614   5.252  26.449  0.00  0.00    -0.200 NA
ATOM     20  C   UNL A   1     -25.026   6.479  26.963  0.00  0.00    +0.139 C 
ATOM     21  O   UNL A   1     -25.143   3.966  28.243  0.00  0.00    -0.268 OA
ENDBRANCH  12  18
BRANCH  15  22
ATOM     22  O   UNL A   1     -28.193  -0.208  24.477  0.00  0.00    -0.456 OA
BRANCH  22  23
ATOM     23  C   UNL A   1     -29.460   0.005  23.866  0.00  0.00    +0.243 C 
BRANCH  23  24
ATOM     24  C   UNL A   1     -30.065  -1.377  23.573  0.00  0.00    +0.229 C 
ATOM     25  O   UNL A   1     -30.729  -1.878  24.721  0.00  0.00    -0.216 OA
ENDBRANCH  23  24
ENDBRANCH  22  23
ENDBRANCH  15  22
ENDBRANCH   8  11
BRANCH   2  26
ATOM     26  C   UNL A   1     -24.295   1.358  30.992  0.00  0.00    +0.196 C 
BRANCH  26  28
ATOM     27  C   UNL A   1     -25.387  -0.679  31.571  0.00  0.00    +0.081 C 
ATOM     28  C   UNL A   1     -25.189   0.773  32.028  0.00  0.00    +0.065 C 
ATOM     29  C   UNL A   1     -25.336   0.684  33.544  0.00  0.00    +0.024 C 
ATOM     30  C   UNL A   1     -24.829  -0.715  33.905  0.00  0.00    +0.089 C 
ATOM     31  N   UNL A   1     -24.758  -1.481  32.646  0.00  0.00    -0.219 NA
BRANCH  27  32
ATOM     32  C   UNL A   1     -24.855  -1.012  30.143  0.00  0.00    +0.044 C 
BRANCH  32  33
ATOM     33  C   UNL A   1     -24.973  -2.505  29.788  0.00  0.00    -0.021 C 
ATOM     34  C   UNL A   1     -23.906  -3.173  29.146  0.00  0.00    -0.004 C 
ATOM     35  C   UNL A   1     -23.989  -4.549  28.853  0.00  0.00    -0.000 C 
ATOM     36  C   UNL A   1     -25.137  -5.280  29.205  0.00  0.00    -0.000 C 
ATOM     37  C   UNL A   1     -26.232  -4.611  29.784  0.00  0.00    -0.000 C 
ATOM     38  C   UNL A   1     -26.155  -3.232  30.065  0.00  0.00    -0.004 C 
ENDBRANCH  32  33
ENDBRANCH  27  32
ENDBRANCH  26  28
BRANCH  26  39
ATOM     39  O   UNL A   1     -24.652   2.761  30.892  0.00  0.00    -0.336 OA
BRANCH  39  40
ATOM     40  C   UNL A   1     -24.934   3.492  31.891  0.00  0.00    +0.165 C 
BRANCH  40  42
ATOM     41  N   UNL A   1     -25.772   5.138  32.828  0.00  0.00    -0.129 NA
ATOM     42  C   UNL A   1     -25.485   3.795  33.182  0.00  0.00    +0.141 C 
ENDBRANCH  40  42
ENDBRANCH  39  40
ENDBRANCH  26  39
ENDBRANCH   2  26
TORSDOF 12
