MODEL 4588
MODEL 1
REMARK VINA RESULT:    -6.343      0.000      0.000
REMARK INTER + INTRA:          -6.843
REMARK INTER:                  -6.713
REMARK INTRA:                  -0.130
REMARK UNBOUND:                -0.130
REMARK  Name = No_4588-gen_results/8p0m/2024-11-27-11-27-31/
REMARK  1 active torsions:
REMARK  status: ('A' for Active; 'I' for Inactive)
REMARK    1  A    between atoms: C_3  and  C_5
REMARK                            x       y       z     vdW  Elec       q    Type
REMARK                         _______ _______ _______ _____ _____    ______ ____
ROOT
ATOM      1  O   UNL A   1     -26.266  -1.403  30.420  0.00  0.00    -0.273 OA
ATOM      2  C   UNL A   1     -25.530  -2.297  29.985  0.00  0.00    +0.245 C 
ATOM      3  C   UNL A   1     -24.632  -2.426  29.478  0.00  0.00    +0.100 C 
ATOM      4  N   UNL A   1     -26.338  -3.696  30.018  0.00  0.00    -0.205 NA
ATOM      5  C   UNL A   1     -25.891  -4.805  29.406  0.00  0.00    +0.115 C 
ATOM      6  C   UNL A   1     -24.668  -4.791  28.863  0.00  0.00    +0.024 C 
ATOM      7  C   UNL A   1     -23.925  -3.718  28.837  0.00  0.00    +0.015 C 
ENDROOT
BRANCH   3   8
ATOM      8  C   UNL A   1     -23.617  -1.401  29.416  0.00  0.00    -0.026 C 
ATOM      9  C   UNL A   1     -23.525  -0.395  28.466  0.00  0.00    -0.048 C 
ATOM     10  C   UNL A   1     -22.667   0.696  28.488  0.00  0.00    +0.022 C 
ATOM     11  C   UNL A   1     -22.560   1.602  27.422  0.00  0.00    +0.004 C 
ATOM     12  C   UNL A   1     -23.646   1.543  26.445  0.00  0.00    +0.001 C 
ATOM     13  C   UNL A   1     -24.605   0.611  26.465  0.00  0.00    +0.004 C 
ATOM     14  C   UNL A   1     -24.612  -0.389  27.454  0.00  0.00    +0.022 C 
ENDBRANCH   3   8
TORSDOF 1
ENDMDL
ENDMDL
