REMARK  Name = outputs/IAG933/test6/raw/output_459_IAG933_linker_design_.xyz
REMARK  16 active torsions:
REMARK  status: ('A' for Active; 'I' for Inactive)
REMARK    1  A    between atoms: C_1  and  C_2
REMARK    2  A    between atoms: C_1  and  C_8
REMARK    3  A    between atoms: C_1  and  N_34
REMARK    4  A    between atoms: C_13  and  C_40
REMARK    5  A    between atoms: C_14  and  C_15
REMARK    6  A    between atoms: C_21  and  O_22
REMARK    7  A    between atoms: O_22  and  C_23
REMARK    8  A    between atoms: C_23  and  C_24
REMARK    9  A    between atoms: C_30  and  O_38
REMARK   10  A    between atoms: C_30  and  C_44
REMARK   11  A    between atoms: N_34  and  C_41
REMARK   12  A    between atoms: O_38  and  C_40
REMARK   13  A    between atoms: C_40  and  C_41
REMARK   14  A    between atoms: C_41  and  N_45
REMARK   15  A    between atoms: C_42  and  C_43
REMARK   16  A    between atoms: C_42  and  C_46
REMARK                            x       y       z     vdW  Elec       q    Type
REMARK                         _______ _______ _______ _____ _____    ______ ____
ROOT
ATOM      1  C   UNL A   1     -25.759   0.504  28.576  0.00  0.00    +0.196 C 
ENDROOT
BRANCH   1   4
ATOM      2  O   UNL A   1     -28.681  -0.401  27.803  0.00  0.00    -0.273 OA
ATOM      3  C   UNL A   1     -28.293   0.291  28.668  0.00  0.00    +0.244 C 
ATOM      4  N   UNL A   1     -27.118   0.556  28.880  0.00  0.00    -0.187 NA
BRANCH   3  10
ATOM      5  C   UNL A   1     -30.728   3.143  29.503  0.00  0.00    +0.001 C 
ATOM      6  C   UNL A   1     -30.426   1.830  28.801  0.00  0.00    +0.011 C 
ATOM      7  C   UNL A   1     -28.910   3.113  30.979  0.00  0.00    +0.001 C 
ATOM      8  C   UNL A   1     -28.518   1.778  30.457  0.00  0.00    +0.011 C 
ATOM      9  C   UNL A   1     -30.413   3.107  30.958  0.00  0.00    +0.000 C 
ATOM     10  C   UNL A   1     -29.311   1.038  29.500  0.00  0.00    +0.101 C 
BRANCH  10  12
ATOM     11  O   UNL A   1     -31.213   0.200  30.832  0.00  0.00    -0.220 OA
ATOM     12  C   UNL A   1     -29.974  -0.146  30.292  0.00  0.00    +0.191 C 
ENDBRANCH  10  12
ENDBRANCH   3  10
ENDBRANCH   1   4
BRANCH   1  13
ATOM     13  N   UNL A   1     -25.073  -0.278  28.939  0.00  0.00    -0.192 NA
BRANCH  13  14
ATOM     14  C   UNL A   1     -24.855  -1.012  30.143  0.00  0.00    +0.113 C 
BRANCH  14  15
ATOM     15  C   UNL A   1     -24.973  -2.505  29.788  0.00  0.00    -0.005 C 
ATOM     16  C   UNL A   1     -23.906  -3.173  29.146  0.00  0.00    -0.003 C 
ATOM     17  C   UNL A   1     -23.989  -4.549  28.853  0.00  0.00    -0.000 C 
ATOM     18  C   UNL A   1     -25.137  -5.280  29.205  0.00  0.00    -0.000 C 
ATOM     19  C   UNL A   1     -26.232  -4.611  29.784  0.00  0.00    -0.000 C 
ATOM     20  C   UNL A   1     -26.155  -3.232  30.065  0.00  0.00    -0.003 C 
ENDBRANCH  14  15
BRANCH  14  21
ATOM     21  C   UNL A   1     -25.387  -0.679  31.571  0.00  0.00    +0.093 C 
ATOM     22  C   UNL A   1     -25.189   0.773  32.028  0.00  0.00    +0.021 C 
ATOM     23  C   UNL A   1     -25.336   0.684  33.544  0.00  0.00    +0.020 C 
ATOM     24  C   UNL A   1     -24.829  -0.715  33.905  0.00  0.00    +0.089 C 
ATOM     25  N   UNL A   1     -24.758  -1.481  32.646  0.00  0.00    -0.218 NA
ENDBRANCH  14  21
ENDBRANCH  13  14
ENDBRANCH   1  13
BRANCH   1  26
ATOM     26  C   UNL A   1     -24.839   1.275  27.660  0.00  0.00    +0.161 C 
BRANCH  26  27
ATOM     27  C   UNL A   1     -25.688   1.614  26.461  0.00  0.00    +0.101 C 
ATOM     28  C   UNL A   1     -26.250   2.920  26.395  0.00  0.00    +0.057 C 
ATOM     29  C   UNL A   1     -27.438   3.091  25.645  0.00  0.00    +0.102 C 
ATOM     30  N   UNL A   1     -28.075   2.089  25.003  0.00  0.00    -0.212 NA
ATOM     31  C   UNL A   1     -27.543   0.849  25.079  0.00  0.00    +0.234 C 
ATOM     32  C   UNL A   1     -26.354   0.576  25.777  0.00  0.00    +0.242 C 
ATOM     33  F   UNL A   1     -25.860  -0.681  25.795  0.00  0.00    -0.227 F 
BRANCH  28  34
ATOM     34  C   UNL A   1     -25.642   4.093  27.123  0.00  0.00    +0.263 C 
ATOM     35  N   UNL A   1     -25.614   5.252  26.449  0.00  0.00    -0.200 NA
ATOM     36  C   UNL A   1     -25.026   6.479  26.963  0.00  0.00    +0.139 C 
ATOM     37  O   UNL A   1     -25.143   3.966  28.243  0.00  0.00    -0.269 OA
ENDBRANCH  28  34
BRANCH  31  38
ATOM     38  O   UNL A   1     -28.193  -0.208  24.477  0.00  0.00    -0.459 OA
BRANCH  38  39
ATOM     39  C   UNL A   1     -29.460   0.005  23.866  0.00  0.00    +0.242 C 
BRANCH  39  40
ATOM     40  C   UNL A   1     -30.065  -1.377  23.573  0.00  0.00    +0.229 C 
ATOM     41  O   UNL A   1     -30.729  -1.878  24.721  0.00  0.00    -0.216 OA
ENDBRANCH  39  40
ENDBRANCH  38  39
ENDBRANCH  31  38
ENDBRANCH  26  27
BRANCH  26  42
ATOM     42  O   UNL A   1     -23.488   1.040  27.246  0.00  0.00    -0.335 OA
BRANCH  42  43
ATOM     43  C   UNL A   1     -22.537   0.765  28.274  0.00  0.00    +0.240 C 
ATOM     44  N   UNL A   1     -22.871   1.042  29.664  0.00  0.00    -0.097 NA
BRANCH  43  46
ATOM     45  O   UNL A   1     -21.391   2.029  26.510  0.00  0.00    -0.216 OA
ATOM     46  C   UNL A   1     -21.314   1.531  27.818  0.00  0.00    +0.231 C 
ENDBRANCH  43  46
ENDBRANCH  42  43
ENDBRANCH  26  42
ENDBRANCH   1  26
TORSDOF 16
