MODEL 4590
MODEL 1
REMARK VINA RESULT:    -6.950      0.000      0.000
REMARK INTER + INTRA:         -12.277
REMARK INTER:                  -9.387
REMARK INTRA:                  -2.890
REMARK UNBOUND:                -2.890
REMARK  Name = No_4590-gen_results/8p0m/2024-11-27-11-27-31/
REMARK  6 active torsions:
REMARK  status: ('A' for Active; 'I' for Inactive)
REMARK    1  A    between atoms: C_3  and  C_4
REMARK    2  A    between atoms: C_10  and  C_13
REMARK    3  A    between atoms: N_15  and  C_17
REMARK    4  A    between atoms: C_17  and  C_18
REMARK    5  A    between atoms: N_19  and  C_20
REMARK    6  A    between atoms: C_20  and  C_21
REMARK                            x       y       z     vdW  Elec       q    Type
REMARK                         _______ _______ _______ _____ _____    ______ ____
ROOT
ATOM      1  C   UNL A   1     -23.718  -1.521  28.589  0.00  0.00    +0.000 A 
ATOM      2  C   UNL A   1     -22.579  -1.154  29.262  0.00  0.00    +0.000 A 
ATOM      3  C   UNL A   1     -24.296  -0.512  27.660  0.00  0.00    +0.008 A 
ATOM      4  C   UNL A   1     -23.620   0.719  27.469  0.00  0.00    +0.090 A 
ATOM      5  C   UNL A   1     -22.441   0.978  28.170  0.00  0.00    +0.008 A 
ATOM      6  C   UNL A   1     -21.849   0.031  28.986  0.00  0.00    +0.000 A 
ENDROOT
BRANCH   1   9
ATOM      7  C   UNL A   1     -24.757  -4.993  28.922  0.00  0.00    +0.001 A 
ATOM      8  C   UNL A   1     -24.064  -4.015  28.763  0.00  0.00    +0.000 A 
ATOM      9  C   UNL A   1     -24.502  -2.704  28.853  0.00  0.00    +0.001 A 
ATOM     10  C   UNL A   1     -25.951  -4.849  29.654  0.00  0.00    +0.011 A 
ATOM     11  C   UNL A   1     -26.459  -3.621  29.883  0.00  0.00    +0.058 A 
ATOM     12  C   UNL A   1     -25.711  -2.484  29.504  0.00  0.00    +0.011 A 
ATOM     13 CL   UNL A   1     -27.954  -3.581  30.681  0.00  0.00    -0.082 Cl
ENDBRANCH   1   9
BRANCH   4  14
ATOM     14  C   UNL A   1     -24.116   1.730  26.559  0.00  0.00    +0.413 C 
ATOM     15  N   UNL A   1     -23.645   2.418  25.909  0.00  0.00    +0.197 NA
ATOM     16  N   UNL A   1     -25.577   1.744  26.549  0.00  0.00    -0.021 NA
BRANCH  16  17
ATOM     17  C   UNL A   1     -26.557   2.339  27.042  0.00  0.00    +0.298 C 
BRANCH  17  18
ATOM     18  C   UNL A   1     -26.466   3.146  28.174  0.00  0.00    +0.122 C 
ATOM     19  N   UNL A   1     -26.789   2.805  29.393  0.00  0.00    -0.264 NA
BRANCH  19  20
ATOM     20  C   UNL A   1     -27.194   1.510  29.578  0.00  0.00    +0.152 C 
BRANCH  20  21
ATOM     21  C   UNL A   1     -26.455   0.885  30.752  0.00  0.00    +0.002 A 
ATOM     22  C   UNL A   1     -25.067   1.085  30.851  0.00  0.00    -0.002 A 
ATOM     23  C   UNL A   1     -24.325   0.517  31.906  0.00  0.00    -0.000 A 
ATOM     24  C   UNL A   1     -24.980  -0.280  32.821  0.00  0.00    -0.000 A 
ATOM     25  C   UNL A   1     -26.315  -0.466  32.749  0.00  0.00    -0.000 A 
ATOM     26  C   UNL A   1     -27.043   0.076  31.709  0.00  0.00    -0.002 A 
ENDBRANCH  20  21
ENDBRANCH  19  20
ENDBRANCH  17  18
ENDBRANCH  16  17
ENDBRANCH   4  14
TORSDOF 6
ENDMDL
ENDMDL
