REMARK  Name = outputs/IAG933/test6/raw/output_4591_IAG933_linker_design_.xyz
REMARK  11 active torsions:
REMARK  status: ('A' for Active; 'I' for Inactive)
REMARK    1  A    between atoms: C_1  and  C_2
REMARK    2  A    between atoms: C_1  and  C_8
REMARK    3  A    between atoms: C_1  and  N_38
REMARK    4  A    between atoms: C_13  and  C_32
REMARK    5  A    between atoms: C_14  and  C_15
REMARK    6  A    between atoms: C_21  and  O_22
REMARK    7  A    between atoms: O_22  and  C_23
REMARK    8  A    between atoms: C_23  and  C_24
REMARK    9  A    between atoms: C_28  and  N_38
REMARK   10  A    between atoms: C_33  and  C_36
REMARK   11  A    between atoms: N_34  and  C_36
REMARK                            x       y       z     vdW  Elec       q    Type
REMARK                         _______ _______ _______ _____ _____    ______ ____
ROOT
ATOM      1  C   UNL A   1     -24.283   0.595  28.392  0.00  0.00    +0.111 C 
ATOM      2  C   UNL A   1     -21.737   0.794  28.886  0.00  0.00    -0.003 C 
ATOM      3  O   UNL A   1     -23.302   2.393  25.171  0.00  0.00    -0.291 OA
ATOM      4  C   UNL A   1     -23.026   1.839  26.240  0.00  0.00    +0.179 C 
ATOM      5  C   UNL A   1     -24.299   1.404  27.085  0.00  0.00    +0.109 C 
ATOM      6  C   UNL A   1     -21.565   1.720  26.520  0.00  0.00    +0.038 C 
ATOM      7  C   UNL A   1     -23.106   0.558  29.202  0.00  0.00    -0.006 C 
ATOM      8  C   UNL A   1     -21.010   1.226  27.741  0.00  0.00    +0.003 C 
ENDROOT
BRANCH   5   9
ATOM      9  C   UNL A   1     -25.688   1.614  26.461  0.00  0.00    +0.025 C 
ATOM     10  C   UNL A   1     -26.250   2.920  26.395  0.00  0.00    +0.073 C 
ATOM     11  C   UNL A   1     -27.438   3.091  25.645  0.00  0.00    +0.106 C 
ATOM     12  N   UNL A   1     -28.075   2.089  25.003  0.00  0.00    -0.208 NA
ATOM     13  C   UNL A   1     -27.543   0.849  25.079  0.00  0.00    +0.253 C 
ATOM     14  C   UNL A   1     -26.354   0.576  25.777  0.00  0.00    +0.190 C 
ATOM     15  F   UNL A   1     -25.860  -0.681  25.795  0.00  0.00    -0.200 F 
BRANCH  10  16
ATOM     16  C   UNL A   1     -25.642   4.093  27.123  0.00  0.00    +0.266 C 
ATOM     17  N   UNL A   1     -25.614   5.252  26.449  0.00  0.00    -0.200 NA
ATOM     18  C   UNL A   1     -25.026   6.479  26.963  0.00  0.00    +0.139 C 
ATOM     19  O   UNL A   1     -25.143   3.966  28.243  0.00  0.00    -0.268 OA
ENDBRANCH  10  16
BRANCH  13  20
ATOM     20  O   UNL A   1     -28.193  -0.208  24.477  0.00  0.00    -0.456 OA
BRANCH  20  21
ATOM     21  C   UNL A   1     -29.460   0.005  23.866  0.00  0.00    +0.243 C 
BRANCH  21  22
ATOM     22  C   UNL A   1     -30.065  -1.377  23.573  0.00  0.00    +0.229 C 
ATOM     23  O   UNL A   1     -30.729  -1.878  24.721  0.00  0.00    -0.216 OA
ENDBRANCH  21  22
ENDBRANCH  20  21
ENDBRANCH  13  20
ENDBRANCH   5   9
BRANCH   1  25
ATOM     24  N   UNL A   1     -26.590   1.914  29.660  0.00  0.00    -0.178 NA
ATOM     25  N   UNL A   1     -25.285   0.004  29.190  0.00  0.00    -0.257 N 
ATOM     26  C   UNL A   1     -26.532   0.609  29.257  0.00  0.00    +0.324 C 
ATOM     27  O   UNL A   1     -27.488  -0.056  28.899  0.00  0.00    -0.251 OA
BRANCH  25  28
ATOM     28  C   UNL A   1     -24.855  -1.012  30.143  0.00  0.00    +0.116 C 
BRANCH  28  29
ATOM     29  C   UNL A   1     -24.973  -2.505  29.788  0.00  0.00    -0.003 C 
ATOM     30  C   UNL A   1     -23.906  -3.173  29.146  0.00  0.00    -0.003 C 
ATOM     31  C   UNL A   1     -23.989  -4.549  28.853  0.00  0.00    -0.000 C 
ATOM     32  C   UNL A   1     -25.137  -5.280  29.205  0.00  0.00    -0.000 C 
ATOM     33  C   UNL A   1     -26.232  -4.611  29.784  0.00  0.00    -0.000 C 
ATOM     34  C   UNL A   1     -26.155  -3.232  30.065  0.00  0.00    -0.003 C 
ENDBRANCH  28  29
BRANCH  28  35
ATOM     35  C   UNL A   1     -25.387  -0.679  31.571  0.00  0.00    +0.095 C 
ATOM     36  C   UNL A   1     -25.189   0.773  32.028  0.00  0.00    +0.021 C 
ATOM     37  C   UNL A   1     -25.336   0.684  33.544  0.00  0.00    +0.020 C 
ATOM     38  C   UNL A   1     -24.829  -0.715  33.905  0.00  0.00    +0.089 C 
ATOM     39  N   UNL A   1     -24.758  -1.481  32.646  0.00  0.00    -0.217 NA
ENDBRANCH  28  35
ENDBRANCH  25  28
BRANCH  24  40
ATOM     40  C   UNL A   1     -27.932   2.591  29.596  0.00  0.00    +0.205 C 
BRANCH  40  41
ATOM     41  C   UNL A   1     -27.917   3.916  30.466  0.00  0.00    +0.283 C 
ATOM     42  N   UNL A   1     -26.741   4.436  31.127  0.00  0.00    -0.086 NA
ATOM     43  O   UNL A   1     -29.084   4.546  30.644  0.00  0.00    -0.270 OA
ENDBRANCH  40  41
ENDBRANCH  24  40
ENDBRANCH   1  25
TORSDOF 11
