MODEL 4591
MODEL 1
REMARK VINA RESULT:    -7.743      0.000      0.000
REMARK INTER + INTRA:          -8.691
REMARK INTER:                  -8.195
REMARK INTRA:                  -0.495
REMARK UNBOUND:                -0.495
REMARK  Name = No_4591-gen_results/8p0m/2024-11-27-11-27-31/
REMARK  1 active torsions:
REMARK  status: ('A' for Active; 'I' for Inactive)
REMARK    1  A    between atoms: C_4  and  C_11
REMARK                            x       y       z     vdW  Elec       q    Type
REMARK                         _______ _______ _______ _____ _____    ______ ____
ROOT
ATOM      1  C   UNL A   1     -25.775   0.118  25.981  0.00  0.00    +0.000 A 
ATOM      2  C   UNL A   1     -25.465  -0.668  26.846  0.00  0.00    +0.000 A 
ATOM      3  C   UNL A   1     -24.337  -0.462  27.633  0.00  0.00    +0.000 A 
ATOM      4  C   UNL A   1     -23.846  -1.357  28.719  0.00  0.00    +0.000 A 
ATOM      5  C   UNL A   1     -22.665  -1.137  29.510  0.00  0.00    +0.000 A 
ATOM      6  C   UNL A   1     -24.862   1.212  25.616  0.00  0.00    +0.000 A 
ATOM      7  C   UNL A   1     -23.749   1.553  26.382  0.00  0.00    +0.000 A 
ATOM      8  C   UNL A   1     -23.396   0.667  27.442  0.00  0.00    +0.000 A 
ATOM      9  C   UNL A   1     -22.032   0.120  29.255  0.00  0.00    +0.000 A 
ATOM     10  C   UNL A   1     -22.321   0.933  28.269  0.00  0.00    +0.000 A 
ENDROOT
BRANCH   4  11
ATOM     11  C   UNL A   1     -24.606  -2.587  29.085  0.00  0.00    +0.000 A 
ATOM     12  C   UNL A   1     -24.050  -3.721  28.776  0.00  0.00    +0.000 A 
ATOM     13  C   UNL A   1     -24.808  -4.922  28.872  0.00  0.00    +0.000 A 
ATOM     14  C   UNL A   1     -25.817  -2.482  29.681  0.00  0.00    +0.000 A 
ATOM     15  C   UNL A   1     -26.578  -3.620  29.952  0.00  0.00    +0.000 A 
ATOM     16  C   UNL A   1     -26.019  -4.888  29.583  0.00  0.00    +0.000 A 
ENDBRANCH   4  11
TORSDOF 1
ENDMDL
ENDMDL
