MODEL 4593
MODEL 1
REMARK VINA RESULT:    -7.443      0.000      0.000
REMARK INTER + INTRA:          -8.871
REMARK INTER:                  -8.314
REMARK INTRA:                  -0.557
REMARK UNBOUND:                -0.557
REMARK  Name = No_4593-gen_results/8p0m/2024-11-27-11-27-31/
REMARK  2 active torsions:
REMARK  status: ('A' for Active; 'I' for Inactive)
REMARK    1  A    between atoms: C_1  and  C_2
REMARK    2  A    between atoms: C_5  and  C_13
REMARK                            x       y       z     vdW  Elec       q    Type
REMARK                         _______ _______ _______ _____ _____    ______ ____
ROOT
ATOM      1  C   UNL A   1     -23.957  -1.792  28.928  0.00  0.00    -0.000 A 
ATOM      2  C   UNL A   1     -22.695  -1.377  29.306  0.00  0.00    -0.000 A 
ATOM      3  C   UNL A   1     -22.026  -0.176  28.843  0.00  0.00    +0.001 A 
ATOM      4  C   UNL A   1     -22.689   0.658  27.916  0.00  0.00    +0.044 A 
ATOM      5  C   UNL A   1     -24.012   0.243  27.524  0.00  0.00    +0.001 A 
ATOM      6  C   UNL A   1     -24.642  -0.880  28.005  0.00  0.00    -0.000 A 
ENDROOT
BRANCH   1   7
ATOM      7  C   UNL A   1     -24.507  -2.766  29.387  0.00  0.00    -0.000 A 
ATOM      8  C   UNL A   1     -24.122  -4.041  28.726  0.00  0.00    -0.000 A 
ATOM      9  C   UNL A   1     -24.865  -5.187  29.125  0.00  0.00    +0.000 A 
ATOM     10  C   UNL A   1     -26.160  -4.996  29.509  0.00  0.00    +0.000 A 
ATOM     11  C   UNL A   1     -26.700  -3.783  29.916  0.00  0.00    +0.000 A 
ATOM     12  C   UNL A   1     -25.957  -2.670  29.669  0.00  0.00    -0.000 A 
ENDBRANCH   1   7
BRANCH   4  13
ATOM     13  C   UNL A   1     -22.094   1.868  27.383  0.00  0.00    +0.341 C 
ATOM     14  F   UNL A   1     -22.756   2.477  26.564  0.00  0.00    -0.193 F 
ATOM     15  F   UNL A   1     -20.873   2.141  27.511  0.00  0.00    -0.193 F 
ENDBRANCH   4  13
TORSDOF 2
ENDMDL
ENDMDL
