REMARK  Name = outputs/IAG933/test6/raw/output_4594_IAG933_linker_design_.xyz
REMARK  13 active torsions:
REMARK  status: ('A' for Active; 'I' for Inactive)
REMARK    1  A    between atoms: C_1  and  C_2
REMARK    2  A    between atoms: C_1  and  C_8
REMARK    3  A    between atoms: C_1  and  C_40
REMARK    4  A    between atoms: C_13  and  C_34
REMARK    5  A    between atoms: C_14  and  C_15
REMARK    6  A    between atoms: C_21  and  O_22
REMARK    7  A    between atoms: O_22  and  C_23
REMARK    8  A    between atoms: C_23  and  C_24
REMARK    9  A    between atoms: C_28  and  C_31
REMARK   10  A    between atoms: C_28  and  C_33
REMARK   11  A    between atoms: C_33  and  C_40
REMARK   12  A    between atoms: C_38  and  C_41
REMARK   13  A    between atoms: C_39  and  C_40
REMARK                            x       y       z     vdW  Elec       q    Type
REMARK                         _______ _______ _______ _____ _____    ______ ____
ROOT
ATOM      1  C   UNL A   1     -25.127  -0.056  28.997  0.00  0.00    +0.033 C 
ENDROOT
BRANCH   1   5
ATOM      2  C   UNL A   1     -22.156   1.913  27.548  0.00  0.00    +0.067 C 
ATOM      3  C   UNL A   1     -24.321   1.347  27.028  0.00  0.00    -0.017 C 
ATOM      4  C   UNL A   1     -23.163   1.855  26.494  0.00  0.00    +0.039 C 
ATOM      5  C   UNL A   1     -24.021   0.672  28.203  0.00  0.00    -0.001 C 
ATOM      6  S   UNL A   1     -22.508   0.773  28.690  0.00  0.00    -0.118 S 
BRANCH   3   7
ATOM      7  C   UNL A   1     -25.688   1.614  26.461  0.00  0.00    +0.034 C 
ATOM      8  C   UNL A   1     -26.250   2.920  26.395  0.00  0.00    +0.076 C 
ATOM      9  C   UNL A   1     -27.438   3.091  25.645  0.00  0.00    +0.107 C 
ATOM     10  N   UNL A   1     -28.075   2.089  25.003  0.00  0.00    -0.208 NA
ATOM     11  C   UNL A   1     -27.543   0.849  25.079  0.00  0.00    +0.253 C 
ATOM     12  C   UNL A   1     -26.354   0.576  25.777  0.00  0.00    +0.193 C 
ATOM     13  F   UNL A   1     -25.860  -0.681  25.795  0.00  0.00    -0.199 F 
BRANCH   8  14
ATOM     14  C   UNL A   1     -25.642   4.093  27.123  0.00  0.00    +0.266 C 
ATOM     15  N   UNL A   1     -25.614   5.252  26.449  0.00  0.00    -0.200 NA
ATOM     16  C   UNL A   1     -25.026   6.479  26.963  0.00  0.00    +0.139 C 
ATOM     17  O   UNL A   1     -25.143   3.966  28.243  0.00  0.00    -0.268 OA
ENDBRANCH   8  14
BRANCH  11  18
ATOM     18  O   UNL A   1     -28.193  -0.208  24.477  0.00  0.00    -0.456 OA
BRANCH  18  19
ATOM     19  C   UNL A   1     -29.460   0.005  23.866  0.00  0.00    +0.243 C 
BRANCH  19  20
ATOM     20  C   UNL A   1     -30.065  -1.377  23.573  0.00  0.00    +0.229 C 
ATOM     21  O   UNL A   1     -30.729  -1.878  24.721  0.00  0.00    -0.216 OA
ENDBRANCH  19  20
ENDBRANCH  18  19
ENDBRANCH  11  18
ENDBRANCH   3   7
ENDBRANCH   1   5
BRANCH   1  22
ATOM     22  C   UNL A   1     -24.855  -1.012  30.143  0.00  0.00    +0.043 C 
BRANCH  22  23
ATOM     23  C   UNL A   1     -24.973  -2.505  29.788  0.00  0.00    -0.021 C 
ATOM     24  C   UNL A   1     -23.906  -3.173  29.146  0.00  0.00    -0.004 C 
ATOM     25  C   UNL A   1     -23.989  -4.549  28.853  0.00  0.00    -0.000 C 
ATOM     26  C   UNL A   1     -25.137  -5.280  29.205  0.00  0.00    -0.000 C 
ATOM     27  C   UNL A   1     -26.232  -4.611  29.784  0.00  0.00    -0.000 C 
ATOM     28  C   UNL A   1     -26.155  -3.232  30.065  0.00  0.00    -0.004 C 
ENDBRANCH  22  23
BRANCH  22  29
ATOM     29  C   UNL A   1     -25.387  -0.679  31.571  0.00  0.00    +0.077 C 
ATOM     30  C   UNL A   1     -25.189   0.773  32.028  0.00  0.00    +0.019 C 
ATOM     31  C   UNL A   1     -25.336   0.684  33.544  0.00  0.00    +0.020 C 
ATOM     32  C   UNL A   1     -24.829  -0.715  33.905  0.00  0.00    +0.089 C 
ATOM     33  N   UNL A   1     -24.758  -1.481  32.646  0.00  0.00    -0.219 NA
ENDBRANCH  22  29
ENDBRANCH   1  22
BRANCH   1  34
ATOM     34  C   UNL A   1     -26.174   1.047  29.258  0.00  0.00    +0.008 C 
BRANCH  34  35
ATOM     35  C   UNL A   1     -27.213   0.787  29.719  0.00  0.00    +0.033 C 
BRANCH  35  37
ATOM     36  O   UNL A   1     -29.470   0.933  30.654  0.00  0.00    -0.351 OA
ATOM     37  C   UNL A   1     -28.671   0.989  29.474  0.00  0.00    +0.145 C 
ATOM     38  O   UNL A   1     -29.297  -1.351  28.911  0.00  0.00    -0.348 OA
ATOM     39  C   UNL A   1     -29.115  -0.009  28.386  0.00  0.00    +0.172 C 
ATOM     40  C   UNL A   1     -30.541  -0.033  30.493  0.00  0.00    +0.174 C 
ATOM     41  C   UNL A   1     -29.781  -1.323  30.259  0.00  0.00    +0.175 C 
BRANCH  41  42
ATOM     42  C   UNL A   1     -30.338  -2.686  30.768  0.00  0.00    +0.181 C 
ATOM     43  O   UNL A   1     -29.303  -3.391  31.446  0.00  0.00    -0.221 OA
ATOM     44  C   UNL A   1     -30.939  -3.595  29.704  0.00  0.00    +0.038 C 
ENDBRANCH  41  42
ENDBRANCH  35  37
ENDBRANCH  34  35
ENDBRANCH   1  34
TORSDOF 13
