MODEL 4595
MODEL 1
REMARK VINA RESULT:    -5.681      0.000      0.000
REMARK INTER + INTRA:          -6.671
REMARK INTER:                  -6.345
REMARK INTRA:                  -0.326
REMARK UNBOUND:                -0.326
REMARK  Name = No_4595-gen_results/8p0m/2024-11-27-11-27-31/
REMARK  2 active torsions:
REMARK  status: ('A' for Active; 'I' for Inactive)
REMARK    1  A    between atoms: C_2  and  C_7
REMARK    2  A    between atoms: N_9  and  C_10
REMARK                            x       y       z     vdW  Elec       q    Type
REMARK                         _______ _______ _______ _____ _____    ______ ____
ROOT
ATOM      1  C   UNL A   1     -25.951  -2.933  29.685  0.00  0.00    +0.005 A 
ATOM      2  C   UNL A   1     -25.053  -2.640  29.217  0.00  0.00    +0.055 A 
ATOM      3  C   UNL A   1     -26.261  -4.372  29.674  0.00  0.00    +0.000 A 
ATOM      4  C   UNL A   1     -25.313  -5.313  29.177  0.00  0.00    +0.000 A 
ATOM      5  C   UNL A   1     -23.891  -3.404  28.688  0.00  0.00    +0.005 A 
ATOM      6  C   UNL A   1     -24.144  -4.743  28.653  0.00  0.00    +0.000 A 
ENDROOT
BRANCH   2   7
ATOM      7  C   UNL A   1     -24.673  -1.092  29.225  0.00  0.00    +0.269 C 
ATOM      8  O   UNL A   1     -25.347  -0.452  29.844  0.00  0.00    -0.268 OA
ATOM      9  N   UNL A   1     -23.802  -0.582  28.269  0.00  0.00    -0.174 NA
BRANCH   9  10
ATOM     10  C   UNL A   1     -23.289   0.363  28.255  0.00  0.00    +0.084 C 
ATOM     11  C   UNL A   1     -22.334   0.853  28.370  0.00  0.00    -0.008 C 
ATOM     12  C   UNL A   1     -21.239  -0.063  28.667  0.00  0.00    +0.032 C 
ENDBRANCH   9  10
ENDBRANCH   2   7
TORSDOF 2
ENDMDL
ENDMDL
