REMARK  Name = outputs/IAG933/test6/raw/output_4595_IAG933_linker_design_.xyz
REMARK  14 active torsions:
REMARK  status: ('A' for Active; 'I' for Inactive)
REMARK    1  A    between atoms: C_1  and  C_2
REMARK    2  A    between atoms: C_1  and  C_8
REMARK    3  A    between atoms: C_9  and  C_40
REMARK    4  A    between atoms: C_13  and  C_46
REMARK    5  A    between atoms: C_14  and  C_15
REMARK    6  A    between atoms: C_21  and  O_22
REMARK    7  A    between atoms: O_22  and  C_23
REMARK    8  A    between atoms: C_23  and  C_24
REMARK    9  A    between atoms: C_34  and  N_36
REMARK   10  A    between atoms: C_35  and  O_38
REMARK   11  A    between atoms: N_36  and  C_43
REMARK   12  A    between atoms: C_40  and  C_43
REMARK   13  A    between atoms: C_40  and  C_45
REMARK   14  A    between atoms: C_41  and  C_45
REMARK                            x       y       z     vdW  Elec       q    Type
REMARK                         _______ _______ _______ _____ _____    ______ ____
ROOT
ATOM      1  C   UNL A   1     -23.808   2.346  30.836  0.00  0.00    +0.143 C 
ENDROOT
BRANCH   1   2
ATOM      2  C   UNL A   1     -25.121   2.367  31.797  0.00  0.00    +0.152 C 
ATOM      3  O   UNL A   1     -26.419   2.809  31.266  0.00  0.00    -0.223 OA
BRANCH   2   5
ATOM      4  C   UNL A   1     -25.387  -0.679  31.571  0.00  0.00    +0.080 C 
ATOM      5  C   UNL A   1     -25.189   0.773  32.028  0.00  0.00    +0.048 C 
ATOM      6  C   UNL A   1     -25.336   0.684  33.544  0.00  0.00    +0.023 C 
ATOM      7  C   UNL A   1     -24.829  -0.715  33.905  0.00  0.00    +0.089 C 
ATOM      8  N   UNL A   1     -24.758  -1.481  32.646  0.00  0.00    -0.219 NA
BRANCH   4   9
ATOM      9  C   UNL A   1     -24.855  -1.012  30.143  0.00  0.00    +0.044 C 
BRANCH   9  10
ATOM     10  C   UNL A   1     -24.973  -2.505  29.788  0.00  0.00    -0.021 C 
ATOM     11  C   UNL A   1     -23.906  -3.173  29.146  0.00  0.00    -0.004 C 
ATOM     12  C   UNL A   1     -23.989  -4.549  28.853  0.00  0.00    -0.000 C 
ATOM     13  C   UNL A   1     -25.137  -5.280  29.205  0.00  0.00    -0.000 C 
ATOM     14  C   UNL A   1     -26.232  -4.611  29.784  0.00  0.00    -0.000 C 
ATOM     15  C   UNL A   1     -26.155  -3.232  30.065  0.00  0.00    -0.004 C 
ENDBRANCH   9  10
ENDBRANCH   4   9
ENDBRANCH   2   5
BRANCH   2  16
ATOM     16  C   UNL A   1     -24.794   3.640  32.763  0.00  0.00    +0.059 C 
BRANCH  16  20
ATOM     17  C   UNL A   1     -26.040   7.150  33.840  0.00  0.00    +0.037 C 
ATOM     18  C   UNL A   1     -24.472   7.365  31.997  0.00  0.00    +0.037 C 
ATOM     19  C   UNL A   1     -25.107   7.983  33.016  0.00  0.00    +0.139 C 
ATOM     20  C   UNL A   1     -25.288   5.069  32.624  0.00  0.00    -0.019 C 
ATOM     21  C   UNL A   1     -26.077   5.748  33.642  0.00  0.00    -0.001 C 
ATOM     22  C   UNL A   1     -24.636   5.932  31.664  0.00  0.00    -0.001 C 
BRANCH  19  24
ATOM     23  C   UNL A   1     -23.802   9.805  32.636  0.00  0.00    +0.253 C 
ATOM     24  O   UNL A   1     -24.843   9.233  33.378  0.00  0.00    -0.471 OA
ENDBRANCH  19  24
ENDBRANCH  16  20
ENDBRANCH   2  16
ENDBRANCH   1   2
BRANCH   1  25
ATOM     25  N   UNL A   1     -24.518   1.827  29.628  0.00  0.00    -0.235 NA
BRANCH  25  30
ATOM     26  O   UNL A   1     -21.912   1.573  26.710  0.00  0.00    -0.472 OA
ATOM     27  C   UNL A   1     -23.172   1.690  26.174  0.00  0.00    +0.190 C 
ATOM     28  C   UNL A   1     -22.603   0.923  28.850  0.00  0.00    +0.056 C 
ATOM     29  C   UNL A   1     -23.347   1.883  24.722  0.00  0.00    +0.052 C 
ATOM     30  C   UNL A   1     -23.907   1.374  28.518  0.00  0.00    +0.068 C 
ATOM     31  C   UNL A   1     -21.590   1.113  27.884  0.00  0.00    +0.174 C 
ATOM     32  C   UNL A   1     -24.351   1.519  27.088  0.00  0.00    +0.035 C 
BRANCH  32  33
ATOM     33  C   UNL A   1     -25.688   1.614  26.461  0.00  0.00    +0.039 C 
ATOM     34  C   UNL A   1     -26.250   2.920  26.395  0.00  0.00    +0.076 C 
ATOM     35  C   UNL A   1     -27.438   3.091  25.645  0.00  0.00    +0.107 C 
ATOM     36  N   UNL A   1     -28.075   2.089  25.003  0.00  0.00    -0.208 NA
ATOM     37  C   UNL A   1     -27.543   0.849  25.079  0.00  0.00    +0.253 C 
ATOM     38  C   UNL A   1     -26.354   0.576  25.777  0.00  0.00    +0.193 C 
ATOM     39  F   UNL A   1     -25.860  -0.681  25.795  0.00  0.00    -0.199 F 
BRANCH  34  40
ATOM     40  C   UNL A   1     -25.642   4.093  27.123  0.00  0.00    +0.266 C 
ATOM     41  N   UNL A   1     -25.614   5.252  26.449  0.00  0.00    -0.200 NA
ATOM     42  C   UNL A   1     -25.026   6.479  26.963  0.00  0.00    +0.139 C 
ATOM     43  O   UNL A   1     -25.143   3.966  28.243  0.00  0.00    -0.268 OA
ENDBRANCH  34  40
BRANCH  37  44
ATOM     44  O   UNL A   1     -28.193  -0.208  24.477  0.00  0.00    -0.456 OA
BRANCH  44  45
ATOM     45  C   UNL A   1     -29.460   0.005  23.866  0.00  0.00    +0.243 C 
BRANCH  45  46
ATOM     46  C   UNL A   1     -30.065  -1.377  23.573  0.00  0.00    +0.229 C 
ATOM     47  O   UNL A   1     -30.729  -1.878  24.721  0.00  0.00    -0.216 OA
ENDBRANCH  45  46
ENDBRANCH  44  45
ENDBRANCH  37  44
ENDBRANCH  32  33
ENDBRANCH  25  30
ENDBRANCH   1  25
TORSDOF 14
