REMARK  Name = No_4596-gen_results/8p0m/2024-11-27-11-27-31/
REMARK  1 active torsions:
REMARK  status: ('A' for Active; 'I' for Inactive)
REMARK    1  A    between atoms: C_5  and  C_7
REMARK                            x       y       z     vdW  Elec       q    Type
REMARK                         _______ _______ _______ _____ _____    ______ ____
ROOT
ATOM      1  C   UNL A   1     -28.016  -0.814  28.878  0.00  0.00    +0.000 A 
ATOM      2  C   UNL A   1     -27.064  -0.119  28.608  0.00  0.00    +0.000 A 
ATOM      3  C   UNL A   1     -26.972   0.714  27.506  0.00  0.00    +0.013 A 
ATOM      4  C   UNL A   1     -28.105   0.774  26.642  0.00  0.00    +0.005 A 
ATOM      5  C   UNL A   1     -29.201   0.104  27.053  0.00  0.00    +0.080 A 
ATOM      6  C   UNL A   1     -29.210  -0.603  28.185  0.00  0.00    +0.007 A 
ATOM      7  C   UNL A   1     -25.679  -0.225  29.395  0.00  0.00    +0.015 A 
ATOM      8  C   UNL A   1     -25.275  -1.013  29.930  0.00  0.00    +0.001 A 
ATOM      9  C   UNL A   1     -23.981  -1.089  30.668  0.00  0.00    +0.000 A 
ATOM     10  C   UNL A   1     -23.200  -0.170  30.431  0.00  0.00    +0.001 A 
ATOM     11  C   UNL A   1     -23.508   0.963  29.620  0.00  0.00    +0.016 A 
ATOM     12  C   UNL A   1     -24.828   0.978  29.002  0.00  0.00    +0.067 A 
ATOM     13  N   UNL A   1     -25.232   1.927  28.239  0.00  0.00    -0.218 NA
ATOM     14  C   UNL A   1     -26.225   1.858  27.374  0.00  0.00    +0.193 C 
ATOM     15 CL   UNL A   1     -26.201   2.887  25.977  0.00  0.00    -0.086 Cl
ENDROOT
BRANCH   5  16
ATOM     16  C   UNL A   1     -30.482   0.144  26.345  0.00  0.00    +0.388 C 
ATOM     17  O   UNL A   1     -31.421  -0.420  26.654  0.00  0.00    -0.241 OA
ATOM     18  O   UNL A   1     -30.624   1.083  25.386  0.00  0.00    -0.241 OA
ENDBRANCH   5  16
TORSDOF 1
