MODEL 4596
MODEL 1
REMARK VINA RESULT:    -6.903      0.000      0.000
REMARK INTER + INTRA:          -7.392
REMARK INTER:                  -7.306
REMARK INTRA:                  -0.086
REMARK UNBOUND:                -0.086
REMARK  Name = No_4596-gen_results/8p0m/2024-11-27-11-27-31/
REMARK  1 active torsions:
REMARK  status: ('A' for Active; 'I' for Inactive)
REMARK    1  A    between atoms: C_5  and  C_7
REMARK                            x       y       z     vdW  Elec       q    Type
REMARK                         _______ _______ _______ _____ _____    ______ ____
ROOT
ATOM      1  C   UNL A   1     -28.593 -11.795  30.313  0.00  0.00    +0.000 A 
ATOM      2  C   UNL A   1     -29.399 -10.894  30.354  0.00  0.00    +0.000 A 
ATOM      3  C   UNL A   1     -29.775 -10.212  31.499  0.00  0.00    +0.013 A 
ATOM      4  C   UNL A   1     -29.134 -10.586  32.716  0.00  0.00    +0.005 A 
ATOM      5  C   UNL A   1     -28.135 -11.487  32.609  0.00  0.00    +0.080 A 
ATOM      6  C   UNL A   1     -27.794 -12.022  31.435  0.00  0.00    +0.007 A 
ATOM      7  C   UNL A   1     -30.305 -10.501  29.099  0.00  0.00    +0.015 A 
ATOM      8  C   UNL A   1     -30.598 -11.068  28.285  0.00  0.00    +0.001 A 
ATOM      9  C   UNL A   1     -31.438 -10.678  27.116  0.00  0.00    +0.000 A 
ATOM     10  C   UNL A   1     -32.033  -9.611  27.244  0.00  0.00    +0.001 A 
ATOM     11  C   UNL A   1     -31.869  -8.722  28.348  0.00  0.00    +0.016 A 
ATOM     12  C   UNL A   1     -30.968  -9.163  29.406  0.00  0.00    +0.067 A 
ATOM     13  N   UNL A   1     -30.738  -8.471  30.462  0.00  0.00    -0.218 NA
ATOM     14  C   UNL A   1     -30.248  -8.927  31.598  0.00  0.00    +0.193 C 
ATOM     15 CL   UNL A   1     -30.648  -8.115  33.078  0.00  0.00    -0.086 Cl
ENDROOT
BRANCH   5  16
ATOM     16  C   UNL A   1     -27.302 -11.903  33.739  0.00  0.00    +0.388 C 
ATOM     17  O   UNL A   1     -26.683 -12.857  33.781  0.00  0.00    -0.241 OA
ATOM     18  O   UNL A   1     -27.079 -10.989  34.707  0.00  0.00    -0.241 OA
ENDBRANCH   5  16
TORSDOF 1
ENDMDL
ENDMDL
