MODEL 4597
MODEL 1
REMARK VINA RESULT:    -5.097      0.000      0.000
REMARK INTER + INTRA:          -5.097
REMARK INTER:                  -5.097
REMARK INTRA:                   0.000
REMARK UNBOUND:                 0.000
REMARK  Name = No_4597-gen_results/8p0m/2024-11-27-11-27-31/
REMARK  0 active torsions:
REMARK  status: ('A' for Active; 'I' for Inactive)
REMARK                            x       y       z     vdW  Elec       q    Type
REMARK                         _______ _______ _______ _____ _____    ______ ____
ROOT
ATOM      1  C   UNL A   1     -10.072 -10.196  17.913  0.00  0.00    +0.196 A 
ATOM      2  C   UNL A   1      -9.075 -10.880  17.880  0.00  0.00    +0.042 A 
ATOM      3  C   UNL A   1      -8.031 -10.752  18.775  0.00  0.00    +0.003 A 
ATOM      4  C   UNL A   1      -8.158  -9.788  19.815  0.00  0.00    +0.000 A 
ATOM      5  C   UNL A   1      -9.358  -9.170  19.911  0.00  0.00    +0.003 A 
ATOM      6  C   UNL A   1     -10.318  -9.385  19.031  0.00  0.00    +0.042 A 
ATOM      7  O   UNL A   1     -11.106 -10.405  17.008  0.00  0.00    -0.287 OA
ENDROOT
TORSDOF 0
ENDMDL
ENDMDL
