MODEL 4598
MODEL 1
REMARK VINA RESULT:    -5.694      0.000      0.000
REMARK INTER + INTRA:          -6.487
REMARK INTER:                  -6.360
REMARK INTRA:                  -0.127
REMARK UNBOUND:                -0.127
REMARK  Name = No_4598-gen_results/8p0m/2024-11-27-11-27-31/
REMARK  2 active torsions:
REMARK  status: ('A' for Active; 'I' for Inactive)
REMARK    1  A    between atoms: C_2  and  C_4
REMARK    2  A    between atoms: C_6  and  C_12
REMARK                            x       y       z     vdW  Elec       q    Type
REMARK                         _______ _______ _______ _____ _____    ______ ____
ROOT
ATOM      1  C   UNL A   1     -24.750   0.322  26.314  0.00  0.00    +0.057 A 
ATOM      2  C   UNL A   1     -23.818   1.174  26.635  0.00  0.00    +0.051 A 
ATOM      3  C   UNL A   1     -23.083   1.073  27.776  0.00  0.00    +0.015 A 
ATOM      4  C   UNL A   1     -23.405   0.077  28.733  0.00  0.00    +0.058 A 
ATOM      5  C   UNL A   1     -24.409  -0.858  28.435  0.00  0.00    +0.011 A 
ATOM      6  C   UNL A   1     -25.035  -0.753  27.235  0.00  0.00    +0.003 A 
ATOM      7 CL   UNL A   1     -22.644   0.086  30.246  0.00  0.00    -0.082 Cl
ENDROOT
BRANCH   1   9
ATOM      8 CL   UNL A   1     -26.484   1.016  24.791  0.00  0.00    -0.042 Cl
ATOM      9  C   UNL A   1     -25.389   0.212  24.884  0.00  0.00    +0.350 C 
ATOM     10  F   UNL A   1     -24.427   0.349  24.085  0.00  0.00    -0.182 F 
ATOM     11  F   UNL A   1     -25.779  -1.097  24.819  0.00  0.00    -0.182 F 
ENDBRANCH   1   9
BRANCH   2  12
ATOM     12  C   UNL A   1     -23.337   2.259  25.755  0.00  0.00    +0.241 C 
ATOM     13  N   UNL A   1     -24.031   3.446  25.761  0.00  0.00    -0.116 NA
ATOM     14  F   UNL A   1     -22.354   2.219  25.087  0.00  0.00    -0.181 F 
ENDBRANCH   2  12
TORSDOF 2
ENDMDL
ENDMDL
