MODEL 4599
MODEL 1
REMARK VINA RESULT:    -4.337      0.000      0.000
REMARK INTER + INTRA:          -4.337
REMARK INTER:                  -4.337
REMARK INTRA:                   0.000
REMARK UNBOUND:                 0.000
REMARK  Name = No_4599-gen_results/8p0m/2024-11-27-11-27-31/
REMARK  0 active torsions:
REMARK  status: ('A' for Active; 'I' for Inactive)
REMARK                            x       y       z     vdW  Elec       q    Type
REMARK                         _______ _______ _______ _____ _____    ______ ____
ROOT
ATOM      1  C   UNL A   1     -24.149  -4.850  28.588  0.00  0.00    +0.000 A 
ATOM      2  C   UNL A   1     -24.996  -5.289  29.037  0.00  0.00    +0.000 A 
ATOM      3  C   UNL A   1     -24.072  -3.397  28.784  0.00  0.00    +0.000 A 
ATOM      4  C   UNL A   1     -25.071  -2.691  29.315  0.00  0.00    +0.000 A 
ATOM      5  C   UNL A   1     -26.191  -4.745  29.633  0.00  0.00    +0.000 A 
ATOM      6  C   UNL A   1     -26.111  -3.392  29.783  0.00  0.00    +0.000 A 
ENDROOT
TORSDOF 0
ENDMDL
ENDMDL
