MODEL 45
MODEL 1
REMARK VINA RESULT:    -5.347      0.000      0.000
REMARK INTER + INTRA:          -6.217
REMARK INTER:                  -5.972
REMARK INTRA:                  -0.245
REMARK UNBOUND:                -0.245
REMARK  Name = No_45-gen_results/8p0m/2024-11-27-11-27-31/
REMARK  2 active torsions:
REMARK  status: ('A' for Active; 'I' for Inactive)
REMARK    1  A    between atoms: C_3  and  C_4
REMARK    2  A    between atoms: C_4  and  C_9
REMARK                            x       y       z     vdW  Elec       q    Type
REMARK                         _______ _______ _______ _____ _____    ______ ____
ROOT
ATOM      1  C   UNL A   1     -24.255  -4.899  28.675  0.00  0.00    -0.000 A 
ATOM      2  C   UNL A   1     -23.851  -3.768  28.534  0.00  0.00    -0.004 A 
ATOM      3  C   UNL A   1     -24.451  -2.658  28.859  0.00  0.00    -0.018 A 
ATOM      4  C   UNL A   1     -25.555  -5.101  29.343  0.00  0.00    -0.000 A 
ATOM      5  C   UNL A   1     -26.288  -4.017  29.680  0.00  0.00    -0.000 A 
ATOM      6  C   UNL A   1     -25.747  -2.678  29.487  0.00  0.00    -0.004 A 
ENDROOT
BRANCH   3   7
ATOM      7  C   UNL A   1     -23.918  -1.286  28.674  0.00  0.00    +0.044 C 
ATOM      8  C   UNL A   1     -24.504  -0.283  27.892  0.00  0.00    +0.009 C 
BRANCH   7   9
ATOM      9  C   UNL A   1     -22.629  -0.979  29.267  0.00  0.00    -0.022 C 
ATOM     10  C   UNL A   1     -21.767  -0.238  28.887  0.00  0.00    -0.005 C 
ENDBRANCH   7   9
ENDBRANCH   3   7
TORSDOF 2
ENDMDL
ENDMDL
