REMARK  Name = outputs/IAG933/test6/raw/output_460_IAG933_linker_design_.xyz
REMARK  12 active torsions:
REMARK  status: ('A' for Active; 'I' for Inactive)
REMARK    1  A    between atoms: C_1  and  C_2
REMARK    2  A    between atoms: C_1  and  C_8
REMARK    3  A    between atoms: C_1  and  N_37
REMARK    4  A    between atoms: C_13  and  C_36
REMARK    5  A    between atoms: C_14  and  C_15
REMARK    6  A    between atoms: C_21  and  O_22
REMARK    7  A    between atoms: O_22  and  C_23
REMARK    8  A    between atoms: C_23  and  C_24
REMARK    9  A    between atoms: C_34  and  C_40
REMARK   10  A    between atoms: N_37  and  C_40
REMARK   11  A    between atoms: N_37  and  C_41
REMARK   12  A    between atoms: C_42  and  O_43
REMARK                            x       y       z     vdW  Elec       q    Type
REMARK                         _______ _______ _______ _____ _____    ______ ____
ROOT
ATOM      1  C   UNL A   1     -22.942   0.725  28.594  0.00  0.00    +0.167 C 
ATOM      2  F   UNL A   1     -20.959   1.658  27.450  0.00  0.00    -0.199 F 
ATOM      3  C   UNL A   1     -22.247   1.411  27.506  0.00  0.00    +0.198 C 
ATOM      4  C   UNL A   1     -24.505   1.393  27.116  0.00  0.00    +0.038 C 
ATOM      5  F   UNL A   1     -22.379   0.247  29.669  0.00  0.00    -0.205 F 
ATOM      6  C   UNL A   1     -24.290   0.659  28.350  0.00  0.00    +0.137 C 
ATOM      7  C   UNL A   1     -23.205   1.737  26.576  0.00  0.00    +0.166 C 
ENDROOT
BRANCH   4   8
ATOM      8  C   UNL A   1     -25.688   1.614  26.461  0.00  0.00    +0.039 C 
ATOM      9  C   UNL A   1     -26.250   2.920  26.395  0.00  0.00    +0.076 C 
ATOM     10  C   UNL A   1     -27.438   3.091  25.645  0.00  0.00    +0.107 C 
ATOM     11  N   UNL A   1     -28.075   2.089  25.003  0.00  0.00    -0.208 NA
ATOM     12  C   UNL A   1     -27.543   0.849  25.079  0.00  0.00    +0.253 C 
ATOM     13  C   UNL A   1     -26.354   0.576  25.777  0.00  0.00    +0.193 C 
ATOM     14  F   UNL A   1     -25.860  -0.681  25.795  0.00  0.00    -0.199 F 
BRANCH   9  15
ATOM     15  C   UNL A   1     -25.642   4.093  27.123  0.00  0.00    +0.266 C 
ATOM     16  N   UNL A   1     -25.614   5.252  26.449  0.00  0.00    -0.200 NA
ATOM     17  C   UNL A   1     -25.026   6.479  26.963  0.00  0.00    +0.139 C 
ATOM     18  O   UNL A   1     -25.143   3.966  28.243  0.00  0.00    -0.268 OA
ENDBRANCH   9  15
BRANCH  12  19
ATOM     19  O   UNL A   1     -28.193  -0.208  24.477  0.00  0.00    -0.456 OA
BRANCH  19  20
ATOM     20  C   UNL A   1     -29.460   0.005  23.866  0.00  0.00    +0.243 C 
BRANCH  20  21
ATOM     21  C   UNL A   1     -30.065  -1.377  23.573  0.00  0.00    +0.229 C 
ATOM     22  O   UNL A   1     -30.729  -1.878  24.721  0.00  0.00    -0.216 OA
ENDBRANCH  20  21
ENDBRANCH  19  20
ENDBRANCH  12  19
ENDBRANCH   4   8
BRANCH   7  24
ATOM     23  C   UNL A   1     -21.390   2.117  25.139  0.00  0.00    +0.253 C 
ATOM     24  O   UNL A   1     -22.713   2.128  25.370  0.00  0.00    -0.469 OA
ENDBRANCH   7  24
BRANCH   6  25
ATOM     25  N   UNL A   1     -25.210  -0.043  29.098  0.00  0.00    -0.259 NA
BRANCH  25  26
ATOM     26  C   UNL A   1     -24.855  -1.012  30.143  0.00  0.00    +0.097 C 
BRANCH  26  27
ATOM     27  C   UNL A   1     -24.973  -2.505  29.788  0.00  0.00    -0.006 C 
ATOM     28  C   UNL A   1     -23.906  -3.173  29.146  0.00  0.00    -0.003 C 
ATOM     29  C   UNL A   1     -23.989  -4.549  28.853  0.00  0.00    -0.000 C 
ATOM     30  C   UNL A   1     -25.137  -5.280  29.205  0.00  0.00    -0.000 C 
ATOM     31  C   UNL A   1     -26.232  -4.611  29.784  0.00  0.00    -0.000 C 
ATOM     32  C   UNL A   1     -26.155  -3.232  30.065  0.00  0.00    -0.003 C 
ENDBRANCH  26  27
BRANCH  26  33
ATOM     33  C   UNL A   1     -25.387  -0.679  31.571  0.00  0.00    +0.092 C 
ATOM     34  C   UNL A   1     -25.189   0.773  32.028  0.00  0.00    +0.021 C 
ATOM     35  C   UNL A   1     -25.336   0.684  33.544  0.00  0.00    +0.020 C 
ATOM     36  C   UNL A   1     -24.829  -0.715  33.905  0.00  0.00    +0.089 C 
ATOM     37  N   UNL A   1     -24.758  -1.481  32.646  0.00  0.00    -0.218 NA
ENDBRANCH  26  33
ENDBRANCH  25  26
BRANCH  25  38
ATOM     38  C   UNL A   1     -26.643   0.085  28.898  0.00  0.00    +0.103 C 
BRANCH  38  41
ATOM     39  C   UNL A   1     -28.889   0.393  28.234  0.00  0.00    +0.034 C 
ATOM     40  O   UNL A   1     -27.699   2.164  29.177  0.00  0.00    -0.355 OA
ATOM     41  C   UNL A   1     -27.523   1.116  28.235  0.00  0.00    +0.131 C 
ATOM     42  C   UNL A   1     -29.576   1.008  29.470  0.00  0.00    +0.035 C 
ATOM     43  C   UNL A   1     -28.703   1.944  30.172  0.00  0.00    +0.142 C 
ENDBRANCH  38  41
ENDBRANCH  25  38
ENDBRANCH   6  25
TORSDOF 12
