MODEL 4600
MODEL 1
REMARK VINA RESULT:    -6.610      0.000      0.000
REMARK INTER + INTRA:          -7.293
REMARK INTER:                  -6.997
REMARK INTRA:                  -0.296
REMARK UNBOUND:                -0.296
REMARK  Name = No_4600-gen_results/8p0m/2024-11-27-11-27-31/
REMARK  1 active torsions:
REMARK  status: ('A' for Active; 'I' for Inactive)
REMARK    1  A    between atoms: C_3  and  C_8
REMARK                            x       y       z     vdW  Elec       q    Type
REMARK                         _______ _______ _______ _____ _____    ______ ____
ROOT
ATOM      1  C   UNL A   1     -26.238  -2.333  29.998  0.00  0.00    +0.001 A 
ATOM      2  C   UNL A   1     -25.394  -1.569  29.590  0.00  0.00    +0.000 A 
ATOM      3  C   UNL A   1     -24.189  -1.943  29.020  0.00  0.00    +0.001 A 
ATOM      4  C   UNL A   1     -23.944  -3.341  28.878  0.00  0.00    +0.011 A 
ATOM      5  C   UNL A   1     -24.960  -4.162  29.190  0.00  0.00    +0.058 A 
ATOM      6  C   UNL A   1     -26.080  -3.716  29.682  0.00  0.00    +0.011 A 
ATOM      7 CL   UNL A   1     -24.862  -5.827  28.924  0.00  0.00    -0.082 Cl
ENDROOT
BRANCH   3   8
ATOM      8  C   UNL A   1     -23.083  -0.966  28.672  0.00  0.00    +0.003 A 
ATOM      9  C   UNL A   1     -22.015  -0.820  29.054  0.00  0.00    +0.000 A 
ATOM     10  C   UNL A   1     -21.084   0.263  28.566  0.00  0.00    +0.003 A 
ATOM     11  C   UNL A   1     -21.646   1.308  27.809  0.00  0.00    +0.042 A 
ATOM     12  C   UNL A   1     -22.997   1.243  27.479  0.00  0.00    +0.196 A 
ATOM     13  C   UNL A   1     -23.769   0.184  27.869  0.00  0.00    +0.042 A 
ATOM     14  O   UNL A   1     -23.429   2.269  26.731  0.00  0.00    -0.287 OA
ENDBRANCH   3   8
TORSDOF 1
ENDMDL
ENDMDL
