REMARK  Name = No_4600-gen_results/8p0m/2024-11-27-11-27-31/
REMARK  1 active torsions:
REMARK  status: ('A' for Active; 'I' for Inactive)
REMARK    1  A    between atoms: C_3  and  C_8
REMARK                            x       y       z     vdW  Elec       q    Type
REMARK                         _______ _______ _______ _____ _____    ______ ____
ROOT
ATOM      1  C   UNL A   1     -28.016  -0.814  28.878  0.00  0.00    +0.001 A 
ATOM      2  C   UNL A   1     -27.064  -0.119  28.608  0.00  0.00    +0.000 A 
ATOM      3  C   UNL A   1     -26.972   0.714  27.506  0.00  0.00    +0.001 A 
ATOM      4  C   UNL A   1     -28.105   0.774  26.642  0.00  0.00    +0.011 A 
ATOM      5  C   UNL A   1     -29.204   0.118  27.048  0.00  0.00    +0.058 A 
ATOM      6  C   UNL A   1     -29.213  -0.609  28.128  0.00  0.00    +0.011 A 
ATOM      7 CL   UNL A   1     -30.662   0.231  26.202  0.00  0.00    -0.082 Cl
ENDROOT
BRANCH   3   8
ATOM      8  C   UNL A   1     -25.705   1.444  27.105  0.00  0.00    +0.003 A 
ATOM      9  C   UNL A   1     -25.335   1.893  26.120  0.00  0.00    +0.000 A 
ATOM     10  C   UNL A   1     -23.995   2.565  25.949  0.00  0.00    +0.003 A 
ATOM     11  C   UNL A   1     -23.045   2.386  26.973  0.00  0.00    +0.042 A 
ATOM     12  C   UNL A   1     -23.418   1.684  28.115  0.00  0.00    +0.196 A 
ATOM     13  C   UNL A   1     -24.682   1.181  28.254  0.00  0.00    +0.042 A 
ATOM     14  O   UNL A   1     -22.454   1.595  29.043  0.00  0.00    -0.287 OA
ENDBRANCH   3   8
TORSDOF 1
