MODEL 4601
MODEL 1
REMARK VINA RESULT:    -6.786      0.000      0.000
REMARK INTER + INTRA:         -14.016
REMARK INTER:                 -11.150
REMARK INTRA:                  -2.866
REMARK UNBOUND:                -2.866
REMARK  Name = No_4601-gen_results/8p0m/2024-11-27-11-27-31/
REMARK  11 active torsions:
REMARK  status: ('A' for Active; 'I' for Inactive)
REMARK    1  A    between atoms: C_5  and  C_15
REMARK    2  A    between atoms: C_12  and  C_18
REMARK    3  A    between atoms: C_15  and  O_17
REMARK    4  A    between atoms: O_17  and  C_21
REMARK    5  A    between atoms: C_21  and  C_22
REMARK    6  A    between atoms: C_21  and  C_32
REMARK    7  A    between atoms: C_22  and  C_23
REMARK    8  A    between atoms: C_24  and  C_25
REMARK    9  A    between atoms: C_25  and  N_26
REMARK   10  A    between atoms: C_27  and  C_29
REMARK   11  A    between atoms: C_32  and  C_33
REMARK                            x       y       z     vdW  Elec       q    Type
REMARK                         _______ _______ _______ _____ _____    ______ ____
ROOT
ATOM      1  C   UNL A   1      -7.157  -1.130  10.772  0.00  0.00    +0.341 C 
ATOM      2  O   UNL A   1      -7.449  -1.901   9.952  0.00  0.00    -0.245 OA
ENDROOT
BRANCH   1   7
ATOM      3  C   UNL A   1      -8.654   0.172  12.317  0.00  0.00    +0.036 A 
ATOM      4  C   UNL A   1      -9.302   1.163  12.565  0.00  0.00    +0.137 A 
ATOM      5  C   UNL A   1      -9.456   2.223  11.825  0.00  0.00    +0.010 A 
ATOM      6  C   UNL A   1      -8.785   2.266  10.565  0.00  0.00    -0.001 A 
ATOM      7  C   UNL A   1      -8.037   0.093  11.007  0.00  0.00    +0.078 A 
ATOM      8  C   UNL A   1      -8.131   1.145  10.193  0.00  0.00    +0.006 A 
ATOM      9  F   UNL A   1      -9.976   1.229  13.780  0.00  0.00    -0.204 F 
ATOM     10  C   UNL A   1      -7.450   1.106   8.865  0.00  0.00    +0.000 A 
ATOM     11  C   UNL A   1      -8.020   1.776   7.924  0.00  0.00    +0.000 A 
ATOM     12  C   UNL A   1      -8.767   3.025   8.322  0.00  0.00    +0.000 A 
ATOM     13  C   UNL A   1      -9.342   3.164   9.551  0.00  0.00    +0.006 A 
ATOM     14  C   UNL A   1     -10.181   4.292   9.883  0.00  0.00    +0.076 C 
ATOM     15  C   UNL A   1     -10.750   4.419  11.014  0.00  0.00    -0.015 C 
ATOM     16  C   UNL A   1     -10.398   3.385  12.123  0.00  0.00    +0.055 C 
BRANCH  14  17
ATOM     17  C   UNL A   1     -10.492   5.351   8.881  0.00  0.00    +0.387 C 
ATOM     18  O   UNL A   1      -9.725   6.364   8.862  0.00  0.00    -0.241 OA
ATOM     19  O   UNL A   1     -11.549   5.212   8.262  0.00  0.00    -0.241 OA
ENDBRANCH  14  17
ENDBRANCH   1   7
BRANCH   1  20
ATOM     20  O   UNL A   1      -6.108  -1.237  11.544  0.00  0.00    -0.449 OA
BRANCH  20  21
ATOM     21  C   UNL A   1      -5.099  -0.384  11.525  0.00  0.00    +0.178 C 
BRANCH  21  22
ATOM     22  C   UNL A   1      -4.354  -0.319  10.236  0.00  0.00    +0.070 C 
BRANCH  22  23
ATOM     23  C   UNL A   1      -3.512  -1.084  10.005  0.00  0.00    -0.025 C 
ATOM     24  C   UNL A   1      -3.015  -1.477   9.070  0.00  0.00    -0.007 C 
BRANCH  24  25
ATOM     25  C   UNL A   1      -3.067  -2.220   8.128  0.00  0.00    +0.141 C 
BRANCH  25  26
ATOM     26  N   UNL A   1      -2.006  -3.094   8.081  0.00  0.00    -0.191 NA
ATOM     27  C   UNL A   1      -0.999  -2.999   7.547  0.00  0.00    +0.345 C 
ATOM     28  O   UNL A   1      -0.057  -3.824   7.578  0.00  0.00    -0.261 OA
BRANCH  27  29
ATOM     29  C   UNL A   1      -0.889  -1.974   6.340  0.00  0.00    +0.442 C 
ATOM     30  O   UNL A   1      -1.341  -2.165   5.402  0.00  0.00    -0.235 OA
ATOM     31  O   UNL A   1      -0.036  -1.101   6.627  0.00  0.00    -0.235 OA
ENDBRANCH  27  29
ENDBRANCH  25  26
ENDBRANCH  24  25
ENDBRANCH  22  23
ENDBRANCH  21  22
BRANCH  21  32
ATOM     32  C   UNL A   1      -4.849   0.471  12.531  0.00  0.00    +0.070 C 
BRANCH  32  33
ATOM     33  C   UNL A   1      -5.171   1.866  12.228  0.00  0.00    -0.027 C 
ATOM     34  C   UNL A   1      -5.786   2.579  12.713  0.00  0.00    -0.030 C 
ATOM     35  C   UNL A   1      -5.995   4.011  12.374  0.00  0.00    +0.030 C 
ENDBRANCH  32  33
ENDBRANCH  21  32
ENDBRANCH  20  21
ENDBRANCH   1  20
TORSDOF 11
ENDMDL
ENDMDL
