MODEL 4602
MODEL 1
REMARK VINA RESULT:    -5.302      0.000      0.000
REMARK INTER + INTRA:          -6.260
REMARK INTER:                  -5.922
REMARK INTRA:                  -0.337
REMARK UNBOUND:                -0.337
REMARK  Name = No_4602-gen_results/8p0m/2024-11-27-11-27-31/
REMARK  2 active torsions:
REMARK  status: ('A' for Active; 'I' for Inactive)
REMARK    1  A    between atoms: C_2  and  C_3
REMARK    2  A    between atoms: C_3  and  C_6
REMARK                            x       y       z     vdW  Elec       q    Type
REMARK                         _______ _______ _______ _____ _____    ______ ____
ROOT
ATOM      1  C   UNL A   1     -24.404  -2.461  28.999  0.00  0.00    -0.014 A 
ATOM      2  C   UNL A   1     -23.942  -3.779  28.605  0.00  0.00    -0.004 A 
ATOM      3  C   UNL A   1     -24.679  -4.930  28.952  0.00  0.00    -0.000 A 
ATOM      4  C   UNL A   1     -25.937  -4.838  29.577  0.00  0.00    -0.000 A 
ATOM      5  C   UNL A   1     -26.475  -3.558  29.846  0.00  0.00    -0.000 A 
ATOM      6  C   UNL A   1     -25.741  -2.449  29.597  0.00  0.00    -0.004 A 
ENDROOT
BRANCH   1   7
ATOM      7  C   UNL A   1     -23.790  -1.222  28.796  0.00  0.00    +0.130 C 
BRANCH   7   9
ATOM      8  F   UNL A   1     -21.691  -1.261  29.018  0.00  0.00    -0.170 F 
ATOM      9  C   UNL A   1     -22.680  -0.866  29.439  0.00  0.00    +0.402 C 
ATOM     10  F   UNL A   1     -22.568   0.546  29.451  0.00  0.00    -0.170 F 
ATOM     11  F   UNL A   1     -22.773  -1.100  30.781  0.00  0.00    -0.170 F 
ENDBRANCH   7   9
ENDBRANCH   1   7
TORSDOF 2
ENDMDL
ENDMDL
