MODEL 4603
MODEL 1
REMARK VINA RESULT:    -6.899      0.000      0.000
REMARK INTER + INTRA:          -8.219
REMARK INTER:                  -7.706
REMARK INTRA:                  -0.513
REMARK UNBOUND:                -0.513
REMARK  Name = No_4603-gen_results/8p0m/2024-11-27-11-27-31/
REMARK  2 active torsions:
REMARK  status: ('A' for Active; 'I' for Inactive)
REMARK    1  A    between atoms: C_3  and  C_4
REMARK    2  A    between atoms: C_4  and  C_8
REMARK                            x       y       z     vdW  Elec       q    Type
REMARK                         _______ _______ _______ _____ _____    ______ ____
ROOT
ATOM      1  C   UNL A   1     -23.464  -1.512  29.599  0.00  0.00    +0.196 C 
ATOM      2  O   UNL A   1     -23.457  -1.158  30.971  0.00  0.00    -0.287 OA
ENDROOT
BRANCH   1   5
ATOM      3  C   UNL A   1     -23.882  -3.956  28.836  0.00  0.00    +0.003 A 
ATOM      4  C   UNL A   1     -24.604  -4.722  28.869  0.00  0.00    +0.000 A 
ATOM      5  C   UNL A   1     -24.332  -2.699  29.433  0.00  0.00    +0.039 A 
ATOM      6  C   UNL A   1     -25.966  -4.832  29.376  0.00  0.00    +0.000 A 
ATOM      7  C   UNL A   1     -26.432  -3.660  29.936  0.00  0.00    +0.000 A 
ATOM      8  C   UNL A   1     -25.618  -2.594  30.025  0.00  0.00    +0.003 A 
ENDBRANCH   1   5
BRANCH   1   9
ATOM      9  C   UNL A   1     -22.966  -0.768  28.863  0.00  0.00    +0.039 A 
ATOM     10  C   UNL A   1     -21.557  -0.427  28.994  0.00  0.00    +0.003 A 
ATOM     11  C   UNL A   1     -21.023   0.638  28.161  0.00  0.00    +0.000 A 
ATOM     12  C   UNL A   1     -21.894   1.477  27.471  0.00  0.00    +0.000 A 
ATOM     13  C   UNL A   1     -23.238   1.227  27.478  0.00  0.00    +0.000 A 
ATOM     14  C   UNL A   1     -23.775   0.147  28.169  0.00  0.00    +0.003 A 
ENDBRANCH   1   9
TORSDOF 2
ENDMDL
ENDMDL
