MODEL 4604
MODEL 1
REMARK VINA RESULT:    -7.035      0.000      0.000
REMARK INTER + INTRA:         -10.509
REMARK INTER:                  -9.914
REMARK INTRA:                  -0.595
REMARK UNBOUND:                -0.595
REMARK  Name = No_4604-gen_results/8p0m/2024-11-27-11-27-31/
REMARK  7 active torsions:
REMARK  status: ('A' for Active; 'I' for Inactive)
REMARK    1  A    between atoms: C_2  and  C_3
REMARK    2  A    between atoms: C_3  and  C_5
REMARK    3  A    between atoms: C_3  and  C_6
REMARK    4  A    between atoms: N_4  and  C_14
REMARK    5  A    between atoms: C_5  and  N_15
REMARK    6  A    between atoms: C_6  and  C_7
REMARK    7  A    between atoms: C_7  and  C_8
REMARK                            x       y       z     vdW  Elec       q    Type
REMARK                         _______ _______ _______ _____ _____    ______ ____
ROOT
ATOM      1  C   UNL A   1     -10.490   1.088  35.486  0.00  0.00    +0.157 C 
ENDROOT
BRANCH   1   3
ATOM      2  O   UNL A   1     -11.806   1.033  37.037  0.00  0.00    -0.273 OA
ATOM      3  C   UNL A   1     -10.945   0.723  36.345  0.00  0.00    +0.254 C 
ATOM      4  N   UNL A   1     -10.309  -0.598  36.884  0.00  0.00    -0.179 NA
BRANCH   4   5
ATOM      5  C   UNL A   1     -10.770  -1.360  38.024  0.00  0.00    +0.073 A 
ATOM      6  C   UNL A   1     -11.570  -2.036  37.972  0.00  0.00    +0.017 A 
ATOM      7  C   UNL A   1     -12.334  -2.594  39.116  0.00  0.00    +0.001 A 
ATOM      8  C   UNL A   1     -11.857  -2.269  40.378  0.00  0.00    +0.000 A 
ATOM      9  C   UNL A   1     -10.771  -1.356  40.411  0.00  0.00    +0.001 A 
ATOM     10  C   UNL A   1     -10.205  -0.817  39.241  0.00  0.00    +0.017 A 
ENDBRANCH   4   5
ENDBRANCH   1   3
BRANCH   1  11
ATOM     11  C   UNL A   1     -10.843   1.615  34.292  0.00  0.00    +0.254 C 
ATOM     12  O   UNL A   1     -10.328   2.956  34.116  0.00  0.00    -0.273 OA
BRANCH  11  13
ATOM     13  N   UNL A   1     -11.555   1.427  33.434  0.00  0.00    -0.176 NA
ATOM     14  C   UNL A   1     -12.854   1.278  33.390  0.00  0.00    +0.106 C 
ENDBRANCH  11  13
ENDBRANCH   1  11
BRANCH   1  15
ATOM     15  C   UNL A   1      -8.908   0.838  35.463  0.00  0.00    +0.023 C 
BRANCH  15  16
ATOM     16  C   UNL A   1      -8.381   0.061  34.603  0.00  0.00    +0.027 C 
BRANCH  16  17
ATOM     17  C   UNL A   1      -7.248  -0.345  34.503  0.00  0.00    -0.022 A 
ATOM     18  C   UNL A   1      -6.863  -1.818  34.326  0.00  0.00    -0.004 A 
ATOM     19  C   UNL A   1      -5.627  -2.395  34.611  0.00  0.00    -0.000 A 
ATOM     20  C   UNL A   1      -4.585  -1.491  35.034  0.00  0.00    -0.000 A 
ATOM     21  C   UNL A   1      -4.859  -0.146  35.214  0.00  0.00    -0.000 A 
ATOM     22  C   UNL A   1      -6.110   0.333  34.989  0.00  0.00    -0.004 A 
ENDBRANCH  16  17
ENDBRANCH  15  16
ENDBRANCH   1  15
TORSDOF 7
ENDMDL
ENDMDL
