MODEL 4605
MODEL 1
REMARK VINA RESULT:    -6.943      0.000      0.000
REMARK INTER + INTRA:         -13.226
REMARK INTER:                  -9.784
REMARK INTRA:                  -3.442
REMARK UNBOUND:                -3.442
REMARK  Name = No_4605-gen_results/8p0m/2024-11-27-11-27-31/
REMARK  7 active torsions:
REMARK  status: ('A' for Active; 'I' for Inactive)
REMARK    1  A    between atoms: C_1  and  C_2
REMARK    2  A    between atoms: C_1  and  C_8
REMARK    3  A    between atoms: C_5  and  C_14
REMARK    4  A    between atoms: C_11  and  C_26
REMARK    5  A    between atoms: C_12  and  C_17
REMARK    6  A    between atoms: C_18  and  C_19
REMARK    7  A    between atoms: C_32  and  C_34
REMARK                            x       y       z     vdW  Elec       q    Type
REMARK                         _______ _______ _______ _____ _____    ______ ____
ROOT
ATOM      1  C   UNL A   1     -31.737  -9.765   9.963  0.00  0.00    -0.018 A 
ATOM      2  C   UNL A   1     -32.399 -10.671   9.331  0.00  0.00    -0.004 A 
ATOM      3  C   UNL A   1     -31.686 -11.746   8.684  0.00  0.00    -0.001 A 
ATOM      4  C   UNL A   1     -30.320 -11.824   8.924  0.00  0.00    -0.004 A 
ATOM      5  C   UNL A   1     -29.696 -10.887   9.661  0.00  0.00    -0.001 A 
ATOM      6  C   UNL A   1     -30.373  -9.820  10.178  0.00  0.00    -0.004 A 
ENDROOT
BRANCH   4   7
ATOM      7  C   UNL A   1     -30.072 -13.190   9.442  0.00  0.00    -0.018 C 
ATOM      8  C   UNL A   1     -29.505 -14.183   8.856  0.00  0.00    -0.004 C 
ATOM      9  C   UNL A   1     -29.414 -15.458   9.501  0.00  0.00    -0.007 C 
ATOM     10  C   UNL A   1     -30.000 -15.604  10.735  0.00  0.00    -0.024 C 
ATOM     11  C   UNL A   1     -30.616 -13.743  10.798  0.00  0.00    +0.050 C 
BRANCH  10  12
ATOM     12  C   UNL A   1     -30.505 -14.918  11.309  0.00  0.00    +0.117 C 
ATOM     13 CL   UNL A   1     -29.869 -13.568  12.269  0.00  0.00    -0.109 Cl
ENDBRANCH  10  12
ENDBRANCH   4   7
BRANCH   5  14
ATOM     14  C   UNL A   1     -28.210 -10.965   9.833  0.00  0.00    -0.000 C 
ATOM     15  C   UNL A   1     -27.498 -10.146   9.285  0.00  0.00    +0.001 C 
BRANCH  15  16
ATOM     16  C   UNL A   1     -28.007  -9.109   8.397  0.00  0.00    +0.044 C 
ATOM     17  C   UNL A   1     -28.640  -9.161   7.434  0.00  0.00    +0.001 C 
ATOM     18  C   UNL A   1     -28.965  -8.017   6.606  0.00  0.00    +0.001 C 
ATOM     19  C   UNL A   1     -28.478  -6.772   6.984  0.00  0.00    +0.045 C 
ATOM     20  C   UNL A   1     -27.734  -6.708   8.076  0.00  0.00    +0.341 C 
ATOM     21  C   UNL A   1     -27.420  -7.801   8.724  0.00  0.00    +0.341 C 
ATOM     22  F   UNL A   1     -28.048  -7.518   9.891  0.00  0.00    -0.193 F 
ATOM     23  F   UNL A   1     -26.585  -7.592   7.712  0.00  0.00    -0.193 F 
ATOM     24  F   UNL A   1     -26.635  -5.781   8.049  0.00  0.00    -0.193 F 
ATOM     25  F   UNL A   1     -28.525  -5.973   8.787  0.00  0.00    -0.193 F 
ENDBRANCH  15  16
ENDBRANCH   5  14
BRANCH   1  26
ATOM     26  C   UNL A   1     -32.485  -8.621  10.544  0.00  0.00    +0.053 C 
BRANCH  26  27
ATOM     27  C   UNL A   1     -32.100  -7.534  10.180  0.00  0.00    -0.018 A 
ATOM     28  C   UNL A   1     -32.238  -7.130   8.857  0.00  0.00    -0.004 A 
ATOM     29  C   UNL A   1     -31.797  -5.826   8.283  0.00  0.00    +0.004 A 
ATOM     30  C   UNL A   1     -31.333  -4.858   9.222  0.00  0.00    +0.057 A 
ATOM     31  C   UNL A   1     -31.257  -5.268  10.568  0.00  0.00    +0.004 A 
ATOM     32  C   UNL A   1     -31.621  -6.478  11.016  0.00  0.00    -0.004 A 
BRANCH  30  33
ATOM     33  C   UNL A   1     -30.956  -3.573   8.706  0.00  0.00    +0.284 C 
ATOM     34  N   UNL A   1     -30.221  -3.453   7.710  0.00  0.00    -0.084 NA
ATOM     35  O   UNL A   1     -31.228  -2.470   9.358  0.00  0.00    -0.267 OA
ENDBRANCH  30  33
ENDBRANCH  26  27
ENDBRANCH   1  26
TORSDOF 7
ENDMDL
ENDMDL
