MODEL 4606
MODEL 1
REMARK VINA RESULT:    -6.105      0.000      0.000
REMARK INTER + INTRA:          -7.628
REMARK INTER:                  -7.176
REMARK INTRA:                  -0.452
REMARK UNBOUND:                -0.452
REMARK  Name = No_4606-gen_results/8p0m/2024-11-27-11-27-31/
REMARK  3 active torsions:
REMARK  status: ('A' for Active; 'I' for Inactive)
REMARK    1  A    between atoms: C_2  and  C_5
REMARK    2  A    between atoms: C_4  and  C_13
REMARK    3  A    between atoms: C_13  and  C_14
REMARK                            x       y       z     vdW  Elec       q    Type
REMARK                         _______ _______ _______ _____ _____    ______ ____
ROOT
ATOM      1  C   UNL A   1     -29.254 -11.296  28.861  0.00  0.00    +0.004 A 
ATOM      2  C   UNL A   1     -29.472 -12.066  28.175  0.00  0.00    +0.056 A 
ATOM      3  C   UNL A   1     -28.660 -11.746  30.177  0.00  0.00    -0.004 A 
ATOM      4  C   UNL A   1     -29.246 -12.526  30.835  0.00  0.00    -0.022 A 
ATOM      5  C   UNL A   1     -29.835 -13.691  30.029  0.00  0.00    -0.004 A 
ATOM      6  C   UNL A   1     -30.030 -13.451  28.610  0.00  0.00    +0.004 A 
ENDROOT
BRANCH   2   7
ATOM      7  C   UNL A   1     -30.051 -11.646  26.854  0.00  0.00    +0.273 C 
ATOM      8  N   UNL A   1     -29.948 -12.267  25.775  0.00  0.00    -0.111 NA
ATOM      9  C   UNL A   1     -30.677 -12.674  24.978  0.00  0.00    +0.416 C 
ATOM     10  F   UNL A   1     -31.802 -12.167  25.005  0.00  0.00    -0.142 F 
ATOM     11  O   UNL A   1     -30.389 -12.789  23.674  0.00  0.00    -0.234 OA
ATOM     12  O   UNL A   1     -30.434 -10.454  26.797  0.00  0.00    -0.268 OA
ENDBRANCH   2   7
BRANCH   4  13
ATOM     13  C   UNL A   1     -28.886 -12.971  32.187  0.00  0.00    +0.032 C 
BRANCH  13  14
ATOM     14  C   UNL A   1     -28.272 -11.906  32.987  0.00  0.00    +0.047 C 
ATOM     15  C   UNL A   1     -27.188 -12.025  33.599  0.00  0.00    +0.067 C 
ATOM     16  N   UNL A   1     -26.846 -10.985  34.485  0.00  0.00    -0.274 NA
ATOM     17  C   UNL A   1     -27.811 -10.010  34.437  0.00  0.00    +0.126 C 
ATOM     18  C   UNL A   1     -28.734 -10.522  33.516  0.00  0.00    +0.033 C 
ENDBRANCH  13  14
ENDBRANCH   4  13
TORSDOF 3
ENDMDL
ENDMDL
