REMARK  Name = No_4606-gen_results/8p0m/2024-11-27-11-27-31/
REMARK  3 active torsions:
REMARK  status: ('A' for Active; 'I' for Inactive)
REMARK    1  A    between atoms: C_2  and  C_5
REMARK    2  A    between atoms: C_4  and  C_13
REMARK    3  A    between atoms: C_13  and  C_14
REMARK                            x       y       z     vdW  Elec       q    Type
REMARK                         _______ _______ _______ _____ _____    ______ ____
ROOT
ATOM      1  C   UNL A   1     -28.016  -0.814  28.878  0.00  0.00    +0.004 A 
ATOM      2  C   UNL A   1     -28.469  -0.785  29.829  0.00  0.00    +0.056 A 
ATOM      3  C   UNL A   1     -26.504  -0.778  28.877  0.00  0.00    -0.004 A 
ATOM      4  C   UNL A   1     -25.950   0.116  29.405  0.00  0.00    -0.022 A 
ATOM      5  C   UNL A   1     -26.544   0.487  30.770  0.00  0.00    -0.004 A 
ATOM      6  C   UNL A   1     -27.917   0.075  31.002  0.00  0.00    +0.004 A 
ENDROOT
BRANCH   2   7
ATOM      7  C   UNL A   1     -29.971  -0.832  29.860  0.00  0.00    +0.273 C 
ATOM      8  N   UNL A   1     -30.718  -0.045  30.479  0.00  0.00    -0.111 NA
ATOM      9  C   UNL A   1     -31.614   0.633  30.212  0.00  0.00    +0.416 C 
ATOM     10  F   UNL A   1     -32.179   0.343  29.154  0.00  0.00    -0.142 F 
ATOM     11  O   UNL A   1     -32.610   0.940  31.054  0.00  0.00    -0.234 OA
ATOM     12  O   UNL A   1     -30.477  -1.901  29.446  0.00  0.00    -0.268 OA
ENDBRANCH   2   7
BRANCH   4  13
ATOM     13  C   UNL A   1     -24.506   0.378  29.389  0.00  0.00    +0.032 C 
BRANCH  13  14
ATOM     14  C   UNL A   1     -24.119   1.342  28.353  0.00  0.00    +0.047 C 
ATOM     15  C   UNL A   1     -24.762   2.380  28.086  0.00  0.00    +0.067 C 
ATOM     16  N   UNL A   1     -24.373   3.084  26.930  0.00  0.00    -0.274 NA
ATOM     17  C   UNL A   1     -23.294   2.457  26.356  0.00  0.00    +0.126 C 
ATOM     18  C   UNL A   1     -23.081   1.359  27.199  0.00  0.00    +0.033 C 
ENDBRANCH  13  14
ENDBRANCH   4  13
TORSDOF 3
