REMARK  Name = outputs/IAG933/test6/raw/output_4607_IAG933_linker_design_.xyz
REMARK  14 active torsions:
REMARK  status: ('A' for Active; 'I' for Inactive)
REMARK    1  A    between atoms: C_1  and  C_2
REMARK    2  A    between atoms: C_1  and  C_8
REMARK    3  A    between atoms: C_1  and  C_31
REMARK    4  A    between atoms: C_13  and  C_38
REMARK    5  A    between atoms: C_14  and  C_15
REMARK    6  A    between atoms: C_21  and  O_22
REMARK    7  A    between atoms: O_22  and  C_23
REMARK    8  A    between atoms: C_23  and  C_24
REMARK    9  A    between atoms: N_28  and  C_30
REMARK   10  A    between atoms: C_29  and  C_42
REMARK   11  A    between atoms: C_30  and  C_31
REMARK   12  A    between atoms: C_30  and  N_34
REMARK   13  A    between atoms: C_33  and  N_41
REMARK   14  A    between atoms: C_33  and  C_42
REMARK                            x       y       z     vdW  Elec       q    Type
REMARK                         _______ _______ _______ _____ _____    ______ ____
ROOT
ATOM      1  C   UNL A   1     -25.426   1.313  29.156  0.00  0.00    +0.157 C 
ENDROOT
BRANCH   1   2
ATOM      2  N   UNL A   1     -24.386   1.428  28.372  0.00  0.00    -0.252 NA
ATOM      3  C   UNL A   1     -22.756   1.677  26.941  0.00  0.00    +0.053 C 
ATOM      4  C   UNL A   1     -24.465   1.372  27.028  0.00  0.00    +0.087 C 
ATOM      5  F   UNL A   1     -21.360   0.526  27.693  0.00  0.00    -0.236 F 
ATOM      6  C   UNL A   1     -23.121   1.365  28.939  0.00  0.00    +0.109 C 
ATOM      7  C   UNL A   1     -22.296   1.180  27.919  0.00  0.00    +0.178 C 
ATOM      8  C   UNL A   1     -22.474   2.498  25.512  0.00  0.00    +0.005 C 
BRANCH   4   9
ATOM      9  C   UNL A   1     -25.688   1.614  26.461  0.00  0.00    +0.030 C 
ATOM     10  C   UNL A   1     -26.250   2.920  26.395  0.00  0.00    +0.074 C 
ATOM     11  C   UNL A   1     -27.438   3.091  25.645  0.00  0.00    +0.106 C 
ATOM     12  N   UNL A   1     -28.075   2.089  25.003  0.00  0.00    -0.208 NA
ATOM     13  C   UNL A   1     -27.543   0.849  25.079  0.00  0.00    +0.253 C 
ATOM     14  C   UNL A   1     -26.354   0.576  25.777  0.00  0.00    +0.190 C 
ATOM     15  F   UNL A   1     -25.860  -0.681  25.795  0.00  0.00    -0.200 F 
BRANCH  10  16
ATOM     16  C   UNL A   1     -25.642   4.093  27.123  0.00  0.00    +0.266 C 
ATOM     17  N   UNL A   1     -25.614   5.252  26.449  0.00  0.00    -0.200 NA
ATOM     18  C   UNL A   1     -25.026   6.479  26.963  0.00  0.00    +0.139 C 
ATOM     19  O   UNL A   1     -25.143   3.966  28.243  0.00  0.00    -0.268 OA
ENDBRANCH  10  16
BRANCH  13  20
ATOM     20  O   UNL A   1     -28.193  -0.208  24.477  0.00  0.00    -0.456 OA
BRANCH  20  21
ATOM     21  C   UNL A   1     -29.460   0.005  23.866  0.00  0.00    +0.243 C 
BRANCH  21  22
ATOM     22  C   UNL A   1     -30.065  -1.377  23.573  0.00  0.00    +0.229 C 
ATOM     23  O   UNL A   1     -30.729  -1.878  24.721  0.00  0.00    -0.216 OA
ENDBRANCH  21  22
ENDBRANCH  20  21
ENDBRANCH  13  20
ENDBRANCH   4   9
ENDBRANCH   1   2
BRANCH   1  25
ATOM     24  C   UNL A   1     -26.125   3.540  30.742  0.00  0.00    +0.340 C 
ATOM     25  N   UNL A   1     -26.073   2.415  29.758  0.00  0.00    -0.172 NA
ATOM     26  N   UNL A   1     -26.269   4.982  30.567  0.00  0.00    -0.189 NA
ATOM     27  O   UNL A   1     -26.046   3.195  31.844  0.00  0.00    -0.249 OA
BRANCH  26  28
ATOM     28  C   UNL A   1     -27.180   5.557  31.554  0.00  0.00    +0.100 C 
ATOM     29  C   UNL A   1     -28.619   5.730  31.094  0.00  0.00    +0.024 C 
BRANCH  28  30
ATOM     30  C   UNL A   1     -26.812   7.003  32.075  0.00  0.00    +0.055 C 
BRANCH  30  31
ATOM     31  C   UNL A   1     -25.453   7.407  32.263  0.00  0.00    +0.154 C 
ATOM     32  O   UNL A   1     -24.510   6.728  31.708  0.00  0.00    -0.223 OA
ATOM     33  C   UNL A   1     -25.262   8.475  33.316  0.00  0.00    +0.035 C 
ENDBRANCH  30  31
ENDBRANCH  28  30
ENDBRANCH  26  28
ENDBRANCH   1  25
BRANCH   1  34
ATOM     34  C   UNL A   1     -25.866  -0.158  29.275  0.00  0.00    +0.044 C 
BRANCH  34  35
ATOM     35  C   UNL A   1     -24.855  -1.012  30.143  0.00  0.00    +0.042 C 
BRANCH  35  36
ATOM     36  C   UNL A   1     -24.973  -2.505  29.788  0.00  0.00    -0.021 C 
ATOM     37  C   UNL A   1     -23.906  -3.173  29.146  0.00  0.00    -0.004 C 
ATOM     38  C   UNL A   1     -23.989  -4.549  28.853  0.00  0.00    -0.000 C 
ATOM     39  C   UNL A   1     -25.137  -5.280  29.205  0.00  0.00    -0.000 C 
ATOM     40  C   UNL A   1     -26.232  -4.611  29.784  0.00  0.00    -0.000 C 
ATOM     41  C   UNL A   1     -26.155  -3.232  30.065  0.00  0.00    -0.004 C 
ENDBRANCH  35  36
BRANCH  35  42
ATOM     42  C   UNL A   1     -25.387  -0.679  31.571  0.00  0.00    +0.077 C 
ATOM     43  C   UNL A   1     -25.189   0.773  32.028  0.00  0.00    +0.019 C 
ATOM     44  C   UNL A   1     -25.336   0.684  33.544  0.00  0.00    +0.020 C 
ATOM     45  C   UNL A   1     -24.829  -0.715  33.905  0.00  0.00    +0.089 C 
ATOM     46  N   UNL A   1     -24.758  -1.481  32.646  0.00  0.00    -0.219 NA
ENDBRANCH  35  42
ENDBRANCH  34  35
ENDBRANCH   1  34
TORSDOF 14
