MODEL 4607
MODEL 1
REMARK VINA RESULT:    -7.890      0.000      0.000
REMARK INTER + INTRA:         -10.792
REMARK INTER:                  -9.735
REMARK INTRA:                  -1.056
REMARK UNBOUND:                -1.056
REMARK  Name = No_4607-gen_results/8p0m/2024-11-27-11-27-31/
REMARK  4 active torsions:
REMARK  status: ('A' for Active; 'I' for Inactive)
REMARK    1  A    between atoms: C_2  and  C_7
REMARK    2  A    between atoms: C_6  and  O_13
REMARK    3  A    between atoms: C_11  and  C_20
REMARK    4  A    between atoms: O_13  and  C_14
REMARK                            x       y       z     vdW  Elec       q    Type
REMARK                         _______ _______ _______ _____ _____    ______ ____
ROOT
ATOM      1  C   UNL A   1     -25.333   0.007  26.869  0.00  0.00    +0.037 A 
ATOM      2  C   UNL A   1     -25.374   0.952  26.116  0.00  0.00    +0.003 A 
ATOM      3  C   UNL A   1     -24.314   1.848  26.029  0.00  0.00    +0.000 A 
ATOM      4  C   UNL A   1     -23.152   1.704  26.868  0.00  0.00    +0.003 A 
ATOM      5  C   UNL A   1     -23.198   0.598  27.726  0.00  0.00    +0.037 A 
ATOM      6  C   UNL A   1     -24.232  -0.210  27.782  0.00  0.00    +0.145 A 
ENDROOT
BRANCH   2   7
ATOM      7  C   UNL A   1     -26.501   1.271  25.198  0.00  0.00    +0.000 A 
ATOM      8  C   UNL A   1     -26.881   2.160  24.866  0.00  0.00    -0.000 A 
ATOM      9  C   UNL A   1     -28.089   2.452  24.008  0.00  0.00    -0.000 A 
ATOM     10  C   UNL A   1     -28.872   1.376  23.637  0.00  0.00    +0.004 A 
ATOM     11  C   UNL A   1     -28.520   0.102  24.087  0.00  0.00    +0.071 A 
ATOM     12  C   UNL A   1     -27.388  -0.049  24.831  0.00  0.00    +0.004 A 
BRANCH  11  13
ATOM     13  C   UNL A   1     -29.326  -1.049  23.689  0.00  0.00    +0.419 C 
ATOM     14  F   UNL A   1     -29.963  -1.657  24.571  0.00  0.00    -0.166 F 
ATOM     15  F   UNL A   1     -30.380  -0.609  22.858  0.00  0.00    -0.166 F 
ATOM     16  F   UNL A   1     -28.639  -1.893  22.914  0.00  0.00    -0.166 F 
ENDBRANCH  11  13
ENDBRANCH   2   7
BRANCH   6  17
ATOM     17  O   UNL A   1     -24.212  -1.215  28.699  0.00  0.00    -0.454 OA
BRANCH  17  18
ATOM     18  C   UNL A   1     -24.901  -2.395  28.565  0.00  0.00    +0.145 A 
ATOM     19  C   UNL A   1     -26.098  -2.354  29.306  0.00  0.00    +0.037 A 
ATOM     20  C   UNL A   1     -26.370  -3.616  29.936  0.00  0.00    +0.003 A 
ATOM     21  C   UNL A   1     -25.747  -4.842  29.514  0.00  0.00    +0.000 A 
ATOM     22  C   UNL A   1     -24.509  -4.676  28.915  0.00  0.00    +0.003 A 
ATOM     23  C   UNL A   1     -24.092  -3.433  28.443  0.00  0.00    +0.037 A 
ENDBRANCH  17  18
ENDBRANCH   6  17
TORSDOF 4
ENDMDL
ENDMDL
