MODEL 4609
MODEL 1
REMARK VINA RESULT:    -6.488      0.000      0.000
REMARK INTER + INTRA:          -7.719
REMARK INTER:                  -7.247
REMARK INTRA:                  -0.472
REMARK UNBOUND:                -0.472
REMARK  Name = No_4609-gen_results/8p0m/2024-11-27-11-27-31/
REMARK  2 active torsions:
REMARK  status: ('A' for Active; 'I' for Inactive)
REMARK    1  A    between atoms: C_2  and  C_7
REMARK    2  A    between atoms: C_2  and  C_10
REMARK                            x       y       z     vdW  Elec       q    Type
REMARK                         _______ _______ _______ _____ _____    ______ ____
ROOT
ATOM      1  C   UNL A   1     -25.100  -0.826  30.458  0.00  0.00    +0.015 C 
ATOM      2  C   UNL A   1     -24.875  -1.126  29.473  0.00  0.00    +0.113 C 
ATOM      3  C   UNL A   1     -24.073  -1.196  31.431  0.00  0.00    +0.001 C 
ATOM      4  C   UNL A   1     -22.965  -0.660  31.413  0.00  0.00    +0.000 C 
ATOM      5  C   UNL A   1     -23.460  -0.753  28.890  0.00  0.00    +0.015 C 
ATOM      6  C   UNL A   1     -22.446  -0.746  29.903  0.00  0.00    +0.001 C 
ENDROOT
BRANCH   2   7
ATOM      7  C   UNL A   1     -25.041  -2.654  29.174  0.00  0.00    -0.013 A 
ATOM      8  C   UNL A   1     -26.006  -3.160  29.654  0.00  0.00    -0.004 A 
ATOM      9  C   UNL A   1     -26.111  -4.548  29.626  0.00  0.00    -0.000 A 
ATOM     10  C   UNL A   1     -25.077  -5.263  29.029  0.00  0.00    -0.000 A 
ATOM     11  C   UNL A   1     -23.975  -3.446  28.622  0.00  0.00    -0.004 A 
ATOM     12  C   UNL A   1     -24.025  -4.721  28.515  0.00  0.00    -0.000 A 
ENDBRANCH   2   7
BRANCH   2  13
ATOM     13  C   UNL A   1     -25.773  -0.609  28.259  0.00  0.00    +0.367 C 
ATOM     14  O   UNL A   1     -25.325  -0.652  27.094  0.00  0.00    -0.245 OA
ATOM     15  O   UNL A   1     -26.703   0.170  28.500  0.00  0.00    -0.245 OA
ENDBRANCH   2  13
TORSDOF 2
ENDMDL
ENDMDL
