MODEL 460
MODEL 1
REMARK VINA RESULT:    -6.657      0.000      0.000
REMARK INTER + INTRA:          -6.657
REMARK INTER:                  -6.657
REMARK INTRA:                   0.000
REMARK UNBOUND:                 0.000
REMARK  Name = No_460-gen_results/8p0m/2024-11-27-11-27-31/
REMARK  0 active torsions:
REMARK  status: ('A' for Active; 'I' for Inactive)
REMARK                            x       y       z     vdW  Elec       q    Type
REMARK                         _______ _______ _______ _____ _____    ______ ____
ROOT
ATOM      1  O   UNL A   1     -25.308   1.059  27.526  0.00  0.00    -0.273 OA
ATOM      2  C   UNL A   1     -24.560   0.442  28.293  0.00  0.00    +0.244 C 
ATOM      3  C   UNL A   1     -24.555   0.010  29.238  0.00  0.00    +0.118 C 
ATOM      4  N   UNL A   1     -23.048   0.724  27.900  0.00  0.00    -0.205 NA
ATOM      5  C   UNL A   1     -23.536  -0.595  30.157  0.00  0.00    +0.176 C 
ATOM      6  C   UNL A   1     -22.216  -0.453  29.641  0.00  0.00    +0.067 C 
ATOM      7  C   UNL A   1     -22.035   0.257  28.503  0.00  0.00    +0.119 C 
ATOM      8  C   UNL A   1     -25.949  -0.318  29.938  0.00  0.00    +0.018 C 
ATOM      9  C   UNL A   1     -26.460  -1.268  30.020  0.00  0.00    +0.030 C 
ATOM     10  C   UNL A   1     -25.807  -2.502  29.577  0.00  0.00    +0.012 A 
ATOM     11  C   UNL A   1     -26.492  -3.750  29.814  0.00  0.00    -0.001 A 
ATOM     12  C   UNL A   1     -25.856  -4.989  29.497  0.00  0.00    -0.000 A 
ATOM     13  C   UNL A   1     -24.552  -4.950  28.863  0.00  0.00    +0.003 A 
ATOM     14  C   UNL A   1     -23.922  -3.720  28.668  0.00  0.00    +0.037 A 
ATOM     15  C   UNL A   1     -24.531  -2.618  29.056  0.00  0.00    +0.134 A 
ATOM     16  O   UNL A   1     -23.787  -2.121  30.147  0.00  0.00    -0.479 OA
ENDROOT
TORSDOF 0
ENDMDL
ENDMDL
