MODEL 4610
MODEL 1
REMARK VINA RESULT:    -4.888      0.000      0.000
REMARK INTER + INTRA:          -5.235
REMARK INTER:                  -5.174
REMARK INTRA:                  -0.062
REMARK UNBOUND:                -0.062
REMARK  Name = No_4610-gen_results/8p0m/2024-11-27-11-27-31/
REMARK  1 active torsions:
REMARK  status: ('A' for Active; 'I' for Inactive)
REMARK    1  A    between atoms: C_2  and  C_7
REMARK                            x       y       z     vdW  Elec       q    Type
REMARK                         _______ _______ _______ _____ _____    ______ ____
ROOT
ATOM      1  C   UNL A   1     -23.863  -3.484  28.589  0.00  0.00    -0.000 A 
ATOM      2  C   UNL A   1     -24.633  -2.640  28.988  0.00  0.00    -0.000 A 
ATOM      3  C   UNL A   1     -25.838  -2.992  29.585  0.00  0.00    -0.000 A 
ATOM      4  C   UNL A   1     -26.231  -4.372  29.705  0.00  0.00    -0.000 A 
ATOM      5  C   UNL A   1     -25.293  -5.281  29.197  0.00  0.00    -0.000 A 
ATOM      6  C   UNL A   1     -24.174  -4.896  28.627  0.00  0.00    -0.000 A 
ENDROOT
BRANCH   2   7
ATOM      7  C   UNL A   1     -24.405  -1.171  28.921  0.00  0.00    -0.005 C 
ATOM      8  C   UNL A   1     -23.628  -0.542  29.730  0.00  0.00    -0.026 C 
ATOM      9  C   UNL A   1     -23.466  -1.105  31.137  0.00  0.00    +0.031 C 
ENDBRANCH   2   7
TORSDOF 1
ENDMDL
ENDMDL
