MODEL 4611
MODEL 1
REMARK VINA RESULT:    -4.554      0.000      0.000
REMARK INTER + INTRA:          -4.554
REMARK INTER:                  -4.554
REMARK INTRA:                   0.000
REMARK UNBOUND:                 0.000
REMARK  Name = No_4611-gen_results/8p0m/2024-11-27-11-27-31/
REMARK  0 active torsions:
REMARK  status: ('A' for Active; 'I' for Inactive)
REMARK                            x       y       z     vdW  Elec       q    Type
REMARK                         _______ _______ _______ _____ _____    ______ ____
ROOT
ATOM      1  C   UNL A   1     -10.278  -9.129  19.381  0.00  0.00    +0.002 A 
ATOM      2  C   UNL A   1      -9.393  -9.146  20.205  0.00  0.00    +0.030 A 
ATOM      3  C   UNL A   1      -8.196  -9.841  20.038  0.00  0.00    +0.140 A 
ATOM      4  C   UNL A   1      -8.006 -10.642  18.844  0.00  0.00    +0.030 A 
ATOM      5  C   UNL A   1      -9.084 -10.582  17.932  0.00  0.00    +0.002 A 
ATOM      6  C   UNL A   1     -10.175  -9.903  18.180  0.00  0.00    +0.000 A 
ATOM      7  F   UNL A   1      -7.211  -9.897  20.928  0.00  0.00    -0.204 F 
ENDROOT
TORSDOF 0
ENDMDL
ENDMDL
