MODEL 4612
MODEL 1
REMARK VINA RESULT:    -4.281      0.000      0.000
REMARK INTER + INTRA:          -4.281
REMARK INTER:                  -4.281
REMARK INTRA:                   0.000
REMARK UNBOUND:                 0.000
REMARK  Name = No_4612-gen_results/8p0m/2024-11-27-11-27-31/
REMARK  0 active torsions:
REMARK  status: ('A' for Active; 'I' for Inactive)
REMARK                            x       y       z     vdW  Elec       q    Type
REMARK                         _______ _______ _______ _____ _____    ______ ____
ROOT
ATOM      1  C   UNL A   1     -24.928  -5.350  28.942  0.00  0.00    +0.000 A 
ATOM      2  C   UNL A   1     -24.164  -4.658  28.725  0.00  0.00    +0.000 A 
ATOM      3  C   UNL A   1     -26.091  -4.753  29.598  0.00  0.00    +0.000 A 
ATOM      4  C   UNL A   1     -26.163  -3.410  29.875  0.00  0.00    +0.000 A 
ATOM      5  C   UNL A   1     -23.970  -3.218  28.893  0.00  0.00    +0.000 A 
ATOM      6  C   UNL A   1     -25.091  -2.630  29.527  0.00  0.00    +0.000 A 
ENDROOT
TORSDOF 0
ENDMDL
ENDMDL
