MODEL 4613
MODEL 1
REMARK VINA RESULT:    -7.750      0.000      0.000
REMARK INTER + INTRA:         -11.391
REMARK INTER:                 -10.016
REMARK INTRA:                  -1.375
REMARK UNBOUND:                -1.375
REMARK  Name = No_4613-gen_results/8p0m/2024-11-27-11-27-31/
REMARK  5 active torsions:
REMARK  status: ('A' for Active; 'I' for Inactive)
REMARK    1  A    between atoms: C_4  and  C_11
REMARK    2  A    between atoms: C_12  and  O_17
REMARK    3  A    between atoms: O_17  and  C_18
REMARK    4  A    between atoms: C_18  and  C_19
REMARK    5  A    between atoms: C_19  and  C_20
REMARK                            x       y       z     vdW  Elec       q    Type
REMARK                         _______ _______ _______ _____ _____    ______ ____
ROOT
ATOM      1  C   UNL A   1     -24.684  -2.558  28.947  0.00  0.00    +0.034 A 
ATOM      2  C   UNL A   1     -25.818  -2.433  29.535  0.00  0.00    +0.140 A 
ATOM      3  C   UNL A   1     -26.505  -3.562  30.016  0.00  0.00    +0.037 A 
ATOM      4  C   UNL A   1     -24.120  -3.761  28.612  0.00  0.00    +0.003 A 
ATOM      5  C   UNL A   1     -24.774  -4.953  28.950  0.00  0.00    +0.000 A 
ATOM      6  C   UNL A   1     -26.033  -4.851  29.581  0.00  0.00    +0.003 A 
ENDROOT
BRANCH   1  10
ATOM      7  C   UNL A   1     -25.747   0.140  25.795  0.00  0.00    +0.000 A 
ATOM      8  C   UNL A   1     -25.453  -0.619  26.689  0.00  0.00    +0.000 A 
ATOM      9  C   UNL A   1     -24.358  -0.430  27.532  0.00  0.00    +0.000 A 
ATOM     10  C   UNL A   1     -23.919  -1.307  28.635  0.00  0.00    +0.003 A 
ATOM     11  C   UNL A   1     -22.757  -1.102  29.461  0.00  0.00    +0.000 A 
ATOM     12  C   UNL A   1     -22.137   0.142  29.299  0.00  0.00    +0.000 A 
ATOM     13  C   UNL A   1     -24.785   1.253  25.488  0.00  0.00    +0.000 A 
ATOM     14  C   UNL A   1     -23.732   1.566  26.317  0.00  0.00    +0.000 A 
ATOM     15  C   UNL A   1     -23.427   0.717  27.366  0.00  0.00    +0.000 A 
ATOM     16  C   UNL A   1     -22.378   0.993  28.242  0.00  0.00    +0.000 A 
ENDBRANCH   1  10
BRANCH   2  17
ATOM     17  O   UNL A   1     -26.420  -1.262  29.900  0.00  0.00    -0.458 OA
BRANCH  17  18
ATOM     18  C   UNL A   1     -26.378  -0.654  31.099  0.00  0.00    +0.295 C 
ATOM     19  N   UNL A   1     -27.595  -0.922  31.897  0.00  0.00    -0.083 NA
BRANCH  18  20
ATOM     20  C   UNL A   1     -26.032   0.711  31.043  0.00  0.00    +0.277 C 
ATOM     21  O   UNL A   1     -26.280   1.202  29.655  0.00  0.00    -0.209 OA
BRANCH  20  22
ATOM     22  C   UNL A   1     -24.916   1.097  31.555  0.00  0.00    +0.275 C 
ATOM     23  C   UNL A   1     -24.959   2.150  32.355  0.00  0.00    +0.370 C 
ATOM     24  F   UNL A   1     -26.172   2.421  32.219  0.00  0.00    -0.155 F 
ATOM     25  O   UNL A   1     -24.174  -0.024  32.379  0.00  0.00    -0.282 OA
ATOM     26  O   UNL A   1     -24.394   3.369  31.905  0.00  0.00    -0.251 OA
ENDBRANCH  20  22
ENDBRANCH  18  20
ENDBRANCH  17  18
ENDBRANCH   2  17
TORSDOF 5
ENDMDL
ENDMDL
