MODEL 4614
MODEL 1
REMARK VINA RESULT:    -6.482      0.000      0.000
REMARK INTER + INTRA:          -9.259
REMARK INTER:                  -8.377
REMARK INTRA:                  -0.883
REMARK UNBOUND:                -0.883
REMARK  Name = No_4614-gen_results/8p0m/2024-11-27-11-27-31/
REMARK  5 active torsions:
REMARK  status: ('A' for Active; 'I' for Inactive)
REMARK    1  A    between atoms: C_2  and  C_5
REMARK    2  A    between atoms: C_3  and  C_4
REMARK    3  A    between atoms: C_9  and  C_10
REMARK    4  A    between atoms: C_11  and  C_12
REMARK    5  A    between atoms: C_15  and  C_16
REMARK                            x       y       z     vdW  Elec       q    Type
REMARK                         _______ _______ _______ _____ _____    ______ ____
ROOT
ATOM      1  C   UNL A   1     -25.988  -2.452  30.323  0.00  0.00    +0.007 A 
ATOM      2  C   UNL A   1     -26.659  -3.260  30.245  0.00  0.00    +0.080 A 
ATOM      3  C   UNL A   1     -24.665  -2.649  29.868  0.00  0.00    +0.000 A 
ATOM      4  C   UNL A   1     -26.357  -4.556  29.629  0.00  0.00    +0.007 A 
ATOM      5  C   UNL A   1     -25.099  -4.843  29.178  0.00  0.00    +0.000 A 
ATOM      6  C   UNL A   1     -24.196  -3.844  29.217  0.00  0.00    +0.000 A 
ENDROOT
BRANCH   2   7
ATOM      7  C   UNL A   1     -28.150  -3.147  30.627  0.00  0.00    +0.388 C 
ATOM      8  O   UNL A   1     -28.645  -3.955  31.380  0.00  0.00    -0.241 OA
ATOM      9  O   UNL A   1     -28.882  -2.255  30.135  0.00  0.00    -0.241 OA
ENDBRANCH   2   7
BRANCH   3  10
ATOM     10  C   UNL A   1     -23.628  -1.585  29.805  0.00  0.00    +0.000 C 
ATOM     11  C   UNL A   1     -23.028  -1.099  29.013  0.00  0.00    +0.000 C 
BRANCH  11  12
ATOM     12  C   UNL A   1     -22.758  -0.354  28.389  0.00  0.00    +0.000 C 
ATOM     13  C   UNL A   1     -23.380   0.948  28.107  0.00  0.00    +0.000 C 
BRANCH  13  14
ATOM     14  C   UNL A   1     -22.855   1.907  27.190  0.00  0.00    +0.000 C 
ATOM     15  C   UNL A   1     -23.426   1.877  25.905  0.00  0.00    +0.002 C 
BRANCH  15  16
ATOM     16  C   UNL A   1     -24.568   1.226  25.664  0.00  0.00    +0.032 C 
ATOM     17  C   UNL A   1     -24.678   0.374  24.657  0.00  0.00    +0.167 C 
ATOM     18  F   UNL A   1     -25.725  -0.371  24.468  0.00  0.00    -0.202 F 
ENDBRANCH  15  16
ENDBRANCH  13  14
ENDBRANCH  11  12
ENDBRANCH   3  10
TORSDOF 5
ENDMDL
ENDMDL
