MODEL 4615
MODEL 1
REMARK VINA RESULT:    -9.840      0.000      0.000
REMARK INTER + INTRA:         -14.312
REMARK INTER:                 -13.292
REMARK INTRA:                  -1.020
REMARK UNBOUND:                -1.020
REMARK  Name = No_4615-gen_results/8p0m/2024-11-27-11-27-31/
REMARK  6 active torsions:
REMARK  status: ('A' for Active; 'I' for Inactive)
REMARK    1  A    between atoms: C_2  and  C_7
REMARK    2  A    between atoms: C_7  and  N_8
REMARK    3  A    between atoms: C_7  and  C_9
REMARK    4  A    between atoms: N_8  and  C_10
REMARK    5  A    between atoms: C_11  and  C_14
REMARK    6  A    between atoms: C_30  and  C_33
REMARK                            x       y       z     vdW  Elec       q    Type
REMARK                         _______ _______ _______ _____ _____    ______ ____
ROOT
ATOM      1  C   UNL A   1     -24.096   0.295  27.909  0.00  0.00    +0.044 A 
ATOM      2  C   UNL A   1     -24.310   0.759  26.727  0.00  0.00    -0.009 A 
ATOM      3  C   UNL A   1     -22.654   0.444  28.437  0.00  0.00    +0.014 A 
ATOM      4  C   UNL A   1     -21.777   1.298  27.806  0.00  0.00    +0.001 A 
ATOM      5  C   UNL A   1     -22.224   2.058  26.707  0.00  0.00    -0.000 A 
ATOM      6  C   UNL A   1     -23.456   1.767  26.094  0.00  0.00    -0.003 A 
ENDROOT
BRANCH   2   7
ATOM      7  C   UNL A   1     -25.537   0.480  26.038  0.00  0.00    +0.024 C 
ATOM      8  C   UNL A   1     -25.590  -0.235  24.987  0.00  0.00    +0.004 C 
ATOM      9  C   UNL A   1     -26.804  -0.664  24.428  0.00  0.00    +0.000 C 
ATOM     10  C   UNL A   1     -26.255   1.899  25.597  0.00  0.00    +0.004 C 
ATOM     11  C   UNL A   1     -27.628   1.625  25.062  0.00  0.00    +0.001 C 
ATOM     12  C   UNL A   1     -27.581   0.668  23.922  0.00  0.00    +0.000 C 
ATOM     13  C   UNL A   1     -28.249   2.967  24.602  0.00  0.00    +0.000 C 
ATOM     14  C   UNL A   1     -28.519   1.102  26.187  0.00  0.00    +0.008 C 
ATOM     15  C   UNL A   1     -29.962   1.287  25.918  0.00  0.00    +0.065 C 
ATOM     16  C   UNL A   1     -30.319   2.642  25.775  0.00  0.00    +0.008 C 
ATOM     17  C   UNL A   1     -29.639   3.246  24.554  0.00  0.00    +0.000 C 
BRANCH  15  18
ATOM     18  C   UNL A   1     -30.852   0.245  26.220  0.00  0.00    +0.207 C 
ATOM     19  O   UNL A   1     -30.613  -0.755  25.961  0.00  0.00    -0.288 OA
ENDBRANCH  15  18
ENDBRANCH   2   7
BRANCH   1  20
ATOM     20  N   UNL A   1     -24.989  -0.352  28.802  0.00  0.00    -0.300 N 
ATOM     21  C   UNL A   1     -26.301   0.115  28.903  0.00  0.00    +0.113 C 
BRANCH  20  22
ATOM     22  C   UNL A   1     -24.549  -1.231  29.488  0.00  0.00    +0.118 C 
BRANCH  22  24
ATOM     23  C   UNL A   1     -25.862  -3.226  29.702  0.00  0.00    -0.002 A 
ATOM     24  C   UNL A   1     -24.852  -2.679  29.326  0.00  0.00    -0.000 A 
ATOM     25  C   UNL A   1     -23.854  -3.387  28.666  0.00  0.00    -0.002 A 
ATOM     26  C   UNL A   1     -23.972  -4.806  28.450  0.00  0.00    -0.000 A 
ATOM     27  C   UNL A   1     -25.162  -5.363  28.937  0.00  0.00    -0.000 A 
ATOM     28  C   UNL A   1     -26.067  -4.652  29.570  0.00  0.00    -0.000 A 
ENDBRANCH  22  24
BRANCH  22  29
ATOM     29  C   UNL A   1     -24.745  -0.859  30.991  0.00  0.00    -0.000 A 
ATOM     30  C   UNL A   1     -25.647  -0.415  31.536  0.00  0.00    -0.002 A 
ATOM     31  C   UNL A   1     -25.701  -0.203  32.929  0.00  0.00    -0.000 A 
ATOM     32  C   UNL A   1     -24.638  -0.563  33.706  0.00  0.00    -0.000 A 
ATOM     33  C   UNL A   1     -23.544  -1.182  33.157  0.00  0.00    -0.000 A 
ATOM     34  C   UNL A   1     -23.569  -1.359  31.726  0.00  0.00    -0.002 A 
ENDBRANCH  22  29
ENDBRANCH  20  22
ENDBRANCH   1  20
TORSDOF 6
ENDMDL
ENDMDL
