MODEL 4616
MODEL 1
REMARK VINA RESULT:    -6.983      0.000      0.000
REMARK INTER + INTRA:          -9.689
REMARK INTER:                  -8.207
REMARK INTRA:                  -1.481
REMARK UNBOUND:                -1.481
REMARK  Name = No_4616-gen_results/8p0m/2024-11-27-11-27-31/
REMARK  3 active torsions:
REMARK  status: ('A' for Active; 'I' for Inactive)
REMARK    1  A    between atoms: C_4  and  C_11
REMARK    2  A    between atoms: C_11  and  C_13
REMARK    3  A    between atoms: C_13  and  C_14
REMARK                            x       y       z     vdW  Elec       q    Type
REMARK                         _______ _______ _______ _____ _____    ______ ____
ROOT
ATOM      1  C   UNL A   1     -13.110   2.657  39.023  0.00  0.00    -0.000 A 
ATOM      2  C   UNL A   1     -12.257   2.142  38.338  0.00  0.00    -0.000 A 
ATOM      3  C   UNL A   1     -12.342   2.038  36.950  0.00  0.00    -0.004 A 
ATOM      4  C   UNL A   1     -11.359   1.418  36.040  0.00  0.00    -0.022 A 
ATOM      5  C   UNL A   1     -11.499   1.291  34.612  0.00  0.00    -0.004 A 
ATOM      6  C   UNL A   1     -12.572   2.000  34.064  0.00  0.00    -0.000 A 
ATOM      7  C   UNL A   1     -14.391   3.057  38.347  0.00  0.00    -0.000 A 
ATOM      8  C   UNL A   1     -14.528   3.072  36.978  0.00  0.00    -0.000 A 
ATOM      9  C   UNL A   1     -13.528   2.522  36.197  0.00  0.00    -0.000 A 
ATOM     10  C   UNL A   1     -13.612   2.521  34.805  0.00  0.00    -0.000 A 
ENDROOT
BRANCH   4  11
ATOM     11  C   UNL A   1     -10.105   0.812  36.593  0.00  0.00    +0.027 C 
ATOM     12  C   UNL A   1      -9.010   1.654  36.744  0.00  0.00    +0.005 C 
BRANCH  11  13
ATOM     13  C   UNL A   1     -10.036  -0.503  36.852  0.00  0.00    +0.031 C 
BRANCH  13  14
ATOM     14  C   UNL A   1     -10.586  -1.171  37.899  0.00  0.00    -0.022 A 
ATOM     15  C   UNL A   1     -11.612  -2.068  37.748  0.00  0.00    -0.004 A 
ATOM     16  C   UNL A   1     -12.245  -2.700  38.788  0.00  0.00    -0.000 A 
ATOM     17  C   UNL A   1     -12.066  -2.313  40.028  0.00  0.00    -0.000 A 
ATOM     18  C   UNL A   1     -10.990  -1.394  40.263  0.00  0.00    -0.000 A 
ATOM     19  C   UNL A   1     -10.302  -0.823  39.234  0.00  0.00    -0.004 A 
ENDBRANCH  13  14
ENDBRANCH  11  13
ENDBRANCH   4  11
TORSDOF 3
ENDMDL
ENDMDL
