REMARK  Name = outputs/IAG933/test6/raw/output_4616_IAG933_linker_design_.xyz
REMARK  14 active torsions:
REMARK  status: ('A' for Active; 'I' for Inactive)
REMARK    1  A    between atoms: C_1  and  C_2
REMARK    2  A    between atoms: C_1  and  C_8
REMARK    3  A    between atoms: C_1  and  N_33
REMARK    4  A    between atoms: C_13  and  C_39
REMARK    5  A    between atoms: C_14  and  C_15
REMARK    6  A    between atoms: C_21  and  O_22
REMARK    7  A    between atoms: O_22  and  C_23
REMARK    8  A    between atoms: C_23  and  C_24
REMARK    9  A    between atoms: C_28  and  O_35
REMARK   10  A    between atoms: O_29  and  C_36
REMARK   11  A    between atoms: C_31  and  C_39
REMARK   12  A    between atoms: N_33  and  C_39
REMARK   13  A    between atoms: N_33  and  C_40
REMARK   14  A    between atoms: C_34  and  O_35
REMARK                            x       y       z     vdW  Elec       q    Type
REMARK                         _______ _______ _______ _____ _____    ______ ____
ROOT
ATOM      1  C   UNL A   1     -25.171   1.063  27.790  0.00  0.00    +0.106 C 
ENDROOT
BRANCH   1   2
ATOM      2  C   UNL A   1     -25.688   1.614  26.461  0.00  0.00    +0.092 C 
ATOM      3  C   UNL A   1     -26.250   2.920  26.395  0.00  0.00    +0.057 C 
ATOM      4  C   UNL A   1     -27.438   3.091  25.645  0.00  0.00    +0.102 C 
ATOM      5  N   UNL A   1     -28.075   2.089  25.003  0.00  0.00    -0.212 NA
ATOM      6  C   UNL A   1     -27.543   0.849  25.079  0.00  0.00    +0.234 C 
ATOM      7  C   UNL A   1     -26.354   0.576  25.777  0.00  0.00    +0.242 C 
ATOM      8  F   UNL A   1     -25.860  -0.681  25.795  0.00  0.00    -0.227 F 
BRANCH   3   9
ATOM      9  C   UNL A   1     -25.642   4.093  27.123  0.00  0.00    +0.263 C 
ATOM     10  N   UNL A   1     -25.614   5.252  26.449  0.00  0.00    -0.200 NA
ATOM     11  C   UNL A   1     -25.026   6.479  26.963  0.00  0.00    +0.139 C 
ATOM     12  O   UNL A   1     -25.143   3.966  28.243  0.00  0.00    -0.269 OA
ENDBRANCH   3   9
BRANCH   6  13
ATOM     13  O   UNL A   1     -28.193  -0.208  24.477  0.00  0.00    -0.459 OA
BRANCH  13  14
ATOM     14  C   UNL A   1     -29.460   0.005  23.866  0.00  0.00    +0.242 C 
BRANCH  14  15
ATOM     15  C   UNL A   1     -30.065  -1.377  23.573  0.00  0.00    +0.229 C 
ATOM     16  O   UNL A   1     -30.729  -1.878  24.721  0.00  0.00    -0.216 OA
ENDBRANCH  14  15
ENDBRANCH  13  14
ENDBRANCH   6  13
ENDBRANCH   1   2
BRANCH   1  17
ATOM     17  C   UNL A   1     -23.668   1.166  27.814  0.00  0.00    +0.032 C 
ATOM     18  C   UNL A   1     -22.870   0.532  28.788  0.00  0.00    +0.000 C 
ATOM     19  C   UNL A   1     -22.982   1.874  26.896  0.00  0.00    +0.161 C 
ATOM     20  C   UNL A   1     -20.851   1.116  27.675  0.00  0.00    +0.003 C 
ATOM     21  C   UNL A   1     -21.602   1.810  26.763  0.00  0.00    +0.039 C 
ATOM     22  C   UNL A   1     -21.468   0.546  28.739  0.00  0.00    -0.000 C 
BRANCH  19  23
ATOM     23  O   UNL A   1     -23.517   2.780  26.039  0.00  0.00    -0.384 OA
ATOM     24 CL   UNL A   1     -22.398   2.829  24.597  0.00  0.00    +0.135 Cl
ENDBRANCH  19  23
ENDBRANCH   1  17
BRANCH   1  25
ATOM     25  N   UNL A   1     -25.587  -0.103  29.102  0.00  0.00    -0.298 N 
BRANCH  25  27
ATOM     26  C   UNL A   1     -28.114   0.745  29.423  0.00  0.00    +0.188 C 
ATOM     27  C   UNL A   1     -27.026  -0.298  28.931  0.00  0.00    +0.102 C 
BRANCH  26  28
ATOM     28  O   UNL A   1     -27.750   2.124  29.844  0.00  0.00    -0.471 OA
BRANCH  28  30
ATOM     29  C   UNL A   1     -27.731   3.897  31.229  0.00  0.00    +0.051 C 
ATOM     30  C   UNL A   1     -28.692   2.827  30.699  0.00  0.00    +0.206 C 
ENDBRANCH  28  30
ENDBRANCH  26  28
ENDBRANCH  25  27
BRANCH  25  31
ATOM     31  C   UNL A   1     -24.855  -1.012  30.143  0.00  0.00    +0.112 C 
BRANCH  31  32
ATOM     32  C   UNL A   1     -24.973  -2.505  29.788  0.00  0.00    -0.003 C 
ATOM     33  C   UNL A   1     -23.906  -3.173  29.146  0.00  0.00    -0.003 C 
ATOM     34  C   UNL A   1     -23.989  -4.549  28.853  0.00  0.00    -0.000 C 
ATOM     35  C   UNL A   1     -25.137  -5.280  29.205  0.00  0.00    -0.000 C 
ATOM     36  C   UNL A   1     -26.232  -4.611  29.784  0.00  0.00    -0.000 C 
ATOM     37  C   UNL A   1     -26.155  -3.232  30.065  0.00  0.00    -0.003 C 
ENDBRANCH  31  32
BRANCH  31  38
ATOM     38  C   UNL A   1     -25.387  -0.679  31.571  0.00  0.00    +0.095 C 
ATOM     39  C   UNL A   1     -25.189   0.773  32.028  0.00  0.00    +0.021 C 
ATOM     40  C   UNL A   1     -25.336   0.684  33.544  0.00  0.00    +0.020 C 
ATOM     41  C   UNL A   1     -24.829  -0.715  33.905  0.00  0.00    +0.089 C 
ATOM     42  N   UNL A   1     -24.758  -1.481  32.646  0.00  0.00    -0.217 NA
ENDBRANCH  31  38
ENDBRANCH  25  31
ENDBRANCH   1  25
TORSDOF 14
