REMARK  Name = outputs/IAG933/test6/raw/output_4617_IAG933_linker_design_.xyz
REMARK  12 active torsions:
REMARK  status: ('A' for Active; 'I' for Inactive)
REMARK    1  A    between atoms: C_1  and  C_2
REMARK    2  A    between atoms: C_1  and  C_8
REMARK    3  A    between atoms: C_1  and  C_36
REMARK    4  A    between atoms: C_13  and  N_28
REMARK    5  A    between atoms: C_14  and  C_15
REMARK    6  A    between atoms: C_21  and  O_22
REMARK    7  A    between atoms: O_22  and  C_23
REMARK    8  A    between atoms: C_23  and  C_24
REMARK    9  A    between atoms: C_30  and  C_39
REMARK   10  A    between atoms: C_30  and  C_41
REMARK   11  A    between atoms: C_37  and  S_44
REMARK   12  A    between atoms: C_39  and  S_44
REMARK                            x       y       z     vdW  Elec       q    Type
REMARK                         _______ _______ _______ _____ _____    ______ ____
ROOT
ATOM      1  N   UNL A   1     -24.962   1.263  27.511  0.00  0.00    -0.212 NA
ATOM      2  F   UNL A   1     -22.294   0.878  29.485  0.00  0.00    -0.181 F 
ATOM      3  C   UNL A   1     -22.485   1.847  27.199  0.00  0.00    +0.087 C 
ATOM      4  S   UNL A   1     -23.493   0.912  28.306  0.00  0.00    -0.055 S 
ATOM      5  C   UNL A   1     -24.666   0.044  29.310  0.00  0.00    +0.094 C 
ATOM      6  C   UNL A   1     -25.788   0.798  28.663  0.00  0.00    +0.127 C 
ATOM      7  C   UNL A   1     -23.392  -0.642  27.756  0.00  0.00    +0.087 C 
ENDROOT
BRANCH   1   8
ATOM      8  C   UNL A   1     -25.688   1.614  26.461  0.00  0.00    +0.139 C 
ATOM      9  C   UNL A   1     -26.250   2.920  26.395  0.00  0.00    +0.070 C 
ATOM     10  C   UNL A   1     -27.438   3.091  25.645  0.00  0.00    +0.103 C 
ATOM     11  N   UNL A   1     -28.075   2.089  25.003  0.00  0.00    -0.212 NA
ATOM     12  C   UNL A   1     -27.543   0.849  25.079  0.00  0.00    +0.235 C 
ATOM     13  C   UNL A   1     -26.354   0.576  25.777  0.00  0.00    +0.255 C 
ATOM     14  F   UNL A   1     -25.860  -0.681  25.795  0.00  0.00    -0.225 F 
BRANCH   9  15
ATOM     15  C   UNL A   1     -25.642   4.093  27.123  0.00  0.00    +0.264 C 
ATOM     16  N   UNL A   1     -25.614   5.252  26.449  0.00  0.00    -0.200 NA
ATOM     17  C   UNL A   1     -25.026   6.479  26.963  0.00  0.00    +0.139 C 
ATOM     18  O   UNL A   1     -25.143   3.966  28.243  0.00  0.00    -0.269 OA
ENDBRANCH   9  15
BRANCH  12  19
ATOM     19  O   UNL A   1     -28.193  -0.208  24.477  0.00  0.00    -0.459 OA
BRANCH  19  20
ATOM     20  C   UNL A   1     -29.460   0.005  23.866  0.00  0.00    +0.242 C 
BRANCH  20  21
ATOM     21  C   UNL A   1     -30.065  -1.377  23.573  0.00  0.00    +0.229 C 
ATOM     22  O   UNL A   1     -30.729  -1.878  24.721  0.00  0.00    -0.216 OA
ENDBRANCH  20  21
ENDBRANCH  19  20
ENDBRANCH  12  19
ENDBRANCH   1   8
BRANCH   5  23
ATOM     23  C   UNL A   1     -24.855  -1.012  30.143  0.00  0.00    +0.052 C 
BRANCH  23  24
ATOM     24  C   UNL A   1     -24.973  -2.505  29.788  0.00  0.00    -0.020 C 
ATOM     25  C   UNL A   1     -23.906  -3.173  29.146  0.00  0.00    -0.004 C 
ATOM     26  C   UNL A   1     -23.989  -4.549  28.853  0.00  0.00    -0.000 C 
ATOM     27  C   UNL A   1     -25.137  -5.280  29.205  0.00  0.00    -0.000 C 
ATOM     28  C   UNL A   1     -26.232  -4.611  29.784  0.00  0.00    -0.000 C 
ATOM     29  C   UNL A   1     -26.155  -3.232  30.065  0.00  0.00    -0.004 C 
ENDBRANCH  23  24
BRANCH  23  30
ATOM     30  C   UNL A   1     -25.387  -0.679  31.571  0.00  0.00    +0.078 C 
ATOM     31  C   UNL A   1     -25.189   0.773  32.028  0.00  0.00    +0.019 C 
ATOM     32  C   UNL A   1     -25.336   0.684  33.544  0.00  0.00    +0.020 C 
ATOM     33  C   UNL A   1     -24.829  -0.715  33.905  0.00  0.00    +0.089 C 
ATOM     34  N   UNL A   1     -24.758  -1.481  32.646  0.00  0.00    -0.219 NA
ENDBRANCH  23  30
ENDBRANCH   5  23
BRANCH   6  35
ATOM     35  S   UNL A   1     -27.019   1.451  29.706  0.00  0.00    -0.120 S 
BRANCH  35  36
ATOM     36  C   UNL A   1     -28.732   1.447  29.377  0.00  0.00    +0.096 C 
BRANCH  36  37
ATOM     37  C   UNL A   1     -29.420   0.008  29.353  0.00  0.00    +0.185 C 
ATOM     38  O   UNL A   1     -29.184  -0.659  28.151  0.00  0.00    -0.217 OA
BRANCH  37  43
ATOM     39  C   UNL A   1     -29.744  -1.131  33.054  0.00  0.00    -0.000 C 
ATOM     40  C   UNL A   1     -29.738  -0.323  31.909  0.00  0.00    -0.002 C 
ATOM     41  C   UNL A   1     -29.201  -3.066  31.730  0.00  0.00    -0.000 C 
ATOM     42  C   UNL A   1     -29.465  -2.514  32.994  0.00  0.00    -0.000 C 
ATOM     43  C   UNL A   1     -29.480  -0.901  30.627  0.00  0.00    +0.009 C 
ATOM     44  C   UNL A   1     -29.259  -2.262  30.562  0.00  0.00    -0.002 C 
ENDBRANCH  37  43
ENDBRANCH  36  37
ENDBRANCH  35  36
ENDBRANCH   6  35
TORSDOF 12
