MODEL 4617
MODEL 1
REMARK VINA RESULT:    -8.136      0.000      0.000
REMARK INTER + INTRA:         -10.401
REMARK INTER:                  -9.563
REMARK INTRA:                  -0.838
REMARK UNBOUND:                -0.838
REMARK  Name = No_4617-gen_results/8p0m/2024-11-27-11-27-31/
REMARK  3 active torsions:
REMARK  status: ('A' for Active; 'I' for Inactive)
REMARK    1  A    between atoms: C_4  and  C_6
REMARK    2  A    between atoms: C_16  and  C_22
REMARK    3  A    between atoms: C_22  and  P_24
REMARK                            x       y       z     vdW  Elec       q    Type
REMARK                         _______ _______ _______ _____ _____    ______ ____
ROOT
ATOM      1  C   UNL A   1     -23.416   1.058  28.065  0.00  0.00    +0.012 A 
ATOM      2  C   UNL A   1     -23.142   1.488  28.987  0.00  0.00    -0.001 A 
ATOM      3  C   UNL A   1     -24.090  -0.208  28.132  0.00  0.00    +0.134 A 
ATOM      4  C   UNL A   1     -24.228  -0.902  29.265  0.00  0.00    +0.034 A 
ATOM      5  C   UNL A   1     -23.176   0.913  30.325  0.00  0.00    -0.000 A 
ATOM      6  C   UNL A   1     -23.771  -0.244  30.378  0.00  0.00    +0.003 A 
ATOM      7  O   UNL A   1     -24.604  -0.811  27.017  0.00  0.00    -0.483 OA
ATOM      8  C   UNL A   1     -25.488   0.018  26.307  0.00  0.00    +0.133 C 
ATOM      9  C   UNL A   1     -26.880  -0.064  26.616  0.00  0.00    +0.042 C 
ATOM     10  C   UNL A   1     -27.702   0.872  26.062  0.00  0.00    +0.028 C 
ATOM     11  C   UNL A   1     -27.333   2.229  25.929  0.00  0.00    +0.002 C 
ATOM     12  C   UNL A   1     -25.888   2.396  25.771  0.00  0.00    +0.004 C 
ATOM     13  C   UNL A   1     -25.153   1.506  26.523  0.00  0.00    +0.041 C 
ATOM     14  C   UNL A   1     -23.964   1.880  27.158  0.00  0.00    +0.033 C 
ATOM     15  C   UNL A   1     -25.382  -0.335  24.861  0.00  0.00    +0.044 C 
ENDROOT
BRANCH   4  16
ATOM     16  C   UNL A   1     -24.870  -2.178  29.326  0.00  0.00    +0.003 A 
ATOM     17  C   UNL A   1     -25.871  -2.457  29.647  0.00  0.00    +0.000 A 
ATOM     18  C   UNL A   1     -26.488  -3.847  29.734  0.00  0.00    +0.000 A 
ATOM     19  C   UNL A   1     -25.667  -4.925  29.360  0.00  0.00    +0.000 A 
ATOM     20  C   UNL A   1     -24.391  -4.647  28.984  0.00  0.00    +0.000 A 
ATOM     21  C   UNL A   1     -23.923  -3.359  28.963  0.00  0.00    +0.000 A 
ENDBRANCH   4  16
BRANCH  10  22
ATOM     22  C   UNL A   1     -29.108   0.537  25.701  0.00  0.00    +0.143 C 
ATOM     23  N   UNL A   1     -29.802   0.173  26.705  0.00  0.00    -0.125 NA
BRANCH  22  24
ATOM     24  P   UNL A   1     -29.551   0.308  24.046  0.00  0.00    +0.134 P 
ATOM     25  O   UNL A   1     -28.239   0.505  23.289  0.00  0.00    -0.356 OA
ATOM     26  O   UNL A   1     -29.805  -1.214  24.118  0.00  0.00    -0.356 OA
ATOM     27  O   UNL A   1     -30.470   0.902  23.783  0.00  0.00    -0.459 OA
ENDBRANCH  22  24
ENDBRANCH  10  22
TORSDOF 3
ENDMDL
ENDMDL
