MODEL 4618
MODEL 1
REMARK VINA RESULT:    -8.291      0.000      0.000
REMARK INTER + INTRA:         -12.136
REMARK INTER:                 -10.230
REMARK INTRA:                  -1.906
REMARK UNBOUND:                -1.906
REMARK  Name = No_4618-gen_results/8p0m/2024-11-27-11-27-31/
REMARK  4 active torsions:
REMARK  status: ('A' for Active; 'I' for Inactive)
REMARK    1  A    between atoms: C_3  and  C_7
REMARK    2  A    between atoms: C_7  and  C_8
REMARK    3  A    between atoms: C_7  and  C_9
REMARK    4  A    between atoms: C_9  and  C_10
REMARK                            x       y       z     vdW  Elec       q    Type
REMARK                         _______ _______ _______ _____ _____    ______ ____
ROOT
ATOM      1  C   UNL A   1     -24.848  -1.378  29.503  0.00  0.00    +0.049 C 
ENDROOT
BRANCH   1   4
ATOM      2  C   UNL A   1     -26.086  -3.604  29.787  0.00  0.00    -0.004 A 
ATOM      3  C   UNL A   1     -26.088  -4.644  29.614  0.00  0.00    -0.000 A 
ATOM      4  C   UNL A   1     -24.969  -2.864  29.343  0.00  0.00    -0.018 A 
ATOM      5  C   UNL A   1     -23.897  -3.466  28.712  0.00  0.00    -0.004 A 
ATOM      6  C   UNL A   1     -23.984  -4.835  28.520  0.00  0.00    -0.000 A 
ATOM      7  C   UNL A   1     -25.111  -5.511  28.938  0.00  0.00    -0.000 A 
ENDBRANCH   1   4
BRANCH   1   8
ATOM      8  C   UNL A   1     -24.816  -0.921  30.829  0.00  0.00    -0.018 A 
ATOM      9  C   UNL A   1     -25.928  -0.538  31.504  0.00  0.00    -0.004 A 
ATOM     10  C   UNL A   1     -25.824   0.135  32.752  0.00  0.00    -0.000 A 
ATOM     11  C   UNL A   1     -24.891  -0.384  33.726  0.00  0.00    -0.000 A 
ATOM     12  C   UNL A   1     -23.779  -1.119  33.210  0.00  0.00    -0.000 A 
ATOM     13  C   UNL A   1     -23.714  -1.415  31.766  0.00  0.00    -0.004 A 
ENDBRANCH   1   8
BRANCH   1  14
ATOM     14  C   UNL A   1     -24.806  -0.503  28.440  0.00  0.00    +0.030 C 
ATOM     15  C   UNL A   1     -26.051  -0.267  27.786  0.00  0.00    +0.005 C 
BRANCH  14  16
ATOM     16  C   UNL A   1     -23.674   0.149  28.056  0.00  0.00    -0.022 A 
ATOM     17  C   UNL A   1     -23.846   1.246  27.179  0.00  0.00    -0.004 A 
ATOM     18  C   UNL A   1     -22.706   1.981  26.813  0.00  0.00    -0.000 A 
ATOM     19  C   UNL A   1     -21.499   1.700  27.370  0.00  0.00    -0.000 A 
ATOM     20  C   UNL A   1     -21.361   0.622  28.245  0.00  0.00    -0.000 A 
ATOM     21  C   UNL A   1     -22.391  -0.134  28.576  0.00  0.00    -0.004 A 
ENDBRANCH  14  16
ENDBRANCH   1  14
TORSDOF 4
ENDMDL
ENDMDL
