MODEL 4619
MODEL 1
REMARK VINA RESULT:    -5.882      0.000      0.000
REMARK INTER + INTRA:          -8.563
REMARK INTER:                  -7.945
REMARK INTRA:                  -0.618
REMARK UNBOUND:                -0.618
REMARK  Name = No_4619-gen_results/8p0m/2024-11-27-11-27-31/
REMARK  6 active torsions:
REMARK  status: ('A' for Active; 'I' for Inactive)
REMARK    1  A    between atoms: C_1  and  C_8
REMARK    2  A    between atoms: C_3  and  C_14
REMARK    3  A    between atoms: C_5  and  C_10
REMARK    4  A    between atoms: C_14  and  O_16
REMARK    5  A    between atoms: O_16  and  C_17
REMARK    6  A    between atoms: C_17  and  C_18
REMARK                            x       y       z     vdW  Elec       q    Type
REMARK                         _______ _______ _______ _____ _____    ______ ____
ROOT
ATOM      1  C   UNL A   1      -6.857  -0.082  11.300  0.00  0.00    +0.078 C 
ATOM      2  C   UNL A   1      -7.681   0.663  10.821  0.00  0.00    -0.028 C 
ATOM      3  C   UNL A   1      -7.465   1.505   9.744  0.00  0.00    +0.118 C 
ATOM      4  C   UNL A   1      -8.402   2.460   9.204  0.00  0.00    +0.026 C 
ATOM      5  C   UNL A   1      -9.679   2.569   9.805  0.00  0.00    +0.105 C 
ATOM      6  C   UNL A   1      -9.967   1.730  10.913  0.00  0.00    +0.016 C 
ATOM      7  C   UNL A   1      -9.005   0.881  11.368  0.00  0.00    +0.023 C 
ENDROOT
BRANCH   1   8
ATOM      8  C   UNL A   1      -7.197  -1.552  11.193  0.00  0.00    +0.387 C 
ATOM      9  O   UNL A   1      -7.608  -1.987  10.034  0.00  0.00    -0.241 OA
ATOM     10  O   UNL A   1      -6.631  -2.365  11.914  0.00  0.00    -0.241 OA
ENDBRANCH   1   8
BRANCH   5  11
ATOM     11  C   UNL A   1     -10.687   3.494   9.293  0.00  0.00    +0.364 C 
ATOM     12  O   UNL A   1     -10.423   4.718   9.399  0.00  0.00    -0.246 OA
ATOM     13  O   UNL A   1     -11.478   3.098   8.294  0.00  0.00    -0.246 OA
ENDBRANCH   5  11
BRANCH   3  14
ATOM     14  C   UNL A   1      -6.161   1.543   9.083  0.00  0.00    +0.321 C 
ATOM     15  O   UNL A   1      -5.304   2.170   9.430  0.00  0.00    -0.250 OA
BRANCH  14  16
ATOM     16  O   UNL A   1      -5.951   0.617   8.177  0.00  0.00    -0.436 OA
BRANCH  16  17
ATOM     17  C   UNL A   1      -4.919  -0.271   8.313  0.00  0.00    +0.321 C 
BRANCH  17  18
ATOM     18  C   UNL A   1      -5.073  -1.493   7.747  0.00  0.00    +0.408 C 
ATOM     19  O   UNL A   1      -6.001  -1.652   7.104  0.00  0.00    -0.241 OA
ATOM     20  O   UNL A   1      -4.077  -2.347   7.718  0.00  0.00    -0.241 OA
ENDBRANCH  17  18
ENDBRANCH  16  17
ENDBRANCH  14  16
ENDBRANCH   3  14
TORSDOF 6
ENDMDL
ENDMDL
