REMARK  Name = No_4619-gen_results/8p0m/2024-11-27-11-27-31/
REMARK  6 active torsions:
REMARK  status: ('A' for Active; 'I' for Inactive)
REMARK    1  A    between atoms: C_1  and  C_8
REMARK    2  A    between atoms: C_3  and  C_14
REMARK    3  A    between atoms: C_5  and  C_10
REMARK    4  A    between atoms: C_14  and  O_16
REMARK    5  A    between atoms: O_16  and  C_17
REMARK    6  A    between atoms: C_17  and  C_18
REMARK                            x       y       z     vdW  Elec       q    Type
REMARK                         _______ _______ _______ _____ _____    ______ ____
ROOT
ATOM      1  C   UNL A   1     -28.016  -0.814  28.878  0.00  0.00    +0.078 C 
ATOM      2  C   UNL A   1     -27.064  -0.119  28.608  0.00  0.00    -0.028 C 
ATOM      3  C   UNL A   1     -26.972   0.714  27.506  0.00  0.00    +0.118 C 
ATOM      4  C   UNL A   1     -25.820   1.491  27.116  0.00  0.00    +0.026 C 
ATOM      5  C   UNL A   1     -24.656   1.424  27.918  0.00  0.00    +0.105 C 
ATOM      6  C   UNL A   1     -24.685   0.590  29.066  0.00  0.00    +0.016 C 
ATOM      7  C   UNL A   1     -25.810  -0.127  29.334  0.00  0.00    +0.023 C 
ENDROOT
BRANCH   1   8
ATOM      8  C   UNL A   1     -28.709  -0.459  30.175  0.00  0.00    +0.387 C 
ATOM      9  O   UNL A   1     -29.427  -1.389  30.742  0.00  0.00    -0.241 OA
ATOM     10  O   UNL A   1     -28.225   0.387  30.916  0.00  0.00    -0.241 OA
ENDBRANCH   1   8
BRANCH   5  11
ATOM     11  C   UNL A   1     -23.463   2.205  27.598  0.00  0.00    +0.364 C 
ATOM     12  O   UNL A   1     -22.574   2.250  28.484  0.00  0.00    -0.246 OA
ATOM     13  O   UNL A   1     -23.095   2.326  26.321  0.00  0.00    -0.246 OA
ENDBRANCH   5  11
BRANCH   3  14
ATOM     14  C   UNL A   1     -28.080   0.813  26.557  0.00  0.00    +0.321 C 
ATOM     15  O   UNL A   1     -28.956   1.493  26.690  0.00  0.00    -0.250 OA
BRANCH  14  16
ATOM     16  O   UNL A   1     -27.894   0.227  25.397  0.00  0.00    -0.436 OA
BRANCH  16  17
ATOM     17  C   UNL A   1     -28.952  -0.028  24.567  0.00  0.00    +0.321 C 
BRANCH  17  18
ATOM     18  C   UNL A   1     -30.098  -0.470  25.141  0.00  0.00    +0.408 C 
ATOM     19  O   UNL A   1     -30.902   0.309  25.356  0.00  0.00    -0.241 OA
ATOM     20  O   UNL A   1     -30.369  -1.753  25.190  0.00  0.00    -0.241 OA
ENDBRANCH  17  18
ENDBRANCH  16  17
ENDBRANCH  14  16
ENDBRANCH   3  14
TORSDOF 6
