REMARK  Name = No_462-gen_results/8p0m/2024-11-27-11-27-31/
REMARK  1 active torsions:
REMARK  status: ('A' for Active; 'I' for Inactive)
REMARK    1  A    between atoms: C_4  and  C_7
REMARK                            x       y       z     vdW  Elec       q    Type
REMARK                         _______ _______ _______ _____ _____    ______ ____
ROOT
ATOM      1  C   UNL A   1     -28.016  -0.814  28.878  0.00  0.00    +0.041 A 
ATOM      2  C   UNL A   1     -28.469  -0.785  29.829  0.00  0.00    +0.060 A 
ATOM      3  C   UNL A   1     -26.546  -0.876  28.850  0.00  0.00    +0.141 A 
ATOM      4  C   UNL A   1     -25.804  -1.032  30.057  0.00  0.00    +0.028 A 
ATOM      5  C   UNL A   1     -26.537  -1.039  31.217  0.00  0.00    +0.003 A 
ATOM      6  C   UNL A   1     -27.884  -0.953  31.186  0.00  0.00    +0.011 A 
ATOM      7  F   UNL A   1     -25.855  -0.800  27.728  0.00  0.00    -0.204 F 
ATOM      8 CL   UNL A   1     -30.295  -0.723  29.897  0.00  0.00    -0.082 Cl
ENDROOT
BRANCH   4   9
ATOM      9  C   UNL A   1     -24.366  -1.113  30.048  0.00  0.00    +0.003 A 
ATOM     10  C   UNL A   1     -23.745  -1.369  30.812  0.00  0.00    +0.000 A 
ATOM     11  C   UNL A   1     -22.570  -0.817  31.227  0.00  0.00    +0.001 A 
ATOM     12  C   UNL A   1     -21.794  -0.196  30.207  0.00  0.00    +0.011 A 
ATOM     13  C   UNL A   1     -22.467   0.045  28.983  0.00  0.00    +0.058 A 
ATOM     14  C   UNL A   1     -23.866  -0.326  28.870  0.00  0.00    +0.011 A 
ATOM     15 CL   UNL A   1     -21.688   0.916  27.775  0.00  0.00    -0.082 Cl
ENDBRANCH   4   9
TORSDOF 1
