REMARK  Name = outputs/IAG933/test6/raw/output_4620_IAG933_linker_design_.xyz
REMARK  15 active torsions:
REMARK  status: ('A' for Active; 'I' for Inactive)
REMARK    1  A    between atoms: C_1  and  C_2
REMARK    2  A    between atoms: C_1  and  C_8
REMARK    3  A    between atoms: C_1  and  C_42
REMARK    4  A    between atoms: C_13  and  C_30
REMARK    5  A    between atoms: C_14  and  C_15
REMARK    6  A    between atoms: C_21  and  O_22
REMARK    7  A    between atoms: O_22  and  C_23
REMARK    8  A    between atoms: C_23  and  C_24
REMARK    9  A    between atoms: N_28  and  C_33
REMARK   10  A    between atoms: N_28  and  C_42
REMARK   11  A    between atoms: C_30  and  C_33
REMARK   12  A    between atoms: C_31  and  C_33
REMARK   13  A    between atoms: N_36  and  C_42
REMARK   14  A    between atoms: N_36  and  C_44
REMARK   15  A    between atoms: C_37  and  C_44
REMARK                            x       y       z     vdW  Elec       q    Type
REMARK                         _______ _______ _______ _____ _____    ______ ____
ROOT
ATOM      1  C   UNL A   1     -24.775  -0.064  28.988  0.00  0.00    +0.151 C 
ENDROOT
BRANCH   1   2
ATOM      2  C   UNL A   1     -24.855  -1.012  30.143  0.00  0.00    +0.071 C 
BRANCH   2   3
ATOM      3  C   UNL A   1     -24.973  -2.505  29.788  0.00  0.00    -0.018 C 
ATOM      4  C   UNL A   1     -23.906  -3.173  29.146  0.00  0.00    -0.004 C 
ATOM      5  C   UNL A   1     -23.989  -4.549  28.853  0.00  0.00    -0.000 C 
ATOM      6  C   UNL A   1     -25.137  -5.280  29.205  0.00  0.00    -0.000 C 
ATOM      7  C   UNL A   1     -26.232  -4.611  29.784  0.00  0.00    -0.000 C 
ATOM      8  C   UNL A   1     -26.155  -3.232  30.065  0.00  0.00    -0.004 C 
ENDBRANCH   2   3
BRANCH   2   9
ATOM      9  C   UNL A   1     -25.387  -0.679  31.571  0.00  0.00    +0.080 C 
ATOM     10  C   UNL A   1     -25.189   0.773  32.028  0.00  0.00    +0.019 C 
ATOM     11  C   UNL A   1     -25.336   0.684  33.544  0.00  0.00    +0.020 C 
ATOM     12  C   UNL A   1     -24.829  -0.715  33.905  0.00  0.00    +0.089 C 
ATOM     13  N   UNL A   1     -24.758  -1.481  32.646  0.00  0.00    -0.219 NA
ENDBRANCH   2   9
ENDBRANCH   1   2
BRANCH   1  14
ATOM     14  N   UNL A   1     -23.252   0.098  28.518  0.00  0.00    -0.202 NA
BRANCH  14  15
ATOM     15  C   UNL A   1     -23.691   1.046  27.475  0.00  0.00    +0.094 C 
BRANCH  15  16
ATOM     16  C   UNL A   1     -22.520   1.906  27.109  0.00  0.00    +0.096 C 
ATOM     17  C   UNL A   1     -21.050   1.721  27.578  0.00  0.00    +0.019 C 
ATOM     18 CL   UNL A   1     -22.609   2.428  25.429  0.00  0.00    -0.114 Cl
ENDBRANCH  15  16
BRANCH  15  19
ATOM     19  C   UNL A   1     -24.648   1.207  27.262  0.00  0.00    +0.048 C 
BRANCH  19  20
ATOM     20  C   UNL A   1     -25.688   1.614  26.461  0.00  0.00    +0.017 C 
ATOM     21  C   UNL A   1     -26.250   2.920  26.395  0.00  0.00    +0.073 C 
ATOM     22  C   UNL A   1     -27.438   3.091  25.645  0.00  0.00    +0.106 C 
ATOM     23  N   UNL A   1     -28.075   2.089  25.003  0.00  0.00    -0.208 NA
ATOM     24  C   UNL A   1     -27.543   0.849  25.079  0.00  0.00    +0.253 C 
ATOM     25  C   UNL A   1     -26.354   0.576  25.777  0.00  0.00    +0.189 C 
ATOM     26  F   UNL A   1     -25.860  -0.681  25.795  0.00  0.00    -0.200 F 
BRANCH  21  27
ATOM     27  C   UNL A   1     -25.642   4.093  27.123  0.00  0.00    +0.266 C 
ATOM     28  N   UNL A   1     -25.614   5.252  26.449  0.00  0.00    -0.200 NA
ATOM     29  C   UNL A   1     -25.026   6.479  26.963  0.00  0.00    +0.139 C 
ATOM     30  O   UNL A   1     -25.143   3.966  28.243  0.00  0.00    -0.268 OA
ENDBRANCH  21  27
BRANCH  24  31
ATOM     31  O   UNL A   1     -28.193  -0.208  24.477  0.00  0.00    -0.456 OA
BRANCH  31  32
ATOM     32  C   UNL A   1     -29.460   0.005  23.866  0.00  0.00    +0.243 C 
BRANCH  32  33
ATOM     33  C   UNL A   1     -30.065  -1.377  23.573  0.00  0.00    +0.229 C 
ATOM     34  O   UNL A   1     -30.729  -1.878  24.721  0.00  0.00    -0.216 OA
ENDBRANCH  32  33
ENDBRANCH  31  32
ENDBRANCH  24  31
ENDBRANCH  19  20
ENDBRANCH  15  19
ENDBRANCH  14  15
ENDBRANCH   1  14
BRANCH   1  35
ATOM     35  N   UNL A   1     -26.116  -0.467  28.254  0.00  0.00    -0.192 NA
BRANCH  35  36
ATOM     36  C   UNL A   1     -27.268  -0.559  29.079  0.00  0.00    +0.175 C 
BRANCH  36  41
ATOM     37  C   UNL A   1     -29.124   0.459  31.274  0.00  0.00    +0.093 C 
ATOM     38  C   UNL A   1     -30.489   2.584  30.288  0.00  0.00    +0.022 C 
ATOM     39  C   UNL A   1     -30.524   0.608  31.719  0.00  0.00    +0.022 C 
ATOM     40  C   UNL A   1     -31.300   1.498  30.843  0.00  0.00    +0.004 C 
ATOM     41  C   UNL A   1     -28.686  -0.150  28.883  0.00  0.00    +0.243 C 
ATOM     42  C   UNL A   1     -29.393   2.109  29.486  0.00  0.00    +0.093 C 
ATOM     43  N   UNL A   1     -29.105   0.695  29.820  0.00  0.00    -0.278 N 
ATOM     44  O   UNL A   1     -29.262  -0.479  27.843  0.00  0.00    -0.273 OA
ENDBRANCH  36  41
ENDBRANCH  35  36
ENDBRANCH   1  35
TORSDOF 15
