MODEL 4621
MODEL 1
REMARK VINA RESULT:    -5.081      0.000      0.000
REMARK INTER + INTRA:          -5.081
REMARK INTER:                  -5.081
REMARK INTRA:                   0.000
REMARK UNBOUND:                 0.000
REMARK  Name = No_4621-gen_results/8p0m/2024-11-27-11-27-31/
REMARK  0 active torsions:
REMARK  status: ('A' for Active; 'I' for Inactive)
REMARK                            x       y       z     vdW  Elec       q    Type
REMARK                         _______ _______ _______ _____ _____    ______ ____
ROOT
ATOM      1  C   UNL A   1     -24.273   1.782  25.919  0.00  0.00    +0.000 A 
ATOM      2  C   UNL A   1     -24.638   0.804  26.530  0.00  0.00    +0.000 A 
ATOM      3  C   UNL A   1     -23.846   0.242  27.525  0.00  0.00    +0.000 A 
ATOM      4  C   UNL A   1     -24.259  -0.859  28.320  0.00  0.00    +0.000 A 
ATOM      5  C   UNL A   1     -22.893   2.254  26.048  0.00  0.00    +0.000 A 
ATOM      6  C   UNL A   1     -22.077   1.826  27.065  0.00  0.00    +0.000 A 
ATOM      7  C   UNL A   1     -22.537   0.764  27.848  0.00  0.00    +0.000 A 
ATOM      8  C   UNL A   1     -23.479  -1.513  29.262  0.00  0.00    +0.000 A 
ATOM      9  C   UNL A   1     -22.363  -0.727  29.710  0.00  0.00    +0.000 A 
ATOM     10  C   UNL A   1     -21.793   0.265  28.941  0.00  0.00    +0.000 A 
ENDROOT
TORSDOF 0
ENDMDL
ENDMDL
