MODEL 4622
MODEL 1
REMARK VINA RESULT:    -5.307      0.000      0.000
REMARK INTER + INTRA:          -5.768
REMARK INTER:                  -5.617
REMARK INTRA:                  -0.151
REMARK UNBOUND:                -0.151
REMARK  Name = No_4622-gen_results/8p0m/2024-11-27-11-27-31/
REMARK  1 active torsions:
REMARK  status: ('A' for Active; 'I' for Inactive)
REMARK    1  A    between atoms: C_4  and  C_6
REMARK                            x       y       z     vdW  Elec       q    Type
REMARK                         _______ _______ _______ _____ _____    ______ ____
ROOT
ATOM      1  C   UNL A   1     -26.588  -3.953  29.916  0.00  0.00    -0.000 A 
ATOM      2  C   UNL A   1     -26.114  -4.849  29.629  0.00  0.00    -0.000 A 
ATOM      3  C   UNL A   1     -25.795  -2.719  29.792  0.00  0.00    +0.004 A 
ATOM      4  C   UNL A   1     -24.508  -2.743  29.179  0.00  0.00    +0.071 A 
ATOM      5  C   UNL A   1     -24.836  -5.138  28.923  0.00  0.00    -0.000 A 
ATOM      6  C   UNL A   1     -24.064  -3.998  28.762  0.00  0.00    +0.004 A 
ENDROOT
BRANCH   4   7
ATOM      7  C   UNL A   1     -23.704  -1.601  29.031  0.00  0.00    +0.419 C 
ATOM      8  F   UNL A   1     -22.588  -1.820  28.978  0.00  0.00    -0.166 F 
ATOM      9  F   UNL A   1     -23.905  -0.732  30.113  0.00  0.00    -0.166 F 
ATOM     10  F   UNL A   1     -24.091  -0.799  27.974  0.00  0.00    -0.166 F 
ENDBRANCH   4   7
TORSDOF 1
ENDMDL
ENDMDL
