MODEL 4623
MODEL 1
REMARK VINA RESULT:    -7.352      0.000      0.000
REMARK INTER + INTRA:          -5.005
REMARK INTER:                  -8.642
REMARK INTRA:                   3.637
REMARK UNBOUND:                 3.637
REMARK  Name = No_4623-gen_results/8p0m/2024-11-27-11-27-31/
REMARK  3 active torsions:
REMARK  status: ('A' for Active; 'I' for Inactive)
REMARK    1  A    between atoms: C_7  and  C_16
REMARK    2  A    between atoms: C_16  and  O_22
REMARK    3  A    between atoms: O_22  and  P_23
REMARK                            x       y       z     vdW  Elec       q    Type
REMARK                         _______ _______ _______ _____ _____    ______ ____
ROOT
ATOM      1  C   UNL A   1     -23.470  -3.008  29.019  0.00  0.00    +0.009 C 
ATOM      2  C   UNL A   1     -23.777  -2.000  29.029  0.00  0.00    +0.079 C 
ATOM      3  C   UNL A   1     -24.559  -4.021  29.292  0.00  0.00    +0.001 C 
ATOM      4  C   UNL A   1     -25.898  -3.587  29.395  0.00  0.00    +0.000 C 
ATOM      5  C   UNL A   1     -22.681  -0.950  28.732  0.00  0.00    +0.225 C 
ATOM      6  C   UNL A   1     -26.095  -2.502  29.455  0.00  0.00    +0.003 C 
ATOM      7  C   UNL A   1     -25.107  -1.417  29.158  0.00  0.00    +0.033 C 
ATOM      8  O   UNL A   1     -21.625  -1.286  29.049  0.00  0.00    -0.275 OA
ATOM      9  N   UNL A   1     -22.977   0.244  28.074  0.00  0.00    -0.281 N 
ATOM     10  C   UNL A   1     -21.910   1.153  27.763  0.00  0.00    +0.093 C 
ATOM     11  C   UNL A   1     -22.143   1.914  26.848  0.00  0.00    +0.022 C 
ATOM     12  C   UNL A   1     -23.478   2.159  26.260  0.00  0.00    +0.004 C 
ATOM     13  C   UNL A   1     -24.491   1.222  26.585  0.00  0.00    +0.020 C 
ATOM     14  C   UNL A   1     -24.227   0.239  27.380  0.00  0.00    +0.075 C 
ATOM     15  C   UNL A   1     -25.352  -0.563  27.867  0.00  0.00    +0.022 C 
ENDROOT
BRANCH   7  16
ATOM     16  C   UNL A   1     -25.132  -0.464  30.417  0.00  0.00    +0.104 C 
ATOM     17  C   UNL A   1     -24.859   0.805  30.466  0.00  0.00    +0.028 C 
ATOM     18  C   UNL A   1     -25.033   1.537  31.600  0.00  0.00    +0.002 C 
ATOM     19  C   UNL A   1     -25.297  -1.102  31.784  0.00  0.00    +0.028 C 
ATOM     20  C   UNL A   1     -25.422  -0.417  32.936  0.00  0.00    +0.002 C 
ATOM     21  C   UNL A   1     -25.239   0.965  32.868  0.00  0.00    +0.000 C 
BRANCH  16  22
ATOM     22  O   UNL A   1     -26.029  -0.289  30.897  0.00  0.00    -0.275 OA
BRANCH  22  23
ATOM     23  P   UNL A   1     -27.539  -0.194  31.118  0.00  0.00    +0.532 P 
ATOM     24  O   UNL A   1     -28.036   0.881  31.983  0.00  0.00    -0.222 OA
ATOM     25  O   UNL A   1     -28.280  -0.198  29.757  0.00  0.00    -0.115 OA
ATOM     26  O   UNL A   1     -27.997  -1.515  31.817  0.00  0.00    -0.115 OA
ENDBRANCH  22  23
ENDBRANCH  16  22
ENDBRANCH   7  16
TORSDOF 3
ENDMDL
ENDMDL
