MODEL 4624
MODEL 1
REMARK VINA RESULT:    -8.836      0.000      0.000
REMARK INTER + INTRA:         -12.901
REMARK INTER:                 -11.418
REMARK INTRA:                  -1.483
REMARK UNBOUND:                -1.483
REMARK  Name = No_4624-gen_results/8p0m/2024-11-27-11-27-31/
REMARK  5 active torsions:
REMARK  status: ('A' for Active; 'I' for Inactive)
REMARK    1  A    between atoms: C_2  and  C_20
REMARK    2  A    between atoms: C_3  and  C_4
REMARK    3  A    between atoms: C_4  and  C_8
REMARK    4  A    between atoms: C_11  and  C_12
REMARK    5  A    between atoms: C_15  and  C_23
REMARK                            x       y       z     vdW  Elec       q    Type
REMARK                         _______ _______ _______ _____ _____    ______ ____
ROOT
ATOM      1  C   UNL A   1     -23.027   0.737  27.994  0.00  0.00    -0.018 A 
ATOM      2  C   UNL A   1     -22.038   1.442  27.315  0.00  0.00    -0.004 A 
ATOM      3  C   UNL A   1     -24.145   0.379  27.163  0.00  0.00    -0.004 A 
ATOM      4  C   UNL A   1     -24.360   1.051  25.959  0.00  0.00    -0.000 A 
ATOM      5  C   UNL A   1     -23.349   2.138  25.920  0.00  0.00    -0.000 A 
ATOM      6  C   UNL A   1     -22.399   2.249  26.457  0.00  0.00    -0.000 A 
ENDROOT
BRANCH   4   7
ATOM      7  C   UNL A   1     -25.616   0.973  25.415  0.00  0.00    -0.000 A 
ATOM      8  C   UNL A   1     -26.039  -0.188  24.902  0.00  0.00    +0.000 A 
ATOM      9  C   UNL A   1     -27.261  -0.170  24.204  0.00  0.00    +0.002 A 
ATOM     10  C   UNL A   1     -28.057   0.974  24.219  0.00  0.00    +0.018 A 
ATOM     11  C   UNL A   1     -27.679   2.144  24.811  0.00  0.00    +0.002 A 
ATOM     12  C   UNL A   1     -26.459   2.152  25.426  0.00  0.00    +0.000 A 
BRANCH  10  13
ATOM     13  C   UNL A   1     -29.440   0.951  23.583  0.00  0.00    +0.081 A 
ATOM     14  N   UNL A   1     -30.376   0.398  24.108  0.00  0.00    -0.244 NA
ATOM     15  C   UNL A   1     -31.454   0.476  24.423  0.00  0.00    +0.099 A 
ATOM     16  C   UNL A   1     -32.176   1.640  23.960  0.00  0.00    +0.021 A 
ATOM     17  C   UNL A   1     -31.377   2.466  23.121  0.00  0.00    +0.003 A 
ATOM     18  C   UNL A   1     -29.875   2.314  23.141  0.00  0.00    +0.019 A 
ENDBRANCH  10  13
ENDBRANCH   4   7
BRANCH   1  19
ATOM     19  C   UNL A   1     -22.673  -0.199  28.971  0.00  0.00    +0.053 C 
BRANCH  19  22
ATOM     20  C   UNL A   1     -23.691  -2.615  28.983  0.00  0.00    +0.003 A 
ATOM     21  C   UNL A   1     -24.533  -3.167  29.297  0.00  0.00    +0.080 A 
ATOM     22  C   UNL A   1     -23.639  -1.203  29.392  0.00  0.00    -0.018 A 
ATOM     23  C   UNL A   1     -25.609  -2.852  30.266  0.00  0.00    +0.007 A 
ATOM     24  C   UNL A   1     -25.625  -1.533  30.707  0.00  0.00    -0.000 A 
ATOM     25  C   UNL A   1     -24.636  -0.654  30.319  0.00  0.00    -0.004 A 
BRANCH  21  26
ATOM     26  C   UNL A   1     -24.674  -4.693  28.812  0.00  0.00    +0.388 C 
ATOM     27  O   UNL A   1     -25.383  -5.315  29.332  0.00  0.00    -0.241 OA
ATOM     28  O   UNL A   1     -23.715  -5.163  28.109  0.00  0.00    -0.241 OA
ENDBRANCH  21  26
ENDBRANCH  19  22
ENDBRANCH   1  19
TORSDOF 5
ENDMDL
ENDMDL
