REMARK  Name = No_4624-gen_results/8p0m/2024-11-27-11-27-31/
REMARK  5 active torsions:
REMARK  status: ('A' for Active; 'I' for Inactive)
REMARK    1  A    between atoms: C_2  and  C_20
REMARK    2  A    between atoms: C_3  and  C_4
REMARK    3  A    between atoms: C_4  and  C_8
REMARK    4  A    between atoms: C_11  and  C_12
REMARK    5  A    between atoms: C_15  and  C_23
REMARK                            x       y       z     vdW  Elec       q    Type
REMARK                         _______ _______ _______ _____ _____    ______ ____
ROOT
ATOM      1  C   UNL A   1     -25.898   0.239  26.745  0.00  0.00    -0.018 A 
ATOM      2  C   UNL A   1     -25.002   0.417  25.696  0.00  0.00    -0.004 A 
ATOM      3  C   UNL A   1     -27.268   0.461  26.370  0.00  0.00    -0.004 A 
ATOM      4  C   UNL A   1     -27.564   1.183  25.213  0.00  0.00    -0.000 A 
ATOM      5  C   UNL A   1     -26.259   1.675  24.702  0.00  0.00    -0.000 A 
ATOM      6  C   UNL A   1     -25.239   1.319  24.890  0.00  0.00    -0.000 A 
ENDROOT
BRANCH   4   7
ATOM      7  C   UNL A   1     -28.825   1.711  25.111  0.00  0.00    -0.000 A 
ATOM      8  C   UNL A   1     -29.468   2.097  26.220  0.00  0.00    +0.000 A 
ATOM      9  C   UNL A   1     -30.818   2.468  26.079  0.00  0.00    +0.002 A 
ATOM     10  C   UNL A   1     -31.379   2.592  24.809  0.00  0.00    +0.018 A 
ATOM     11  C   UNL A   1     -30.711   2.283  23.660  0.00  0.00    +0.002 A 
ATOM     12  C   UNL A   1     -29.422   1.851  23.798  0.00  0.00    +0.000 A 
BRANCH  10  13
ATOM     13  C   UNL A   1     -32.795   3.126  24.648  0.00  0.00    +0.081 A 
ATOM     14  N   UNL A   1     -33.293   3.871  25.457  0.00  0.00    -0.244 NA
ATOM     15  C   UNL A   1     -33.861   4.829  25.623  0.00  0.00    +0.099 A 
ATOM     16  C   UNL A   1     -34.373   5.487  24.442  0.00  0.00    +0.021 A 
ATOM     17  C   UNL A   1     -34.101   4.745  23.258  0.00  0.00    +0.003 A 
ATOM     18  C   UNL A   1     -33.032   3.679  23.277  0.00  0.00    +0.019 A 
ENDBRANCH  10  13
ENDBRANCH   4   7
BRANCH   1  19
ATOM     19  C   UNL A   1     -25.683  -0.777  27.683  0.00  0.00    +0.053 C 
BRANCH  19  22
ATOM     20  C   UNL A   1     -28.016  -0.814  28.878  0.00  0.00    +0.003 A 
ATOM     21  C   UNL A   1     -28.469  -0.785  29.829  0.00  0.00    +0.080 A 
ATOM     22  C   UNL A   1     -26.546  -0.876  28.850  0.00  0.00    -0.018 A 
ATOM     23  C   UNL A   1     -27.918  -1.003  31.188  0.00  0.00    +0.007 A 
ATOM     24  C   UNL A   1     -26.531  -1.079  31.246  0.00  0.00    -0.000 A 
ATOM     25  C   UNL A   1     -25.780  -1.046  30.090  0.00  0.00    -0.004 A 
BRANCH  21  26
ATOM     26  C   UNL A   1     -30.068  -0.641  29.913  0.00  0.00    +0.388 C 
ATOM     27  O   UNL A   1     -30.500   0.291  29.590  0.00  0.00    -0.241 OA
ATOM     28  O   UNL A   1     -30.680  -1.471  30.669  0.00  0.00    -0.241 OA
ENDBRANCH  21  26
ENDBRANCH  19  22
ENDBRANCH   1  19
TORSDOF 5
