MODEL 4626
MODEL 1
REMARK VINA RESULT:    -5.448      0.000      0.000
REMARK INTER + INTRA:          -6.637
REMARK INTER:                  -6.403
REMARK INTRA:                  -0.234
REMARK UNBOUND:                -0.234
REMARK  Name = No_4626-gen_results/8p0m/2024-11-27-11-27-31/
REMARK  3 active torsions:
REMARK  status: ('A' for Active; 'I' for Inactive)
REMARK    1  A    between atoms: C_3  and  C_8
REMARK    2  A    between atoms: C_9  and  C_11
REMARK    3  A    between atoms: C_11  and  C_13
REMARK                            x       y       z     vdW  Elec       q    Type
REMARK                         _______ _______ _______ _____ _____    ______ ____
ROOT
ATOM      1  C   UNL A   1     -25.686  -4.793  29.547  0.00  0.00    +0.042 A 
ATOM      2  C   UNL A   1     -24.779  -4.108  29.134  0.00  0.00    +0.003 A 
ATOM      3  C   UNL A   1     -24.804  -2.714  29.134  0.00  0.00    -0.000 A 
ATOM      4  C   UNL A   1     -25.996  -2.029  29.594  0.00  0.00    +0.003 A 
ATOM      5  C   UNL A   1     -27.016  -2.893  30.052  0.00  0.00    +0.042 A 
ATOM      6  C   UNL A   1     -26.904  -4.197  30.007  0.00  0.00    +0.196 A 
ATOM      7  O   UNL A   1     -27.975  -4.933  30.428  0.00  0.00    -0.287 OA
ENDROOT
BRANCH   3   8
ATOM      8  C   UNL A   1     -23.721  -1.801  28.642  0.00  0.00    -0.006 C 
ATOM      9  C   UNL A   1     -23.026  -1.063  29.496  0.00  0.00    -0.009 C 
ATOM     10  C   UNL A   1     -23.098  -1.064  30.860  0.00  0.00    +0.029 C 
BRANCH   9  11
ATOM     11  C   UNL A   1     -22.075  -0.050  28.859  0.00  0.00    +0.212 C 
ATOM     12  F   UNL A   1     -20.881  -0.182  29.023  0.00  0.00    -0.230 F 
BRANCH  11  13
ATOM     13  C   UNL A   1     -22.565   1.135  28.283  0.00  0.00    +0.221 C 
ATOM     14  O   UNL A   1     -23.224   1.969  29.058  0.00  0.00    -0.217 OA
ENDBRANCH  11  13
ENDBRANCH   9  11
ENDBRANCH   3   8
TORSDOF 3
ENDMDL
ENDMDL
