REMARK  Name = outputs/IAG933/test6/raw/output_4627_IAG933_linker_design_.xyz
REMARK  11 active torsions:
REMARK  status: ('A' for Active; 'I' for Inactive)
REMARK    1  A    between atoms: C_1  and  C_2
REMARK    2  A    between atoms: C_1  and  C_8
REMARK    3  A    between atoms: C_1  and  N_39
REMARK    4  A    between atoms: C_13  and  C_42
REMARK    5  A    between atoms: C_14  and  C_15
REMARK    6  A    between atoms: C_21  and  O_22
REMARK    7  A    between atoms: O_22  and  C_23
REMARK    8  A    between atoms: C_23  and  C_24
REMARK    9  A    between atoms: C_30  and  C_42
REMARK   10  A    between atoms: C_33  and  C_40
REMARK   11  A    between atoms: C_35  and  C_40
REMARK                            x       y       z     vdW  Elec       q    Type
REMARK                         _______ _______ _______ _____ _____    ______ ____
ROOT
ATOM      1  C   UNL A   1     -25.866   1.070  28.984  0.00  0.00    +0.087 C 
ATOM      2  N   UNL A   1     -25.151   0.010  29.046  0.00  0.00    -0.266 NA
ATOM      3  C   UNL A   1     -25.136   1.133  27.868  0.00  0.00    +0.089 C 
ENDROOT
BRANCH   3   5
ATOM      4  C   UNL A   1     -22.763   0.710  28.557  0.00  0.00    +0.177 C 
ATOM      5  C   UNL A   1     -23.758   1.218  27.718  0.00  0.00    +0.032 C 
ATOM      6  C   UNL A   1     -21.475   0.922  28.436  0.00  0.00    +0.182 C 
ATOM      7  C   UNL A   1     -21.050   1.646  27.291  0.00  0.00    +0.070 C 
ATOM      8  F   UNL A   1     -21.500   2.195  25.073  0.00  0.00    -0.204 F 
ATOM      9  C   UNL A   1     -21.947   1.915  26.309  0.00  0.00    +0.143 C 
ATOM     10  C   UNL A   1     -23.305   1.845  26.533  0.00  0.00    +0.030 C 
ATOM     11  O   UNL A   1     -22.309  -0.110  29.288  0.00  0.00    -0.448 OA
ENDBRANCH   3   5
BRANCH   3  12
ATOM     12  C   UNL A   1     -25.688   1.614  26.461  0.00  0.00    +0.089 C 
ATOM     13  C   UNL A   1     -26.250   2.920  26.395  0.00  0.00    +0.056 C 
ATOM     14  C   UNL A   1     -27.438   3.091  25.645  0.00  0.00    +0.102 C 
ATOM     15  N   UNL A   1     -28.075   2.089  25.003  0.00  0.00    -0.212 NA
ATOM     16  C   UNL A   1     -27.543   0.849  25.079  0.00  0.00    +0.234 C 
ATOM     17  C   UNL A   1     -26.354   0.576  25.777  0.00  0.00    +0.242 C 
ATOM     18  F   UNL A   1     -25.860  -0.681  25.795  0.00  0.00    -0.227 F 
BRANCH  13  19
ATOM     19  C   UNL A   1     -25.642   4.093  27.123  0.00  0.00    +0.263 C 
ATOM     20  N   UNL A   1     -25.614   5.252  26.449  0.00  0.00    -0.200 NA
ATOM     21  C   UNL A   1     -25.026   6.479  26.963  0.00  0.00    +0.139 C 
ATOM     22  O   UNL A   1     -25.143   3.966  28.243  0.00  0.00    -0.269 OA
ENDBRANCH  13  19
BRANCH  16  23
ATOM     23  O   UNL A   1     -28.193  -0.208  24.477  0.00  0.00    -0.459 OA
BRANCH  23  24
ATOM     24  C   UNL A   1     -29.460   0.005  23.866  0.00  0.00    +0.242 C 
BRANCH  24  25
ATOM     25  C   UNL A   1     -30.065  -1.377  23.573  0.00  0.00    +0.229 C 
ATOM     26  O   UNL A   1     -30.729  -1.878  24.721  0.00  0.00    -0.216 OA
ENDBRANCH  24  25
ENDBRANCH  23  24
ENDBRANCH  16  23
ENDBRANCH   3  12
BRANCH   2  27
ATOM     27  C   UNL A   1     -24.855  -1.012  30.143  0.00  0.00    +0.097 C 
BRANCH  27  28
ATOM     28  C   UNL A   1     -24.973  -2.505  29.788  0.00  0.00    -0.006 C 
ATOM     29  C   UNL A   1     -23.906  -3.173  29.146  0.00  0.00    -0.003 C 
ATOM     30  C   UNL A   1     -23.989  -4.549  28.853  0.00  0.00    -0.000 C 
ATOM     31  C   UNL A   1     -25.137  -5.280  29.205  0.00  0.00    -0.000 C 
ATOM     32  C   UNL A   1     -26.232  -4.611  29.784  0.00  0.00    -0.000 C 
ATOM     33  C   UNL A   1     -26.155  -3.232  30.065  0.00  0.00    -0.003 C 
ENDBRANCH  27  28
BRANCH  27  34
ATOM     34  C   UNL A   1     -25.387  -0.679  31.571  0.00  0.00    +0.092 C 
ATOM     35  C   UNL A   1     -25.189   0.773  32.028  0.00  0.00    +0.021 C 
ATOM     36  C   UNL A   1     -25.336   0.684  33.544  0.00  0.00    +0.020 C 
ATOM     37  C   UNL A   1     -24.829  -0.715  33.905  0.00  0.00    +0.089 C 
ATOM     38  N   UNL A   1     -24.758  -1.481  32.646  0.00  0.00    -0.218 NA
ENDBRANCH  27  34
ENDBRANCH   2  27
BRANCH   1  39
ATOM     39  C   UNL A   1     -27.303   1.250  29.290  0.00  0.00    +0.132 C 
BRANCH  39  42
ATOM     40  O   UNL A   1     -27.385  -0.906  28.403  0.00  0.00    -0.246 OA
ATOM     41  O   UNL A   1     -29.276   0.040  28.716  0.00  0.00    -0.246 OA
ATOM     42  C   UNL A   1     -28.098   0.003  28.726  0.00  0.00    +0.366 C 
ENDBRANCH  39  42
ENDBRANCH   1  39
TORSDOF 11
