MODEL 4627
MODEL 1
REMARK VINA RESULT:    -6.714      0.000      0.000
REMARK INTER + INTRA:          -7.647
REMARK INTER:                  -7.499
REMARK INTRA:                  -0.148
REMARK UNBOUND:                -0.148
REMARK  Name = No_4627-gen_results/8p0m/2024-11-27-11-27-31/
REMARK  2 active torsions:
REMARK  status: ('A' for Active; 'I' for Inactive)
REMARK    1  A    between atoms: C_5  and  C_10
REMARK    2  A    between atoms: C_13  and  O_19
REMARK                            x       y       z     vdW  Elec       q    Type
REMARK                         _______ _______ _______ _____ _____    ______ ____
ROOT
ATOM      1  C   UNL A   1     -17.268 -22.928   8.050  0.00  0.00    +0.070 A 
ATOM      2  C   UNL A   1     -17.901 -22.019   7.565  0.00  0.00    +0.015 A 
ATOM      3  C   UNL A   1     -19.182 -21.686   7.957  0.00  0.00    +0.002 A 
ATOM      4  C   UNL A   1     -20.010 -20.657   7.356  0.00  0.00    +0.008 A 
ATOM      5  C   UNL A   1     -19.487 -19.904   6.282  0.00  0.00    +0.098 A 
ATOM      6  C   UNL A   1     -18.155 -20.251   5.854  0.00  0.00    +0.008 A 
ATOM      7  C   UNL A   1     -17.403 -21.256   6.415  0.00  0.00    +0.002 A 
ATOM      8  N   UNL A   1     -17.069 -22.875   9.401  0.00  0.00    -0.177 NA
ATOM      9  C   UNL A   1     -16.110 -23.623   9.981  0.00  0.00    +0.273 C 
ATOM     10  C   UNL A   1     -15.212 -24.269   9.167  0.00  0.00    +0.197 C 
ATOM     11  C   UNL A   1     -15.248 -24.200   7.775  0.00  0.00    +0.067 C 
ATOM     12  C   UNL A   1     -16.141 -23.370   7.226  0.00  0.00    -0.004 A 
ATOM     13  O   UNL A   1     -16.088 -23.781  11.228  0.00  0.00    -0.270 OA
ATOM     14  C   UNL A   1     -15.998 -23.111   5.829  0.00  0.00    -0.003 A 
ATOM     15  C   UNL A   1     -16.718 -21.959   5.366  0.00  0.00    -0.000 A 
ENDROOT
BRANCH   5  16
ATOM     16  C   UNL A   1     -20.231 -18.871   5.635  0.00  0.00    +0.477 C 
ATOM     17  N   UNL A   1     -20.142 -17.660   6.058  0.00  0.00    +0.205 NA
ATOM     18  N   UNL A   1     -20.904 -19.187   4.500  0.00  0.00    +0.205 NA
ENDBRANCH   5  16
BRANCH  10  19
ATOM     19  O   UNL A   1     -14.291 -25.089   9.769  0.00  0.00    -0.344 OA
ATOM     20  C   UNL A   1     -14.045 -26.303   9.403  0.00  0.00    +0.175 C 
ENDBRANCH  10  19
TORSDOF 2
ENDMDL
ENDMDL
