MODEL 4628
MODEL 1
REMARK VINA RESULT:    -7.164      0.000      0.000
REMARK INTER + INTRA:         -10.960
REMARK INTER:                  -9.259
REMARK INTRA:                  -1.702
REMARK UNBOUND:                -1.702
REMARK  Name = No_4628-gen_results/8p0m/2024-11-27-11-27-31/
REMARK  5 active torsions:
REMARK  status: ('A' for Active; 'I' for Inactive)
REMARK    1  A    between atoms: C_3  and  C_4
REMARK    2  A    between atoms: C_6  and  C_13
REMARK    3  A    between atoms: C_11  and  O_16
REMARK    4  A    between atoms: O_16  and  C_17
REMARK    5  A    between atoms: C_17  and  C_18
REMARK                            x       y       z     vdW  Elec       q    Type
REMARK                         _______ _______ _______ _____ _____    ______ ____
ROOT
ATOM      1  C   UNL A   1     -24.345   0.108  27.441  0.00  0.00    +0.035 A 
ATOM      2  C   UNL A   1     -24.626   0.373  26.055  0.00  0.00    +0.003 A 
ATOM      3  C   UNL A   1     -23.878   1.315  25.409  0.00  0.00    +0.000 A 
ATOM      4  C   UNL A   1     -23.056   2.245  25.958  0.00  0.00    +0.003 A 
ATOM      5  C   UNL A   1     -23.133   0.725  27.925  0.00  0.00    +0.149 A 
ATOM      6  C   UNL A   1     -22.604   1.885  27.231  0.00  0.00    +0.038 A 
ENDROOT
BRANCH   1   9
ATOM      7  C   UNL A   1     -25.337  -2.900  29.275  0.00  0.00    +0.007 A 
ATOM      8  C   UNL A   1     -24.670  -2.176  28.573  0.00  0.00    +0.000 A 
ATOM      9  C   UNL A   1     -25.071  -0.874  28.297  0.00  0.00    +0.003 A 
ATOM     10  C   UNL A   1     -26.682  -2.481  29.700  0.00  0.00    +0.080 A 
ATOM     11  C   UNL A   1     -27.135  -1.204  29.543  0.00  0.00    +0.007 A 
ATOM     12  C   UNL A   1     -26.320  -0.323  28.812  0.00  0.00    +0.000 A 
BRANCH  10  13
ATOM     13  C   UNL A   1     -27.579  -3.384  30.501  0.00  0.00    +0.388 C 
ATOM     14  O   UNL A   1     -27.504  -4.509  30.416  0.00  0.00    -0.241 OA
ATOM     15  O   UNL A   1     -28.296  -2.753  31.459  0.00  0.00    -0.241 OA
ENDBRANCH  10  13
ENDBRANCH   1   9
BRANCH   5  16
ATOM     16  O   UNL A   1     -22.750   0.570  29.142  0.00  0.00    -0.421 OA
BRANCH  16  17
ATOM     17  C   UNL A   1     -23.526   1.167  30.217  0.00  0.00    +0.346 C 
ATOM     18  O   UNL A   1     -23.502   2.274  30.241  0.00  0.00    -0.244 OA
BRANCH  17  19
ATOM     19  C   UNL A   1     -23.623   0.331  31.324  0.00  0.00    +0.076 A 
ATOM     20  C   UNL A   1     -22.877  -0.610  31.557  0.00  0.00    +0.006 A 
ATOM     21  C   UNL A   1     -23.046  -1.469  32.728  0.00  0.00    +0.000 A 
ATOM     22  C   UNL A   1     -24.161  -1.217  33.585  0.00  0.00    +0.000 A 
ATOM     23  C   UNL A   1     -25.040  -0.203  33.307  0.00  0.00    +0.000 A 
ATOM     24  C   UNL A   1     -24.821   0.635  32.194  0.00  0.00    +0.006 A 
ENDBRANCH  17  19
ENDBRANCH  16  17
ENDBRANCH   5  16
TORSDOF 5
ENDMDL
ENDMDL
