REMARK  Name = No_4628-gen_results/8p0m/2024-11-27-11-27-31/
REMARK  5 active torsions:
REMARK  status: ('A' for Active; 'I' for Inactive)
REMARK    1  A    between atoms: C_3  and  C_4
REMARK    2  A    between atoms: C_6  and  C_13
REMARK    3  A    between atoms: C_11  and  O_16
REMARK    4  A    between atoms: O_16  and  C_17
REMARK    5  A    between atoms: C_17  and  C_18
REMARK                            x       y       z     vdW  Elec       q    Type
REMARK                         _______ _______ _______ _____ _____    ______ ____
ROOT
ATOM      1  C   UNL A   1     -24.546   0.349  28.823  0.00  0.00    +0.035 A 
ATOM      2  C   UNL A   1     -23.241   0.022  29.332  0.00  0.00    +0.003 A 
ATOM      3  C   UNL A   1     -22.192   0.830  29.000  0.00  0.00    +0.000 A 
ATOM      4  C   UNL A   1     -22.147   1.778  28.029  0.00  0.00    +0.003 A 
ATOM      5  C   UNL A   1     -24.625   1.646  28.195  0.00  0.00    +0.149 A 
ATOM      6  C   UNL A   1     -23.413   2.259  27.682  0.00  0.00    +0.038 A 
ENDROOT
BRANCH   1   9
ATOM      7  C   UNL A   1     -28.016  -0.814  28.878  0.00  0.00    +0.007 A 
ATOM      8  C   UNL A   1     -27.064  -0.119  28.608  0.00  0.00    +0.000 A 
ATOM      9  C   UNL A   1     -25.792  -0.430  29.076  0.00  0.00    +0.003 A 
ATOM     10  C   UNL A   1     -27.882  -1.899  29.863  0.00  0.00    +0.080 A 
ATOM     11  C   UNL A   1     -26.671  -2.327  30.321  0.00  0.00    +0.007 A 
ATOM     12  C   UNL A   1     -25.543  -1.585  29.932  0.00  0.00    +0.000 A 
BRANCH  10  13
ATOM     13  C   UNL A   1     -29.059  -2.731  30.293  0.00  0.00    +0.388 C 
ATOM     14  O   UNL A   1     -30.119  -2.368  30.141  0.00  0.00    -0.241 OA
ATOM     15  O   UNL A   1     -28.747  -3.997  30.653  0.00  0.00    -0.241 OA
ENDBRANCH  10  13
ENDBRANCH   1   9
BRANCH   5  16
ATOM     16  O   UNL A   1     -25.730   2.078  27.700  0.00  0.00    -0.421 OA
BRANCH  16  17
ATOM     17  C   UNL A   1     -25.762   3.379  27.052  0.00  0.00    +0.346 C 
ATOM     18  O   UNL A   1     -24.765   3.799  26.815  0.00  0.00    -0.244 OA
BRANCH  17  19
ATOM     19  C   UNL A   1     -26.893   4.112  27.398  0.00  0.00    +0.076 A 
ATOM     20  C   UNL A   1     -28.026   3.658  27.466  0.00  0.00    +0.006 A 
ATOM     21  C   UNL A   1     -29.180   4.487  27.812  0.00  0.00    +0.000 A 
ATOM     22  C   UNL A   1     -28.960   5.884  28.017  0.00  0.00    +0.000 A 
ATOM     23  C   UNL A   1     -27.705   6.420  27.888  0.00  0.00    +0.000 A 
ATOM     24  C   UNL A   1     -26.608   5.583  27.598  0.00  0.00    +0.006 A 
ENDBRANCH  17  19
ENDBRANCH  16  17
ENDBRANCH   5  16
TORSDOF 5
