MODEL 4629
MODEL 1
REMARK VINA RESULT:    -6.889      0.000      0.000
REMARK INTER + INTRA:          -7.364
REMARK INTER:                  -7.291
REMARK INTRA:                  -0.072
REMARK UNBOUND:                -0.072
REMARK  Name = No_4629-gen_results/8p0m/2024-11-27-11-27-31/
REMARK  1 active torsions:
REMARK  status: ('A' for Active; 'I' for Inactive)
REMARK    1  A    between atoms: C_2  and  C_7
REMARK                            x       y       z     vdW  Elec       q    Type
REMARK                         _______ _______ _______ _____ _____    ______ ____
ROOT
ATOM      1  C   UNL A   1     -23.550  -1.480  28.868  0.00  0.00    -0.004 A 
ATOM      2  C   UNL A   1     -22.635  -1.253  29.262  0.00  0.00    -0.000 A 
ATOM      3  C   UNL A   1     -21.779  -0.080  29.058  0.00  0.00    -0.000 A 
ATOM      4  C   UNL A   1     -22.252   0.921  28.186  0.00  0.00    -0.000 A 
ATOM      5  C   UNL A   1     -23.513   0.764  27.622  0.00  0.00    -0.004 A 
ATOM      6  C   UNL A   1     -24.211  -0.355  27.882  0.00  0.00    -0.022 A 
ATOM      7  C   UNL A   1     -25.408  -0.689  27.234  0.00  0.00    +0.031 C 
ENDROOT
BRANCH   1   9
ATOM      8  C   UNL A   1     -25.576  -2.476  29.675  0.00  0.00    -0.000 A 
ATOM      9  C   UNL A   1     -24.500  -2.593  29.136  0.00  0.00    -0.000 A 
ATOM     10  C   UNL A   1     -24.052  -3.831  28.688  0.00  0.00    -0.000 A 
ATOM     11  C   UNL A   1     -24.836  -5.021  28.892  0.00  0.00    -0.000 A 
ATOM     12  C   UNL A   1     -26.056  -4.799  29.544  0.00  0.00    -0.000 A 
ATOM     13  C   UNL A   1     -26.426  -3.611  29.964  0.00  0.00    -0.000 A 
ENDBRANCH   1   9
TORSDOF 1
ENDMDL
ENDMDL
