MODEL 462
MODEL 1
REMARK VINA RESULT:    -7.192      0.000      0.000
REMARK INTER + INTRA:          -7.959
REMARK INTER:                  -7.612
REMARK INTRA:                  -0.347
REMARK UNBOUND:                -0.347
REMARK  Name = No_462-gen_results/8p0m/2024-11-27-11-27-31/
REMARK  1 active torsions:
REMARK  status: ('A' for Active; 'I' for Inactive)
REMARK    1  A    between atoms: C_4  and  C_7
REMARK                            x       y       z     vdW  Elec       q    Type
REMARK                         _______ _______ _______ _____ _____    ______ ____
ROOT
ATOM      1  C   UNL A   1     -22.865   0.696  28.017  0.00  0.00    +0.041 A 
ATOM      2  C   UNL A   1     -23.679   1.067  27.461  0.00  0.00    +0.060 A 
ATOM      3  C   UNL A   1     -23.045  -0.619  28.652  0.00  0.00    +0.141 A 
ATOM      4  C   UNL A   1     -24.214  -1.394  28.396  0.00  0.00    +0.028 A 
ATOM      5  C   UNL A   1     -25.164  -0.804  27.602  0.00  0.00    +0.003 A 
ATOM      6  C   UNL A   1     -24.957   0.417  27.065  0.00  0.00    +0.011 A 
ATOM      7  F   UNL A   1     -22.148  -1.141  29.468  0.00  0.00    -0.204 F 
ATOM      8 CL   UNL A   1     -23.481   2.691  26.647  0.00  0.00    -0.082 Cl
ENDROOT
BRANCH   4   9
ATOM      9  C   UNL A   1     -24.399  -2.691  28.995  0.00  0.00    +0.003 A 
ATOM     10  C   UNL A   1     -23.840  -3.530  28.864  0.00  0.00    +0.000 A 
ATOM     11  C   UNL A   1     -24.212  -4.828  28.678  0.00  0.00    +0.001 A 
ATOM     12  C   UNL A   1     -25.446  -5.202  29.283  0.00  0.00    +0.011 A 
ATOM     13  C   UNL A   1     -26.266  -4.131  29.718  0.00  0.00    +0.058 A 
ATOM     14  C   UNL A   1     -25.812  -2.769  29.500  0.00  0.00    +0.011 A 
ATOM     15 CL   UNL A   1     -27.809  -4.461  30.297  0.00  0.00    -0.082 Cl
ENDBRANCH   4   9
TORSDOF 1
ENDMDL
ENDMDL
