MODEL 4630
MODEL 1
REMARK VINA RESULT:    -6.424      0.000      0.000
REMARK INTER + INTRA:          -8.131
REMARK INTER:                  -7.550
REMARK INTRA:                  -0.581
REMARK UNBOUND:                -0.581
REMARK  Name = No_4630-gen_results/8p0m/2024-11-27-11-27-31/
REMARK  3 active torsions:
REMARK  status: ('A' for Active; 'I' for Inactive)
REMARK    1  A    between atoms: C_2  and  C_15
REMARK    2  A    between atoms: N_3  and  C_8
REMARK    3  A    between atoms: C_8  and  C_9
REMARK                            x       y       z     vdW  Elec       q    Type
REMARK                         _______ _______ _______ _____ _____    ______ ____
ROOT
ATOM      1  C   UNL A   1     -11.433   1.475  35.856  0.00  0.00    +0.087 C 
ATOM      2  C   UNL A   1     -11.559   1.584  34.815  0.00  0.00    +0.137 C 
ATOM      3  N   UNL A   1     -10.263   0.871  36.329  0.00  0.00    -0.242 NA
ATOM      4  C   UNL A   1      -9.413   0.648  35.266  0.00  0.00    +0.215 C 
ATOM      5  C   UNL A   1     -10.736   1.472  33.620  0.00  0.00    +0.104 C 
ATOM      6  N   UNL A   1      -9.509   0.865  34.028  0.00  0.00    -0.188 NA
ATOM      7 CL   UNL A   1      -7.836  -0.112  35.805  0.00  0.00    -0.077 Cl
ENDROOT
BRANCH   2   8
ATOM      8  C   UNL A   1     -12.996   2.274  34.328  0.00  0.00    +0.367 C 
ATOM      9  O   UNL A   1     -13.706   2.599  35.075  0.00  0.00    -0.246 OA
ATOM     10  O   UNL A   1     -13.261   2.027  33.088  0.00  0.00    -0.246 OA
ENDBRANCH   2   8
BRANCH   3  11
ATOM     11  C   UNL A   1      -9.906   0.448  37.638  0.00  0.00    +0.101 C 
BRANCH  11  12
ATOM     12  C   UNL A   1     -10.749  -0.568  38.221  0.00  0.00    -0.006 A 
ATOM     13  C   UNL A   1     -11.079  -0.603  39.399  0.00  0.00    -0.003 A 
ATOM     14  C   UNL A   1     -12.020  -1.633  39.876  0.00  0.00    -0.000 A 
ATOM     15  C   UNL A   1     -12.295  -2.703  39.049  0.00  0.00    -0.000 A 
ATOM     16  C   UNL A   1     -11.128  -1.815  37.516  0.00  0.00    -0.003 A 
ATOM     17  C   UNL A   1     -11.871  -2.768  37.928  0.00  0.00    -0.000 A 
ENDBRANCH  11  12
ENDBRANCH   3  11
TORSDOF 3
ENDMDL
ENDMDL
