MODEL 4631
MODEL 1
REMARK VINA RESULT:    -7.144      0.000      0.000
REMARK INTER + INTRA:          -7.280
REMARK INTER:                  -7.561
REMARK INTRA:                   0.281
REMARK UNBOUND:                 0.281
REMARK  Name = No_4631-gen_results/8p0m/2024-11-27-11-27-31/
REMARK  1 active torsions:
REMARK  status: ('A' for Active; 'I' for Inactive)
REMARK    1  A    between atoms: C_4  and  C_18
REMARK                            x       y       z     vdW  Elec       q    Type
REMARK                         _______ _______ _______ _____ _____    ______ ____
ROOT
ATOM      1  C   UNL A   1     -26.142   0.393  26.972  0.00  0.00    +0.150 A 
ATOM      2  C   UNL A   1     -26.337  -0.084  26.053  0.00  0.00    +0.038 A 
ATOM      3  C   UNL A   1     -24.954   1.245  26.949  0.00  0.00    +0.092 A 
ATOM      4  C   UNL A   1     -24.194   1.409  25.817  0.00  0.00    +0.079 A 
ATOM      5  C   UNL A   1     -25.728  -0.096  24.723  0.00  0.00    +0.003 A 
ATOM      6  C   UNL A   1     -24.577   0.727  24.690  0.00  0.00    +0.004 A 
ATOM      7  C   UNL A   1     -24.537   2.036  28.144  0.00  0.00    +0.256 C 
ATOM      8  N   UNL A   1     -23.990   1.469  29.044  0.00  0.00    -0.251 N 
ATOM      9  O   UNL A   1     -24.739   3.307  28.154  0.00  0.00    -0.270 OA
ATOM     10  C   UNL A   1     -23.835   1.904  30.225  0.00  0.00    +0.120 C 
ATOM     11  C   UNL A   1     -24.089  -0.003  29.131  0.00  0.00    +0.089 A 
ATOM     12  C   UNL A   1     -23.159  -0.514  29.559  0.00  0.00    +0.018 A 
ATOM     13  C   UNL A   1     -23.034  -2.007  29.452  0.00  0.00    +0.002 A 
ATOM     14  C   UNL A   1     -24.108  -2.662  28.910  0.00  0.00    +0.003 A 
ATOM     15  C   UNL A   1     -25.217  -1.992  28.482  0.00  0.00    +0.039 A 
ATOM     16  C   UNL A   1     -25.125  -0.663  28.447  0.00  0.00    +0.159 A 
ATOM     17  O   UNL A   1     -26.116  -0.051  27.807  0.00  0.00    -0.452 OA
ENDROOT
BRANCH   4  18
ATOM     18  C   UNL A   1     -23.042   2.312  25.729  0.00  0.00    +0.419 C 
ATOM     19  F   UNL A   1     -22.215   2.098  26.665  0.00  0.00    -0.166 F 
ATOM     20  F   UNL A   1     -22.350   2.093  24.588  0.00  0.00    -0.166 F 
ATOM     21  F   UNL A   1     -23.476   3.562  25.723  0.00  0.00    -0.166 F 
ENDBRANCH   4  18
TORSDOF 1
ENDMDL
ENDMDL
