MODEL 4632
MODEL 1
REMARK VINA RESULT:    -7.104      0.000      0.000
REMARK INTER + INTRA:          -7.809
REMARK INTER:                  -7.519
REMARK INTRA:                  -0.290
REMARK UNBOUND:                -0.290
REMARK  Name = No_4632-gen_results/8p0m/2024-11-27-11-27-31/
REMARK  1 active torsions:
REMARK  status: ('A' for Active; 'I' for Inactive)
REMARK    1  A    between atoms: C_4  and  C_16
REMARK                            x       y       z     vdW  Elec       q    Type
REMARK                         _______ _______ _______ _____ _____    ______ ____
ROOT
ATOM      1  C   UNL A   1     -25.201   0.210  30.556  0.00  0.00    -0.017 C 
ATOM      2  C   UNL A   1     -25.464   0.474  31.541  0.00  0.00    +0.122 C 
ATOM      3  C   UNL A   1     -23.751   0.175  30.326  0.00  0.00    -0.032 C 
ATOM      4  C   UNL A   1     -23.197  -0.365  29.070  0.00  0.00    +0.026 C 
ATOM      5  C   UNL A   1     -23.919  -1.392  28.421  0.00  0.00    +0.030 C 
ATOM      6  C   UNL A   1     -24.263  -2.410  29.006  0.00  0.00    -0.025 A 
ATOM      7  C   UNL A   1     -25.553  -2.357  29.822  0.00  0.00    -0.017 A 
ATOM      8  C   UNL A   1     -25.652  -1.234  30.775  0.00  0.00    +0.083 C 
ATOM      9  N   UNL A   1     -26.523  -0.198  32.234  0.00  0.00    -0.271 NA
ATOM     10  C   UNL A   1     -26.685  -1.353  31.714  0.00  0.00    +0.075 C 
ATOM     11  C   UNL A   1     -26.488  -3.404  29.775  0.00  0.00    -0.004 A 
ATOM     12  C   UNL A   1     -25.973  -4.740  29.718  0.00  0.00    -0.000 A 
ATOM     13  C   UNL A   1     -24.736  -4.914  28.946  0.00  0.00    -0.000 A 
ATOM     14  C   UNL A   1     -24.010  -3.768  28.577  0.00  0.00    -0.004 A 
ATOM     15  C   UNL A   1     -25.388   1.816  32.174  0.00  0.00    +0.031 C 
ENDROOT
BRANCH   4  16
ATOM     16  C   UNL A   1     -21.992   0.178  28.595  0.00  0.00    +0.004 C 
ATOM     17  C   UNL A   1     -20.888  -0.455  28.792  0.00  0.00    +0.000 C 
ATOM     18  C   UNL A   1     -22.048   1.333  27.773  0.00  0.00    +0.000 C 
ENDBRANCH   4  16
TORSDOF 1
ENDMDL
ENDMDL
