MODEL 4633
MODEL 1
REMARK VINA RESULT:    -7.047      0.000      0.000
REMARK INTER + INTRA:         -10.949
REMARK INTER:                  -9.931
REMARK INTRA:                  -1.018
REMARK UNBOUND:                -1.018
REMARK  Name = No_4633-gen_results/8p0m/2024-11-27-11-27-31/
REMARK  7 active torsions:
REMARK  status: ('A' for Active; 'I' for Inactive)
REMARK    1  A    between atoms: C_1  and  O_16
REMARK    2  A    between atoms: C_2  and  C_8
REMARK    3  A    between atoms: C_4  and  O_14
REMARK    4  A    between atoms: O_14  and  C_23
REMARK    5  A    between atoms: O_16  and  C_17
REMARK    6  A    between atoms: C_17  and  C_18
REMARK    7  A    between atoms: C_23  and  C_24
REMARK                            x       y       z     vdW  Elec       q    Type
REMARK                         _______ _______ _______ _____ _____    ______ ____
ROOT
ATOM      1  C   UNL A   1     -10.734   0.879  35.973  0.00  0.00    +0.144 A 
ATOM      2  C   UNL A   1     -10.194  -0.001  36.603  0.00  0.00    +0.037 A 
ATOM      3  C   UNL A   1      -8.909  -0.440  36.355  0.00  0.00    +0.042 A 
ATOM      4  C   UNL A   1      -8.170   0.207  35.325  0.00  0.00    +0.167 A 
ATOM      5  C   UNL A   1      -8.753   1.293  34.767  0.00  0.00    +0.177 A 
ATOM      6  C   UNL A   1      -9.974   1.667  35.096  0.00  0.00    +0.070 A 
ATOM      7  F   UNL A   1      -8.060   1.941  33.838  0.00  0.00    -0.201 F 
ENDROOT
BRANCH   2   8
ATOM      8  C   UNL A   1     -10.959  -0.856  37.659  0.00  0.00    +0.004 A 
ATOM      9  C   UNL A   1     -11.368  -1.849  37.495  0.00  0.00    +0.000 A 
ATOM     10  C   UNL A   1     -12.113  -2.717  38.467  0.00  0.00    +0.001 A 
ATOM     11  C   UNL A   1     -12.234  -2.232  39.769  0.00  0.00    +0.007 A 
ATOM     12  C   UNL A   1     -11.649  -0.948  40.038  0.00  0.00    +0.035 A 
ATOM     13  C   UNL A   1     -10.970  -0.213  39.016  0.00  0.00    +0.007 A 
ATOM     14 BR   UNL A   1     -11.670  -0.248  41.788  0.00  0.00    -0.049 Br
ENDBRANCH   2   8
BRANCH   4  15
ATOM     15  O   UNL A   1      -6.906  -0.205  35.086  0.00  0.00    -0.468 OA
BRANCH  15  16
ATOM     16  C   UNL A   1      -6.829  -1.366  34.574  0.00  0.00    +0.242 C 
BRANCH  16  17
ATOM     17  C   UNL A   1      -5.597  -2.017  34.522  0.00  0.00    +0.084 C 
ATOM     18  C   UNL A   1      -4.504  -1.583  34.968  0.00  0.00    +0.021 C 
ATOM     19  N   UNL A   1      -3.507  -2.143  35.350  0.00  0.00    -0.096 NA
ENDBRANCH  16  17
ENDBRANCH  15  16
ENDBRANCH   4  15
BRANCH   1  20
ATOM     20  O   UNL A   1     -11.972   1.458  36.244  0.00  0.00    -0.445 OA
BRANCH  20  21
ATOM     21  C   UNL A   1     -12.507   2.357  35.353  0.00  0.00    +0.414 C 
ATOM     22  O   UNL A   1     -13.044   1.415  34.329  0.00  0.00    -0.165 OA
BRANCH  21  23
ATOM     23  C   UNL A   1     -13.584   3.076  35.896  0.00  0.00    +0.466 C 
ATOM     24  F   UNL A   1     -14.045   2.302  36.840  0.00  0.00    -0.164 F 
ATOM     25  F   UNL A   1     -13.211   4.237  36.438  0.00  0.00    -0.164 F 
ATOM     26  F   UNL A   1     -14.634   3.276  35.128  0.00  0.00    -0.164 F 
ENDBRANCH  21  23
ENDBRANCH  20  21
ENDBRANCH   1  20
TORSDOF 7
ENDMDL
ENDMDL
