REMARK  Name = outputs/IAG933/test6/raw/output_4633_IAG933_linker_design_.xyz
REMARK  9 active torsions:
REMARK  status: ('A' for Active; 'I' for Inactive)
REMARK    1  A    between atoms: C_1  and  C_2
REMARK    2  A    between atoms: C_13  and  N_41
REMARK    3  A    between atoms: C_14  and  C_15
REMARK    4  A    between atoms: C_21  and  O_22
REMARK    5  A    between atoms: O_22  and  C_23
REMARK    6  A    between atoms: C_23  and  C_24
REMARK    7  A    between atoms: C_35  and  C_36
REMARK    8  A    between atoms: C_35  and  C_37
REMARK    9  A    between atoms: C_36  and  N_39
REMARK                            x       y       z     vdW  Elec       q    Type
REMARK                         _______ _______ _______ _____ _____    ______ ____
ROOT
ATOM      1  C   UNL A   1     -24.855  -1.012  30.143  0.00  0.00    +0.055 C 
ATOM      2  C   UNL A   1     -25.387  -0.679  31.571  0.00  0.00    +0.080 C 
ATOM      3  C   UNL A   1     -25.189   0.773  32.028  0.00  0.00    +0.034 C 
ATOM      4  C   UNL A   1     -25.336   0.684  33.544  0.00  0.00    +0.022 C 
ATOM      5  C   UNL A   1     -24.829  -0.715  33.905  0.00  0.00    +0.089 C 
ATOM      6  N   UNL A   1     -24.758  -1.481  32.646  0.00  0.00    -0.219 NA
ATOM      7  N   UNL A   1     -24.583   1.371  29.651  0.00  0.00    -0.220 NA
ATOM      8  C   UNL A   1     -22.412   0.094  29.659  0.00  0.00    +0.054 C 
ATOM      9  C   UNL A   1     -21.747   1.013  28.559  0.00  0.00    +0.190 C 
ATOM     10  O   UNL A   1     -20.833   1.106  28.009  0.00  0.00    -0.315 OA
ATOM     11  C   UNL A   1     -23.365   1.344  25.821  0.00  0.00    +0.411 C 
ATOM     12  C   UNL A   1     -24.122   0.064  27.720  0.00  0.00    +0.118 C 
ATOM     13  C   UNL A   1     -21.551   1.134  27.610  0.00  0.00    +0.320 C 
ATOM     14  C   UNL A   1     -25.554   1.619  30.811  0.00  0.00    +0.083 C 
ATOM     15  O   UNL A   1     -21.813   1.459  25.900  0.00  0.00    -0.407 OA
ATOM     16  N   UNL A   1     -24.341   1.436  26.970  0.00  0.00    -0.221 N 
ATOM     17  O   UNL A   1     -23.674   1.078  24.838  0.00  0.00    -0.226 OA
ATOM     18  C   UNL A   1     -23.957   0.030  29.302  0.00  0.00    +0.086 C 
ENDROOT
BRANCH  16  19
ATOM     19  C   UNL A   1     -25.688   1.614  26.461  0.00  0.00    +0.095 C 
ATOM     20  C   UNL A   1     -26.250   2.920  26.395  0.00  0.00    +0.090 C 
ATOM     21  C   UNL A   1     -27.438   3.091  25.645  0.00  0.00    +0.108 C 
ATOM     22  N   UNL A   1     -28.075   2.089  25.003  0.00  0.00    -0.208 NA
ATOM     23  C   UNL A   1     -27.543   0.849  25.079  0.00  0.00    +0.255 C 
ATOM     24  C   UNL A   1     -26.354   0.576  25.777  0.00  0.00    +0.207 C 
ATOM     25  F   UNL A   1     -25.860  -0.681  25.795  0.00  0.00    -0.198 F 
BRANCH  20  26
ATOM     26  C   UNL A   1     -25.642   4.093  27.123  0.00  0.00    +0.268 C 
ATOM     27  N   UNL A   1     -25.614   5.252  26.449  0.00  0.00    -0.200 NA
ATOM     28  C   UNL A   1     -25.026   6.479  26.963  0.00  0.00    +0.139 C 
ATOM     29  O   UNL A   1     -25.143   3.966  28.243  0.00  0.00    -0.268 OA
ENDBRANCH  20  26
BRANCH  23  30
ATOM     30  O   UNL A   1     -28.193  -0.208  24.477  0.00  0.00    -0.456 OA
BRANCH  30  31
ATOM     31  C   UNL A   1     -29.460   0.005  23.866  0.00  0.00    +0.243 C 
BRANCH  31  32
ATOM     32  C   UNL A   1     -30.065  -1.377  23.573  0.00  0.00    +0.229 C 
ATOM     33  O   UNL A   1     -30.729  -1.878  24.721  0.00  0.00    -0.216 OA
ENDBRANCH  31  32
ENDBRANCH  30  31
ENDBRANCH  23  30
ENDBRANCH  16  19
BRANCH   1  34
ATOM     34  C   UNL A   1     -24.973  -2.505  29.788  0.00  0.00    -0.020 C 
ATOM     35  C   UNL A   1     -23.906  -3.173  29.146  0.00  0.00    -0.004 C 
ATOM     36  C   UNL A   1     -23.989  -4.549  28.853  0.00  0.00    -0.000 C 
ATOM     37  C   UNL A   1     -25.137  -5.280  29.205  0.00  0.00    -0.000 C 
ATOM     38  C   UNL A   1     -26.232  -4.611  29.784  0.00  0.00    -0.000 C 
ATOM     39  C   UNL A   1     -26.155  -3.232  30.065  0.00  0.00    -0.004 C 
ENDBRANCH   1  34
BRANCH  14  40
ATOM     40  C   UNL A   1     -26.217   3.029  31.207  0.00  0.00    +0.104 C 
BRANCH  40  41
ATOM     41  C   UNL A   1     -25.396   3.670  32.289  0.00  0.00    +0.246 C 
ATOM     42  O   UNL A   1     -24.211   3.643  32.357  0.00  0.00    -0.273 OA
BRANCH  41  44
ATOM     43  C   UNL A   1     -26.476   5.954  33.029  0.00  0.00    +0.030 C 
ATOM     44  N   UNL A   1     -26.244   4.583  33.209  0.00  0.00    -0.188 NA
ATOM     45  C   UNL A   1     -25.536   6.440  31.953  0.00  0.00    +0.044 C 
ATOM     46  C   UNL A   1     -27.233   6.756  33.826  0.00  0.00    +0.044 C 
ENDBRANCH  41  44
ENDBRANCH  40  41
ENDBRANCH  14  40
TORSDOF 9
