MODEL 4634
MODEL 1
REMARK VINA RESULT:    -8.657      0.000      0.000
REMARK INTER + INTRA:         -11.122
REMARK INTER:                 -11.187
REMARK INTRA:                   0.065
REMARK UNBOUND:                 0.065
REMARK  Name = No_4634-gen_results/8p0m/2024-11-27-11-27-31/
REMARK  5 active torsions:
REMARK  status: ('A' for Active; 'I' for Inactive)
REMARK    1  A    between atoms: C_3  and  C_7
REMARK    2  A    between atoms: C_4  and  C_19
REMARK    3  A    between atoms: N_8  and  C_11
REMARK    4  A    between atoms: N_21  and  C_22
REMARK    5  A    between atoms: C_26  and  N_28
REMARK                            x       y       z     vdW  Elec       q    Type
REMARK                         _______ _______ _______ _____ _____    ______ ____
ROOT
ATOM      1  C   UNL A   1     -22.966   2.065  25.659  0.00  0.00    -0.003 A 
ATOM      2  C   UNL A   1     -22.038   2.223  26.132  0.00  0.00    -0.000 A 
ATOM      3  C   UNL A   1     -23.859   1.176  26.402  0.00  0.00    +0.000 A 
ATOM      4  C   UNL A   1     -23.504   0.629  27.610  0.00  0.00    +0.053 A 
ATOM      5  C   UNL A   1     -21.405   1.791  27.378  0.00  0.00    +0.000 A 
ATOM      6  C   UNL A   1     -22.261   0.930  28.105  0.00  0.00    +0.004 A 
ENDROOT
BRANCH   3   7
ATOM      7  C   UNL A   1     -25.239   0.873  25.914  0.00  0.00    +0.095 C 
ATOM      8  N   UNL A   1     -26.124   1.692  26.121  0.00  0.00    -0.305 N 
ATOM      9  C   UNL A   1     -25.497  -0.307  25.179  0.00  0.00    +0.024 C 
ATOM     10  C   UNL A   1     -26.727  -0.289  24.579  0.00  0.00    +0.004 C 
ATOM     11  C   UNL A   1     -27.799   0.593  24.979  0.00  0.00    +0.021 C 
ATOM     12  C   UNL A   1     -27.461   1.539  25.780  0.00  0.00    +0.091 C 
BRANCH   8  13
ATOM     13  C   UNL A   1     -25.847   2.893  26.950  0.00  0.00    +0.048 A 
ATOM     14  C   UNL A   1     -26.335   2.911  28.152  0.00  0.00    +0.015 A 
ATOM     15  C   UNL A   1     -25.375   4.052  26.311  0.00  0.00    +0.015 A 
ATOM     16  C   UNL A   1     -26.243   4.081  28.944  0.00  0.00    +0.001 A 
ATOM     17  C   UNL A   1     -25.264   5.230  27.082  0.00  0.00    +0.001 A 
ATOM     18  C   UNL A   1     -25.651   5.225  28.406  0.00  0.00    +0.000 A 
ENDBRANCH   8  13
ENDBRANCH   3   7
BRANCH   4  19
ATOM     19  C   UNL A   1     -24.316  -0.304  28.392  0.00  0.00    +0.269 C 
ATOM     20  O   UNL A   1     -25.334  -0.188  28.632  0.00  0.00    -0.268 OA
ATOM     21  N   UNL A   1     -23.640  -1.490  28.748  0.00  0.00    -0.175 NA
BRANCH  21  22
ATOM     22  C   UNL A   1     -24.444  -2.586  29.365  0.00  0.00    +0.075 A 
ATOM     23  C   UNL A   1     -24.145  -3.822  28.580  0.00  0.00    +0.017 A 
ATOM     24  C   UNL A   1     -24.577  -4.886  28.924  0.00  0.00    +0.003 A 
ATOM     25  C   UNL A   1     -25.873  -4.956  29.553  0.00  0.00    +0.015 A 
ATOM     26  C   UNL A   1     -26.431  -3.677  29.881  0.00  0.00    +0.049 A 
ATOM     27  C   UNL A   1     -25.722  -2.505  29.681  0.00  0.00    +0.031 A 
BRANCH  26  28
ATOM     28  N   UNL A   1     -27.702  -3.635  30.449  0.00  0.00    -0.304 N 
ATOM     29  C   UNL A   1     -28.406  -4.793  30.670  0.00  0.00    +0.112 C 
ATOM     30  C   UNL A   1     -28.328  -2.387  30.812  0.00  0.00    +0.112 C 
ENDBRANCH  26  28
ENDBRANCH  21  22
ENDBRANCH   4  19
TORSDOF 5
ENDMDL
ENDMDL
