MODEL 4635
MODEL 1
REMARK VINA RESULT:    -7.520      0.000      0.000
REMARK INTER + INTRA:         -10.962
REMARK INTER:                 -10.158
REMARK INTRA:                  -0.804
REMARK UNBOUND:                -0.804
REMARK  Name = No_4635-gen_results/8p0m/2024-11-27-11-27-31/
REMARK  6 active torsions:
REMARK  status: ('A' for Active; 'I' for Inactive)
REMARK    1  A    between atoms: C_4  and  C_11
REMARK    2  A    between atoms: C_6  and  O_17
REMARK    3  A    between atoms: O_17  and  C_18
REMARK    4  A    between atoms: C_18  and  C_19
REMARK    5  A    between atoms: C_19  and  O_20
REMARK    6  A    between atoms: O_20  and  C_21
REMARK                            x       y       z     vdW  Elec       q    Type
REMARK                         _______ _______ _______ _____ _____    ______ ____
ROOT
ATOM      1  C   UNL A   1     -26.294   0.458  26.491  0.00  0.00    +0.037 A 
ATOM      2  C   UNL A   1     -25.843  -0.447  27.153  0.00  0.00    +0.003 A 
ATOM      3  C   UNL A   1     -24.610  -0.329  27.786  0.00  0.00    +0.000 A 
ATOM      4  C   UNL A   1     -23.944  -1.373  28.617  0.00  0.00    +0.000 A 
ATOM      5  C   UNL A   1     -22.658  -1.240  29.248  0.00  0.00    +0.000 A 
ATOM      6  C   UNL A   1     -25.464   1.634  26.186  0.00  0.00    +0.139 A 
ATOM      7  C   UNL A   1     -24.270   1.859  26.827  0.00  0.00    +0.037 A 
ATOM      8  C   UNL A   1     -23.737   0.849  27.646  0.00  0.00    +0.003 A 
ATOM      9  C   UNL A   1     -22.097   0.072  29.111  0.00  0.00    +0.000 A 
ATOM     10  C   UNL A   1     -22.545   1.020  28.336  0.00  0.00    +0.000 A 
ENDROOT
BRANCH   4  11
ATOM     11  C   UNL A   1     -24.621  -2.678  28.878  0.00  0.00    +0.000 A 
ATOM     12  C   UNL A   1     -25.786  -2.619  29.454  0.00  0.00    +0.000 A 
ATOM     13  C   UNL A   1     -26.389  -3.810  29.936  0.00  0.00    +0.000 A 
ATOM     14  C   UNL A   1     -24.006  -3.837  28.549  0.00  0.00    +0.000 A 
ATOM     15  C   UNL A   1     -24.589  -5.066  28.859  0.00  0.00    +0.000 A 
ATOM     16  C   UNL A   1     -25.869  -5.044  29.491  0.00  0.00    +0.000 A 
ENDBRANCH   4  11
BRANCH   6  17
ATOM     17  O   UNL A   1     -26.037   2.616  25.426  0.00  0.00    -0.471 OA
BRANCH  17  18
ATOM     18  C   UNL A   1     -27.384   2.759  25.413  0.00  0.00    +0.253 C 
BRANCH  18  19
ATOM     19  C   UNL A   1     -27.933   2.527  24.046  0.00  0.00    +0.253 C 
BRANCH  19  20
ATOM     20  O   UNL A   1     -29.058   2.089  24.109  0.00  0.00    -0.469 OA
BRANCH  20  21
ATOM     21  C   UNL A   1     -29.357   0.891  23.648  0.00  0.00    +0.168 C 
ATOM     22  C   UNL A   1     -28.830  -0.286  23.904  0.00  0.00    +0.014 C 
ATOM     23  C   UNL A   1     -29.241  -1.534  23.438  0.00  0.00    +0.034 C 
ENDBRANCH  20  21
ENDBRANCH  19  20
ENDBRANCH  18  19
ENDBRANCH  17  18
ENDBRANCH   6  17
TORSDOF 6
ENDMDL
ENDMDL
