REMARK  Name = outputs/IAG933/test6/raw/output_4635_IAG933_linker_design_.xyz
REMARK  13 active torsions:
REMARK  status: ('A' for Active; 'I' for Inactive)
REMARK    1  A    between atoms: C_1  and  C_2
REMARK    2  A    between atoms: C_1  and  C_8
REMARK    3  A    between atoms: C_1  and  N_37
REMARK    4  A    between atoms: C_13  and  C_31
REMARK    5  A    between atoms: C_14  and  C_15
REMARK    6  A    between atoms: C_21  and  O_22
REMARK    7  A    between atoms: O_22  and  C_23
REMARK    8  A    between atoms: C_23  and  C_24
REMARK    9  A    between atoms: C_30  and  N_37
REMARK   10  A    between atoms: C_33  and  C_41
REMARK   11  A    between atoms: C_34  and  C_40
REMARK   12  A    between atoms: N_37  and  C_38
REMARK   13  A    between atoms: C_40  and  C_41
REMARK                            x       y       z     vdW  Elec       q    Type
REMARK                         _______ _______ _______ _____ _____    ______ ____
ROOT
ATOM      1  N   UNL A   1     -25.108  -0.021  29.044  0.00  0.00    -0.291 N 
ENDROOT
BRANCH   1   5
ATOM      2  C   UNL A   1     -22.025   1.962  26.810  0.00  0.00    +0.000 C 
ATOM      3  C   UNL A   1     -24.383   1.394  27.076  0.00  0.00    +0.016 C 
ATOM      4  C   UNL A   1     -22.795   0.807  28.805  0.00  0.00    +0.015 C 
ATOM      5  C   UNL A   1     -24.108   0.728  28.318  0.00  0.00    +0.049 C 
ATOM      6  C   UNL A   1     -21.775   1.373  28.060  0.00  0.00    +0.001 C 
ATOM      7  C   UNL A   1     -23.323   1.955  26.289  0.00  0.00    +0.001 C 
BRANCH   3   8
ATOM      8  C   UNL A   1     -25.688   1.614  26.461  0.00  0.00    +0.039 C 
ATOM      9  C   UNL A   1     -26.250   2.920  26.395  0.00  0.00    +0.077 C 
ATOM     10  C   UNL A   1     -27.438   3.091  25.645  0.00  0.00    +0.107 C 
ATOM     11  N   UNL A   1     -28.075   2.089  25.003  0.00  0.00    -0.208 NA
ATOM     12  C   UNL A   1     -27.543   0.849  25.079  0.00  0.00    +0.253 C 
ATOM     13  C   UNL A   1     -26.354   0.576  25.777  0.00  0.00    +0.193 C 
ATOM     14  F   UNL A   1     -25.860  -0.681  25.795  0.00  0.00    -0.199 F 
BRANCH   9  15
ATOM     15  C   UNL A   1     -25.642   4.093  27.123  0.00  0.00    +0.266 C 
ATOM     16  N   UNL A   1     -25.614   5.252  26.449  0.00  0.00    -0.200 NA
ATOM     17  C   UNL A   1     -25.026   6.479  26.963  0.00  0.00    +0.139 C 
ATOM     18  O   UNL A   1     -25.143   3.966  28.243  0.00  0.00    -0.268 OA
ENDBRANCH   9  15
BRANCH  12  19
ATOM     19  O   UNL A   1     -28.193  -0.208  24.477  0.00  0.00    -0.456 OA
BRANCH  19  20
ATOM     20  C   UNL A   1     -29.460   0.005  23.866  0.00  0.00    +0.243 C 
BRANCH  20  21
ATOM     21  C   UNL A   1     -30.065  -1.377  23.573  0.00  0.00    +0.229 C 
ATOM     22  O   UNL A   1     -30.729  -1.878  24.721  0.00  0.00    -0.216 OA
ENDBRANCH  20  21
ENDBRANCH  19  20
ENDBRANCH  12  19
ENDBRANCH   3   8
ENDBRANCH   1   5
BRANCH   1  24
ATOM     23  N   UNL A   1     -27.606  -0.350  28.998  0.00  0.00    -0.197 NA
ATOM     24  C   UNL A   1     -26.504   0.293  28.748  0.00  0.00    +0.164 C 
ATOM     25  C   UNL A   1     -27.455   0.573  28.974  0.00  0.00    +0.110 C 
BRANCH  25  26
ATOM     26  C   UNL A   1     -28.176   1.821  29.696  0.00  0.00    +0.025 C 
BRANCH  26  27
ATOM     27  C   UNL A   1     -29.534   2.001  28.970  0.00  0.00    +0.024 C 
ATOM     28  C   UNL A   1     -30.004   0.964  27.954  0.00  0.00    +0.005 C 
BRANCH  27  29
ATOM     29  C   UNL A   1     -29.669   3.278  28.367  0.00  0.00    -0.022 C 
ATOM     30  C   UNL A   1     -29.053   5.597  28.307  0.00  0.00    -0.000 C 
ATOM     31  C   UNL A   1     -30.422   3.433  27.194  0.00  0.00    -0.004 C 
ATOM     32  C   UNL A   1     -29.843   5.741  27.155  0.00  0.00    -0.000 C 
ATOM     33  C   UNL A   1     -30.521   4.680  26.591  0.00  0.00    -0.000 C 
ATOM     34  C   UNL A   1     -28.974   4.365  28.954  0.00  0.00    -0.004 C 
ENDBRANCH  27  29
ENDBRANCH  26  27
ENDBRANCH  25  26
ENDBRANCH   1  24
BRANCH   1  35
ATOM     35  C   UNL A   1     -24.855  -1.012  30.143  0.00  0.00    +0.112 C 
BRANCH  35  36
ATOM     36  C   UNL A   1     -24.973  -2.505  29.788  0.00  0.00    -0.003 C 
ATOM     37  C   UNL A   1     -23.906  -3.173  29.146  0.00  0.00    -0.003 C 
ATOM     38  C   UNL A   1     -23.989  -4.549  28.853  0.00  0.00    -0.000 C 
ATOM     39  C   UNL A   1     -25.137  -5.280  29.205  0.00  0.00    -0.000 C 
ATOM     40  C   UNL A   1     -26.232  -4.611  29.784  0.00  0.00    -0.000 C 
ATOM     41  C   UNL A   1     -26.155  -3.232  30.065  0.00  0.00    -0.003 C 
ENDBRANCH  35  36
BRANCH  35  42
ATOM     42  C   UNL A   1     -25.387  -0.679  31.571  0.00  0.00    +0.095 C 
ATOM     43  C   UNL A   1     -25.189   0.773  32.028  0.00  0.00    +0.021 C 
ATOM     44  C   UNL A   1     -25.336   0.684  33.544  0.00  0.00    +0.020 C 
ATOM     45  C   UNL A   1     -24.829  -0.715  33.905  0.00  0.00    +0.089 C 
ATOM     46  N   UNL A   1     -24.758  -1.481  32.646  0.00  0.00    -0.217 NA
ENDBRANCH  35  42
ENDBRANCH   1  35
TORSDOF 13
