MODEL 4636
MODEL 1
REMARK VINA RESULT:    -6.160      0.000      0.000
REMARK INTER + INTRA:          -7.971
REMARK INTER:                  -7.241
REMARK INTRA:                  -0.730
REMARK UNBOUND:                -0.730
REMARK  Name = No_4636-gen_results/8p0m/2024-11-27-11-27-31/
REMARK  3 active torsions:
REMARK  status: ('A' for Active; 'I' for Inactive)
REMARK    1  A    between atoms: C_3  and  C_4
REMARK    2  A    between atoms: C_4  and  C_9
REMARK    3  A    between atoms: C_10  and  C_11
REMARK                            x       y       z     vdW  Elec       q    Type
REMARK                         _______ _______ _______ _____ _____    ______ ____
ROOT
ATOM      1  C   UNL A   1     -24.618  -1.256  28.679  0.00  0.00    +0.044 C 
ATOM      2  C   UNL A   1     -25.344  -0.540  27.798  0.00  0.00    +0.009 C 
ENDROOT
BRANCH   1   5
ATOM      3  C   UNL A   1     -26.007  -3.127  29.673  0.00  0.00    -0.004 A 
ATOM      4  C   UNL A   1     -26.190  -4.165  29.680  0.00  0.00    -0.000 A 
ATOM      5  C   UNL A   1     -24.858  -2.692  28.932  0.00  0.00    -0.018 A 
ATOM      6  C   UNL A   1     -25.314  -5.268  29.312  0.00  0.00    -0.000 A 
ATOM      7  C   UNL A   1     -24.197  -4.889  28.658  0.00  0.00    -0.000 A 
ATOM      8  C   UNL A   1     -23.935  -3.546  28.409  0.00  0.00    -0.004 A 
ENDBRANCH   1   5
BRANCH   1   9
ATOM      9  C   UNL A   1     -23.708  -0.490  29.499  0.00  0.00    -0.022 C 
ATOM     10  C   UNL A   1     -23.067   0.697  28.984  0.00  0.00    -0.005 C 
BRANCH  10  11
ATOM     11  C   UNL A   1     -22.018   0.907  28.191  0.00  0.00    -0.005 C 
ATOM     12  C   UNL A   1     -21.885   1.455  27.315  0.00  0.00    -0.026 C 
ATOM     13  C   UNL A   1     -23.055   2.147  26.636  0.00  0.00    +0.031 C 
ENDBRANCH  10  11
ENDBRANCH   1   9
TORSDOF 3
ENDMDL
ENDMDL
