MODEL 4637
MODEL 1
REMARK VINA RESULT:    -6.489      0.000      0.000
REMARK INTER + INTRA:          -7.298
REMARK INTER:                  -6.869
REMARK INTRA:                  -0.429
REMARK UNBOUND:                -0.429
REMARK  Name = No_4637-gen_results/8p0m/2024-11-27-11-27-31/
REMARK  1 active torsions:
REMARK  status: ('A' for Active; 'I' for Inactive)
REMARK    1  A    between atoms: C_3  and  C_4
REMARK                            x       y       z     vdW  Elec       q    Type
REMARK                         _______ _______ _______ _____ _____    ______ ____
ROOT
ATOM      1  C   UNL A   1     -22.323   0.027  28.918  0.00  0.00    -0.000 A 
ATOM      2  C   UNL A   1     -22.177   0.730  28.147  0.00  0.00    -0.000 A 
ATOM      3  C   UNL A   1     -23.560  -0.751  28.773  0.00  0.00    -0.001 A 
ATOM      4  C   UNL A   1     -23.034   1.286  27.142  0.00  0.00    -0.000 A 
ATOM      5  C   UNL A   1     -24.199   0.624  27.022  0.00  0.00    -0.000 A 
ATOM      6  C   UNL A   1     -24.509  -0.416  27.835  0.00  0.00    -0.000 A 
ENDROOT
BRANCH   3   7
ATOM      7  C   UNL A   1     -23.830  -1.912  29.643  0.00  0.00    -0.008 C 
ATOM      8  C   UNL A   1     -24.162  -2.904  29.406  0.00  0.00    -0.035 C 
ATOM      9  C   UNL A   1     -23.983  -4.022  28.792  0.00  0.00    +0.048 C 
ATOM     10  C   UNL A   1     -24.803  -5.134  28.899  0.00  0.00    -0.026 C 
ATOM     11  C   UNL A   1     -25.989  -4.772  29.452  0.00  0.00    -0.026 C 
ATOM     12  C   UNL A   1     -25.702  -3.237  29.922  0.00  0.00    +0.048 C 
ENDBRANCH   3   7
TORSDOF 1
ENDMDL
ENDMDL
