REMARK  Name = No_4639-gen_results/8p0m/2024-11-27-11-27-31/
REMARK  8 active torsions:
REMARK  status: ('A' for Active; 'I' for Inactive)
REMARK    1  A    between atoms: C_3  and  O_17
REMARK    2  A    between atoms: C_4  and  C_8
REMARK    3  A    between atoms: C_13  and  C_14
REMARK    4  A    between atoms: O_17  and  C_18
REMARK    5  A    between atoms: C_21  and  C_22
REMARK    6  A    between atoms: C_26  and  O_31
REMARK    7  A    between atoms: O_31  and  C_32
REMARK    8  A    between atoms: C_32  and  C_34
REMARK                            x       y       z     vdW  Elec       q    Type
REMARK                         _______ _______ _______ _____ _____    ______ ____
ROOT
ATOM      1  C   UNL A   1     -26.494   0.073  26.791  0.00  0.00    +0.145 A 
ATOM      2  C   UNL A   1     -25.808   0.025  25.460  0.00  0.00    +0.037 A 
ATOM      3  C   UNL A   1     -27.465   0.962  26.789  0.00  0.00    +0.037 A 
ATOM      4  C   UNL A   1     -27.811   1.736  25.717  0.00  0.00    +0.003 A 
ATOM      5  C   UNL A   1     -26.097   0.704  24.385  0.00  0.00    +0.003 A 
ATOM      6  C   UNL A   1     -27.098   1.551  24.535  0.00  0.00    +0.000 A 
ENDROOT
BRANCH   4   7
ATOM      7  C   UNL A   1     -28.928   2.575  25.864  0.00  0.00    +0.004 A 
ATOM      8  C   UNL A   1     -29.859   2.694  24.973  0.00  0.00    +0.037 A 
ATOM      9  C   UNL A   1     -30.979   3.284  25.066  0.00  0.00    +0.145 A 
ATOM     10  C   UNL A   1     -31.275   4.009  26.291  0.00  0.00    +0.079 A 
ATOM     11  C   UNL A   1     -30.349   3.949  27.290  0.00  0.00    +0.067 A 
ATOM     12  C   UNL A   1     -29.229   3.224  27.169  0.00  0.00    +0.012 A 
ATOM     13 BR   UNL A   1     -32.887   4.984  26.442  0.00  0.00    -0.045 Br
ATOM     14 CL   UNL A   1     -30.662   4.667  28.850  0.00  0.00    -0.082 Cl
BRANCH   9  15
ATOM     15  O   UNL A   1     -31.870   3.488  24.027  0.00  0.00    -0.475 OA
BRANCH  15  16
ATOM     16  C   UNL A   1     -31.829   2.544  23.009  0.00  0.00    +0.205 C 
BRANCH  16  17
ATOM     17  C   UNL A   1     -32.115   1.305  23.353  0.00  0.00    +0.047 C 
ATOM     18  C   UNL A   1     -33.307   0.715  22.919  0.00  0.00    +0.004 C 
ENDBRANCH  16  17
ENDBRANCH  15  16
ENDBRANCH   9  15
ENDBRANCH   4   7
BRANCH   1  19
ATOM     19  O   UNL A   1     -25.878  -0.729  27.722  0.00  0.00    -0.454 OA
BRANCH  19  22
ATOM     20  C   UNL A   1     -28.016  -0.814  28.878  0.00  0.00    +0.044 A 
ATOM     21  C   UNL A   1     -28.469  -0.785  29.829  0.00  0.00    +0.038 A 
ATOM     22  C   UNL A   1     -26.504  -0.778  28.877  0.00  0.00    +0.146 A 
ATOM     23  C   UNL A   1     -25.810  -0.853  30.103  0.00  0.00    +0.035 A 
ATOM     24  C   UNL A   1     -27.991  -0.892  31.226  0.00  0.00    +0.007 A 
ATOM     25  C   UNL A   1     -26.604  -0.868  31.265  0.00  0.00    +0.004 A 
ATOM     26 BR   UNL A   1     -30.462  -0.840  29.838  0.00  0.00    -0.049 Br
BRANCH  23  27
ATOM     27  C   UNL A   1     -24.362  -0.820  30.139  0.00  0.00    +0.003 A 
ATOM     28  C   UNL A   1     -23.676  -1.286  30.801  0.00  0.00    +0.000 A 
ATOM     29  C   UNL A   1     -22.183  -1.149  30.875  0.00  0.00    +0.000 A 
ATOM     30  C   UNL A   1     -21.708  -0.384  29.825  0.00  0.00    +0.005 A 
ATOM     31  C   UNL A   1     -23.642   0.002  29.109  0.00  0.00    +0.005 A 
ATOM     32  C   UNL A   1     -22.417   0.189  28.973  0.00  0.00    +0.057 A 
BRANCH  32  33
ATOM     33  C   UNL A   1     -21.881   1.037  27.877  0.00  0.00    +0.284 C 
ATOM     34  N   UNL A   1     -20.845   1.836  28.132  0.00  0.00    -0.084 NA
ATOM     35  O   UNL A   1     -22.504   1.218  26.786  0.00  0.00    -0.267 OA
ENDBRANCH  32  33
ENDBRANCH  23  27
ENDBRANCH  19  22
ENDBRANCH   1  19
TORSDOF 8
