REMARK  Name = outputs/IAG933/test6/raw/output_464_IAG933_linker_design_.xyz
REMARK  11 active torsions:
REMARK  status: ('A' for Active; 'I' for Inactive)
REMARK    1  A    between atoms: C_1  and  C_2
REMARK    2  A    between atoms: C_1  and  C_8
REMARK    3  A    between atoms: C_1  and  N_33
REMARK    4  A    between atoms: C_13  and  C_31
REMARK    5  A    between atoms: C_14  and  C_15
REMARK    6  A    between atoms: C_21  and  O_22
REMARK    7  A    between atoms: O_22  and  C_23
REMARK    8  A    between atoms: C_23  and  C_24
REMARK    9  A    between atoms: C_30  and  N_33
REMARK   10  A    between atoms: N_33  and  C_35
REMARK   11  A    between atoms: C_34  and  C_41
REMARK                            x       y       z     vdW  Elec       q    Type
REMARK                         _______ _______ _______ _____ _____    ______ ____
ROOT
ATOM      1  N   UNL A   1     -25.099  -0.236  28.826  0.00  0.00    -0.280 N 
ENDROOT
BRANCH   1   4
ATOM      2  F   UNL A   1     -22.377  -0.073  29.690  0.00  0.00    -0.203 F 
ATOM      3  C   UNL A   1     -24.351   1.369  26.951  0.00  0.00    +0.018 C 
ATOM      4  C   UNL A   1     -24.117   0.582  28.139  0.00  0.00    +0.080 C 
ATOM      5  C   UNL A   1     -21.722   1.183  27.806  0.00  0.00    +0.031 C 
ATOM      6  C   UNL A   1     -22.004   1.866  26.604  0.00  0.00    +0.002 C 
ATOM      7  C   UNL A   1     -22.747   0.565  28.550  0.00  0.00    +0.154 C 
ATOM      8  C   UNL A   1     -23.317   1.944  26.129  0.00  0.00    +0.002 C 
BRANCH   3   9
ATOM      9  C   UNL A   1     -25.688   1.614  26.461  0.00  0.00    +0.039 C 
ATOM     10  C   UNL A   1     -26.250   2.920  26.395  0.00  0.00    +0.077 C 
ATOM     11  C   UNL A   1     -27.438   3.091  25.645  0.00  0.00    +0.107 C 
ATOM     12  N   UNL A   1     -28.075   2.089  25.003  0.00  0.00    -0.208 NA
ATOM     13  C   UNL A   1     -27.543   0.849  25.079  0.00  0.00    +0.253 C 
ATOM     14  C   UNL A   1     -26.354   0.576  25.777  0.00  0.00    +0.193 C 
ATOM     15  F   UNL A   1     -25.860  -0.681  25.795  0.00  0.00    -0.199 F 
BRANCH  10  16
ATOM     16  C   UNL A   1     -25.642   4.093  27.123  0.00  0.00    +0.266 C 
ATOM     17  N   UNL A   1     -25.614   5.252  26.449  0.00  0.00    -0.200 NA
ATOM     18  C   UNL A   1     -25.026   6.479  26.963  0.00  0.00    +0.139 C 
ATOM     19  O   UNL A   1     -25.143   3.966  28.243  0.00  0.00    -0.268 OA
ENDBRANCH  10  16
BRANCH  13  20
ATOM     20  O   UNL A   1     -28.193  -0.208  24.477  0.00  0.00    -0.456 OA
BRANCH  20  21
ATOM     21  C   UNL A   1     -29.460   0.005  23.866  0.00  0.00    +0.243 C 
BRANCH  21  22
ATOM     22  C   UNL A   1     -30.065  -1.377  23.573  0.00  0.00    +0.229 C 
ATOM     23  O   UNL A   1     -30.729  -1.878  24.721  0.00  0.00    -0.216 OA
ENDBRANCH  21  22
ENDBRANCH  20  21
ENDBRANCH  13  20
ENDBRANCH   3   9
ENDBRANCH   1   4
BRANCH   1  24
ATOM     24  C   UNL A   1     -26.529  -0.621  28.159  0.00  0.00    +0.067 C 
ATOM     25  C   UNL A   1     -27.853  -0.196  28.268  0.00  0.00    +0.035 C 
BRANCH  25  32
ATOM     26  N   UNL A   1     -29.078   3.376  30.257  0.00  0.00    -0.246 NA
ATOM     27  C   UNL A   1     -31.319   2.317  30.119  0.00  0.00    +0.054 C 
ATOM     28  C   UNL A   1     -29.889   2.405  29.775  0.00  0.00    +0.214 C 
ATOM     29  C   UNL A   1     -27.756   3.161  30.228  0.00  0.00    +0.097 C 
ATOM     30  N   UNL A   1     -29.500   1.408  28.983  0.00  0.00    -0.186 N 
ATOM     31  C   UNL A   1     -27.290   1.959  29.678  0.00  0.00    +0.040 C 
ATOM     32  C   UNL A   1     -28.218   1.103  29.031  0.00  0.00    +0.090 C 
ATOM     33  O   UNL A   1     -30.340   0.905  28.041  0.00  0.00    -0.082 OA
ENDBRANCH  25  32
ENDBRANCH   1  24
BRANCH   1  34
ATOM     34  C   UNL A   1     -24.855  -1.012  30.143  0.00  0.00    +0.116 C 
BRANCH  34  35
ATOM     35  C   UNL A   1     -24.973  -2.505  29.788  0.00  0.00    -0.003 C 
ATOM     36  C   UNL A   1     -23.906  -3.173  29.146  0.00  0.00    -0.003 C 
ATOM     37  C   UNL A   1     -23.989  -4.549  28.853  0.00  0.00    -0.000 C 
ATOM     38  C   UNL A   1     -25.137  -5.280  29.205  0.00  0.00    -0.000 C 
ATOM     39  C   UNL A   1     -26.232  -4.611  29.784  0.00  0.00    -0.000 C 
ATOM     40  C   UNL A   1     -26.155  -3.232  30.065  0.00  0.00    -0.003 C 
ENDBRANCH  34  35
BRANCH  34  41
ATOM     41  C   UNL A   1     -25.387  -0.679  31.571  0.00  0.00    +0.095 C 
ATOM     42  C   UNL A   1     -25.189   0.773  32.028  0.00  0.00    +0.021 C 
ATOM     43  C   UNL A   1     -25.336   0.684  33.544  0.00  0.00    +0.020 C 
ATOM     44  C   UNL A   1     -24.829  -0.715  33.905  0.00  0.00    +0.089 C 
ATOM     45  N   UNL A   1     -24.758  -1.481  32.646  0.00  0.00    -0.217 NA
ENDBRANCH  34  41
ENDBRANCH   1  34
TORSDOF 11
