REMARK  Name = outputs/IAG933/test6/raw/output_4640_IAG933_linker_design_.xyz
REMARK  10 active torsions:
REMARK  status: ('A' for Active; 'I' for Inactive)
REMARK    1  A    between atoms: C_1  and  C_2
REMARK    2  A    between atoms: C_1  and  C_8
REMARK    3  A    between atoms: C_1  and  C_35
REMARK    4  A    between atoms: C_13  and  C_28
REMARK    5  A    between atoms: C_14  and  C_15
REMARK    6  A    between atoms: C_21  and  O_22
REMARK    7  A    between atoms: O_22  and  C_23
REMARK    8  A    between atoms: C_23  and  C_24
REMARK    9  A    between atoms: C_31  and  N_39
REMARK   10  A    between atoms: C_31  and  C_40
REMARK                            x       y       z     vdW  Elec       q    Type
REMARK                         _______ _______ _______ _____ _____    ______ ____
ROOT
ATOM      1  C   UNL A   1     -24.590   1.272  27.299  0.00  0.00    +0.154 C 
ATOM      2  C   UNL A   1     -23.153   1.522  26.846  0.00  0.00    +0.126 C 
ATOM      3 CL   UNL A   1     -22.677   2.147  25.227  0.00  0.00    -0.076 Cl
ATOM      4  C   UNL A   1     -21.995   0.649  28.863  0.00  0.00    +0.266 C 
ATOM      5  C   UNL A   1     -24.445   0.040  29.218  0.00  0.00    +0.310 C 
ATOM      6  C   UNL A   1     -21.990   1.334  27.663  0.00  0.00    +0.200 C 
ATOM      7  N   UNL A   1     -25.163   0.735  28.437  0.00  0.00    -0.169 N 
ATOM      8  N   UNL A   1     -23.073   0.219  29.501  0.00  0.00    -0.037 NA
ATOM      9  F   UNL A   1     -20.815   1.818  27.227  0.00  0.00    -0.199 F 
ENDROOT
BRANCH   1  10
ATOM     10  C   UNL A   1     -25.688   1.614  26.461  0.00  0.00    +0.076 C 
ATOM     11  C   UNL A   1     -26.250   2.920  26.395  0.00  0.00    +0.080 C 
ATOM     12  C   UNL A   1     -27.438   3.091  25.645  0.00  0.00    +0.107 C 
ATOM     13  N   UNL A   1     -28.075   2.089  25.003  0.00  0.00    -0.208 NA
ATOM     14  C   UNL A   1     -27.543   0.849  25.079  0.00  0.00    +0.253 C 
ATOM     15  C   UNL A   1     -26.354   0.576  25.777  0.00  0.00    +0.196 C 
ATOM     16  F   UNL A   1     -25.860  -0.681  25.795  0.00  0.00    -0.199 F 
BRANCH  11  17
ATOM     17  C   UNL A   1     -25.642   4.093  27.123  0.00  0.00    +0.267 C 
ATOM     18  N   UNL A   1     -25.614   5.252  26.449  0.00  0.00    -0.200 NA
ATOM     19  C   UNL A   1     -25.026   6.479  26.963  0.00  0.00    +0.139 C 
ATOM     20  O   UNL A   1     -25.143   3.966  28.243  0.00  0.00    -0.268 OA
ENDBRANCH  11  17
BRANCH  14  21
ATOM     21  O   UNL A   1     -28.193  -0.208  24.477  0.00  0.00    -0.456 OA
BRANCH  21  22
ATOM     22  C   UNL A   1     -29.460   0.005  23.866  0.00  0.00    +0.243 C 
BRANCH  22  23
ATOM     23  C   UNL A   1     -30.065  -1.377  23.573  0.00  0.00    +0.229 C 
ATOM     24  O   UNL A   1     -30.729  -1.878  24.721  0.00  0.00    -0.216 OA
ENDBRANCH  22  23
ENDBRANCH  21  22
ENDBRANCH  14  21
ENDBRANCH   1  10
BRANCH   5  25
ATOM     25  C   UNL A   1     -24.855  -1.012  30.143  0.00  0.00    +0.144 C 
BRANCH  25  26
ATOM     26  C   UNL A   1     -24.973  -2.505  29.788  0.00  0.00    -0.010 C 
ATOM     27  C   UNL A   1     -23.906  -3.173  29.146  0.00  0.00    -0.004 C 
ATOM     28  C   UNL A   1     -23.989  -4.549  28.853  0.00  0.00    -0.000 C 
ATOM     29  C   UNL A   1     -25.137  -5.280  29.205  0.00  0.00    -0.000 C 
ATOM     30  C   UNL A   1     -26.232  -4.611  29.784  0.00  0.00    -0.000 C 
ATOM     31  C   UNL A   1     -26.155  -3.232  30.065  0.00  0.00    -0.004 C 
ENDBRANCH  25  26
BRANCH  25  32
ATOM     32  C   UNL A   1     -25.387  -0.679  31.571  0.00  0.00    +0.088 C 
ATOM     33  C   UNL A   1     -25.189   0.773  32.028  0.00  0.00    +0.020 C 
ATOM     34  C   UNL A   1     -25.336   0.684  33.544  0.00  0.00    +0.020 C 
ATOM     35  C   UNL A   1     -24.829  -0.715  33.905  0.00  0.00    +0.089 C 
ATOM     36  N   UNL A   1     -24.758  -1.481  32.646  0.00  0.00    -0.218 NA
ENDBRANCH  25  32
ENDBRANCH   5  25
BRANCH   7  37
ATOM     37  C   UNL A   1     -26.530   1.068  28.875  0.00  0.00    +0.232 C 
BRANCH  37  42
ATOM     38  C   UNL A   1     -28.824   2.367  29.290  0.00  0.00    +0.117 C 
ATOM     39  C   UNL A   1     -30.282  -0.043  29.208  0.00  0.00    +0.015 C 
ATOM     40  C   UNL A   1     -30.830   3.609  29.860  0.00  0.00    +0.113 C 
ATOM     41  C   UNL A   1     -30.873   1.133  29.679  0.00  0.00    +0.062 C 
ATOM     42  C   UNL A   1     -28.174   1.168  28.935  0.00  0.00    +0.022 C 
ATOM     43  C   UNL A   1     -28.946  -0.021  28.817  0.00  0.00    -0.002 C 
ATOM     44  N   UNL A   1     -30.132   2.305  29.646  0.00  0.00    -0.301 N 
ENDBRANCH  37  42
ENDBRANCH   7  37
TORSDOF 10
