MODEL 4640
MODEL 1
REMARK VINA RESULT:    -7.975      0.000      0.000
REMARK INTER + INTRA:         -14.724
REMARK INTER:                 -11.705
REMARK INTRA:                  -3.020
REMARK UNBOUND:                -3.020
REMARK  Name = No_4640-gen_results/8p0m/2024-11-27-11-27-31/
REMARK  8 active torsions:
REMARK  status: ('A' for Active; 'I' for Inactive)
REMARK    1  A    between atoms: C_3  and  C_4
REMARK    2  A    between atoms: C_4  and  C_5
REMARK    3  A    between atoms: C_5  and  C_6
REMARK    4  A    between atoms: C_6  and  C_7
REMARK    5  A    between atoms: C_7  and  C_8
REMARK    6  A    between atoms: C_13  and  C_14
REMARK    7  A    between atoms: C_14  and  C_21
REMARK    8  A    between atoms: N_22  and  C_23
REMARK                            x       y       z     vdW  Elec       q    Type
REMARK                         _______ _______ _______ _____ _____    ______ ____
ROOT
ATOM      1  C   UNL A   1     -24.390   0.832  26.743  0.00  0.00    -0.023 A 
ATOM      2  C   UNL A   1     -23.559   0.390  27.762  0.00  0.00    -0.008 A 
ATOM      3  C   UNL A   1     -22.231   0.748  27.776  0.00  0.00    -0.017 A 
ATOM      4  C   UNL A   1     -23.907   1.841  25.795  0.00  0.00    -0.004 A 
ATOM      5  C   UNL A   1     -21.758   1.722  26.821  0.00  0.00    -0.004 A 
ATOM      6  C   UNL A   1     -22.609   2.213  25.859  0.00  0.00    -0.001 A 
ENDROOT
BRANCH   1   7
ATOM      7  C   UNL A   1     -25.732   0.397  26.662  0.00  0.00    +0.022 C 
ATOM      8  C   UNL A   1     -26.535   0.752  25.418  0.00  0.00    +0.005 C 
BRANCH   7   9
ATOM      9  C   UNL A   1     -26.573  -0.090  27.610  0.00  0.00    +0.005 C 
BRANCH   9  10
ATOM     10  C   UNL A   1     -26.838  -0.644  28.687  0.00  0.00    +0.004 C 
ATOM     11  C   UNL A   1     -27.661   0.558  29.439  0.00  0.00    +0.000 C 
BRANCH  10  12
ATOM     12  C   UNL A   1     -26.667  -1.416  29.407  0.00  0.00    +0.022 C 
ATOM     13  C   UNL A   1     -27.345  -1.392  30.758  0.00  0.00    +0.005 C 
BRANCH  12  16
ATOM     14  C   UNL A   1     -26.514  -3.913  29.812  0.00  0.00    -0.004 A 
ATOM     15  C   UNL A   1     -26.012  -4.805  29.561  0.00  0.00    -0.000 A 
ATOM     16  C   UNL A   1     -25.944  -2.700  29.298  0.00  0.00    -0.022 A 
ATOM     17  C   UNL A   1     -24.678  -5.042  29.051  0.00  0.00    -0.000 A 
ATOM     18  C   UNL A   1     -24.042  -3.910  28.632  0.00  0.00    -0.000 A 
ATOM     19  C   UNL A   1     -24.661  -2.694  28.750  0.00  0.00    -0.004 A 
ENDBRANCH  12  16
ENDBRANCH  10  12
ENDBRANCH   9  10
ENDBRANCH   7   9
ENDBRANCH   1   7
BRANCH   3  20
ATOM     20  C   UNL A   1     -21.468   0.372  28.838  0.00  0.00    +0.073 C 
BRANCH  20  21
ATOM     21  C   UNL A   1     -22.263   0.141  30.026  0.00  0.00    +0.077 C 
ATOM     22  N   UNL A   1     -22.390  -0.731  30.769  0.00  0.00    -0.248 NA
BRANCH  22  23
ATOM     23  C   UNL A   1     -23.189  -0.807  31.892  0.00  0.00    +0.081 A 
ATOM     24  C   UNL A   1     -23.095  -1.363  32.805  0.00  0.00    +0.019 A 
ATOM     25  C   UNL A   1     -23.969  -1.329  34.006  0.00  0.00    +0.002 A 
ATOM     26  C   UNL A   1     -24.264   0.214  31.924  0.00  0.00    +0.019 A 
ATOM     27  C   UNL A   1     -25.127   0.397  32.945  0.00  0.00    +0.002 A 
ATOM     28  C   UNL A   1     -24.959  -0.459  34.034  0.00  0.00    +0.000 A 
ENDBRANCH  22  23
ENDBRANCH  20  21
ENDBRANCH   3  20
TORSDOF 8
ENDMDL
ENDMDL
