REMARK  Name = No_4642-gen_results/8p0m/2024-11-27-11-27-31/
REMARK  2 active torsions:
REMARK  status: ('A' for Active; 'I' for Inactive)
REMARK    1  A    between atoms: C_1  and  C_2
REMARK    2  A    between atoms: C_3  and  C_4
REMARK                            x       y       z     vdW  Elec       q    Type
REMARK                         _______ _______ _______ _____ _____    ______ ____
ROOT
ATOM      1  C   UNL A   1     -28.016  -0.814  28.878  0.00  0.00    -0.005 C 
ATOM      2  C   UNL A   1     -27.087   0.290  28.638  0.00  0.00    -0.026 C 
ENDROOT
BRANCH   1   3
ATOM      3  C   UNL A   1     -28.469  -0.785  29.829  0.00  0.00    -0.005 C 
ATOM      4  C   UNL A   1     -28.391   0.080  31.006  0.00  0.00    -0.026 C 
ATOM      5  C   UNL A   1     -27.494   1.152  30.784  0.00  0.00    +0.031 C 
ENDBRANCH   1   3
BRANCH   2   6
ATOM      6  C   UNL A   1     -26.832   1.249  29.587  0.00  0.00    +0.026 C 
ATOM      7  C   UNL A   1     -25.898   2.333  29.357  0.00  0.00    +0.005 C 
ENDBRANCH   2   6
TORSDOF 2
