MODEL 4642
MODEL 1
REMARK VINA RESULT:    -4.613      0.000      0.000
REMARK INTER + INTRA:          -5.366
REMARK INTER:                  -5.152
REMARK INTRA:                  -0.214
REMARK UNBOUND:                -0.214
REMARK  Name = No_4642-gen_results/8p0m/2024-11-27-11-27-31/
REMARK  2 active torsions:
REMARK  status: ('A' for Active; 'I' for Inactive)
REMARK    1  A    between atoms: C_1  and  C_2
REMARK    2  A    between atoms: C_3  and  C_4
REMARK                            x       y       z     vdW  Elec       q    Type
REMARK                         _______ _______ _______ _____ _____    ______ ____
ROOT
ATOM      1  C   UNL A   1      -9.570  -9.071  20.063  0.00  0.00    -0.005 C 
ATOM      2  C   UNL A   1     -10.217  -9.565  18.848  0.00  0.00    -0.026 C 
ENDROOT
BRANCH   1   3
ATOM      3  C   UNL A   1      -8.681  -9.583  20.306  0.00  0.00    -0.005 C 
ATOM      4  C   UNL A   1      -7.248  -9.308  20.209  0.00  0.00    -0.026 C 
ATOM      5  C   UNL A   1      -7.018  -8.019  19.673  0.00  0.00    +0.031 C 
ENDBRANCH   1   3
BRANCH   2   6
ATOM      6  C   UNL A   1      -9.705 -10.613  18.123  0.00  0.00    +0.026 C 
ATOM      7  C   UNL A   1      -8.977 -10.412  16.886  0.00  0.00    +0.005 C 
ENDBRANCH   2   6
TORSDOF 2
ENDMDL
ENDMDL
