MODEL 4643
MODEL 1
REMARK VINA RESULT:    -7.888      0.000      0.000
REMARK INTER + INTRA:         -11.538
REMARK INTER:                 -10.655
REMARK INTRA:                  -0.883
REMARK UNBOUND:                -0.883
REMARK  Name = No_4643-gen_results/8p0m/2024-11-27-11-27-31/
REMARK  6 active torsions:
REMARK  status: ('A' for Active; 'I' for Inactive)
REMARK    1  A    between atoms: C_1  and  C_2
REMARK    2  A    between atoms: C_5  and  C_10
REMARK    3  A    between atoms: N_11  and  C_12
REMARK    4  A    between atoms: C_13  and  C_14
REMARK    5  A    between atoms: N_20  and  C_23
REMARK    6  A    between atoms: C_23  and  C_24
REMARK                            x       y       z     vdW  Elec       q    Type
REMARK                         _______ _______ _______ _____ _____    ______ ____
ROOT
ATOM      1  C   UNL A   1     -25.739   1.212  27.719  0.00  0.00    +0.156 A 
ATOM      2  C   UNL A   1     -24.894   0.759  26.797  0.00  0.00    +0.033 A 
ATOM      3  N   UNL A   1     -27.116   1.180  27.402  0.00  0.00    -0.213 NA
ATOM      4  C   UNL A   1     -27.543   0.708  26.182  0.00  0.00    +0.149 A 
ATOM      5  N   UNL A   1     -28.827   0.634  25.839  0.00  0.00    -0.215 NA
ATOM      6  C   UNL A   1     -26.589   0.120  25.310  0.00  0.00    +0.036 A 
ATOM      7  C   UNL A   1     -25.373   0.263  25.540  0.00  0.00    +0.006 A 
ENDROOT
BRANCH   1   9
ATOM      8  C   UNL A   1     -25.301   0.618  29.862  0.00  0.00    +0.270 C 
ATOM      9  N   UNL A   1     -25.485   1.582  29.041  0.00  0.00    -0.157 NA
ATOM     10  O   UNL A   1     -25.030   0.964  31.046  0.00  0.00    -0.268 OA
BRANCH   8  14
ATOM     11  C   UNL A   1     -24.658  -3.628  28.884  0.00  0.00    +0.080 A 
ATOM     12  C   UNL A   1     -25.901  -3.146  29.500  0.00  0.00    +0.007 A 
ATOM     13  C   UNL A   1     -26.209  -1.704  29.554  0.00  0.00    +0.005 A 
ATOM     14  C   UNL A   1     -25.124  -0.803  29.640  0.00  0.00    +0.055 A 
ATOM     15  C   UNL A   1     -23.798  -1.310  29.434  0.00  0.00    +0.005 A 
ATOM     16  C   UNL A   1     -23.584  -2.610  29.226  0.00  0.00    +0.007 A 
BRANCH  11  17
ATOM     17  C   UNL A   1     -24.483  -4.655  29.041  0.00  0.00    +0.388 C 
ATOM     18  O   UNL A   1     -23.794  -5.407  28.095  0.00  0.00    -0.241 OA
ATOM     19  O   UNL A   1     -25.403  -5.562  29.558  0.00  0.00    -0.241 OA
ENDBRANCH  11  17
ENDBRANCH   8  14
ENDBRANCH   1   9
BRANCH   2  20
ATOM     20  C   UNL A   1     -23.495   0.817  27.060  0.00  0.00    -0.002 C 
ATOM     21  C   UNL A   1     -22.686   1.998  26.813  0.00  0.00    -0.026 C 
ATOM     22  C   UNL A   1     -21.428   1.898  27.344  0.00  0.00    +0.031 C 
ENDBRANCH   2  20
BRANCH   5  23
ATOM     23  C   UNL A   1     -29.342   0.007  24.714  0.00  0.00    +0.140 C 
BRANCH  23  24
ATOM     24  C   UNL A   1     -30.103   0.413  23.905  0.00  0.00    -0.001 A 
ATOM     25  C   UNL A   1     -29.974   1.737  23.362  0.00  0.00    -0.003 A 
ATOM     26  C   UNL A   1     -30.902   2.345  22.529  0.00  0.00    -0.000 A 
ATOM     27  C   UNL A   1     -31.960   1.517  22.064  0.00  0.00    -0.000 A 
ATOM     28  C   UNL A   1     -32.191   0.262  22.488  0.00  0.00    -0.000 A 
ATOM     29  C   UNL A   1     -31.312  -0.331  23.406  0.00  0.00    -0.003 A 
ENDBRANCH  23  24
ENDBRANCH   5  23
TORSDOF 6
ENDMDL
ENDMDL
