MODEL 4644
MODEL 1
REMARK VINA RESULT:    -8.934      0.000      0.000
REMARK INTER + INTRA:         -12.700
REMARK INTER:                 -11.545
REMARK INTRA:                  -1.155
REMARK UNBOUND:                -1.155
REMARK  Name = No_4644-gen_results/8p0m/2024-11-27-11-27-31/
REMARK  5 active torsions:
REMARK  status: ('A' for Active; 'I' for Inactive)
REMARK    1  A    between atoms: C_4  and  C_11
REMARK    2  A    between atoms: C_7  and  C_18
REMARK    3  A    between atoms: C_13  and  C_21
REMARK    4  A    between atoms: C_21  and  O_22
REMARK    5  A    between atoms: O_22  and  C_24
REMARK                            x       y       z     vdW  Elec       q    Type
REMARK                         _______ _______ _______ _____ _____    ______ ____
ROOT
ATOM      1  C   UNL A   1     -24.330   1.300  26.264  0.00  0.00    +0.011 A 
ATOM      2  C   UNL A   1     -24.236   0.367  27.140  0.00  0.00    +0.064 A 
ATOM      3  C   UNL A   1     -23.130   0.304  28.006  0.00  0.00    +0.087 A 
ATOM      4  C   UNL A   1     -23.337   2.205  25.996  0.00  0.00    +0.001 A 
ATOM      5  C   UNL A   1     -22.144   2.165  26.729  0.00  0.00    +0.000 A 
ATOM      6  C   UNL A   1     -22.001   1.138  27.688  0.00  0.00    +0.007 A 
ATOM      7 CL   UNL A   1     -25.484  -0.785  27.552  0.00  0.00    -0.082 Cl
ENDROOT
BRANCH   1  11
ATOM      8  C   UNL A   1     -27.019   4.606  26.694  0.00  0.00    +0.007 A 
ATOM      9  C   UNL A   1     -26.255   3.677  26.568  0.00  0.00    +0.000 A 
ATOM     10  C   UNL A   1     -26.487   2.598  25.716  0.00  0.00    +0.000 A 
ATOM     11  C   UNL A   1     -25.620   1.421  25.510  0.00  0.00    +0.001 A 
ATOM     12  C   UNL A   1     -25.911   0.303  24.650  0.00  0.00    +0.000 A 
ATOM     13  C   UNL A   1     -27.018   0.480  23.814  0.00  0.00    +0.000 A 
ATOM     14  C   UNL A   1     -28.353   4.501  26.010  0.00  0.00    +0.080 A 
ATOM     15  C   UNL A   1     -28.632   3.521  25.085  0.00  0.00    +0.007 A 
ATOM     16  C   UNL A   1     -27.733   2.484  24.913  0.00  0.00    +0.000 A 
ATOM     17  C   UNL A   1     -27.962   1.471  23.982  0.00  0.00    +0.000 A 
BRANCH  14  18
ATOM     18  C   UNL A   1     -29.321   5.641  26.230  0.00  0.00    +0.388 C 
ATOM     19  O   UNL A   1     -30.507   5.413  25.715  0.00  0.00    -0.241 OA
ATOM     20  O   UNL A   1     -29.001   6.741  26.596  0.00  0.00    -0.241 OA
ENDBRANCH  14  18
ENDBRANCH   1  11
BRANCH   3  21
ATOM     21  C   UNL A   1     -22.824  -0.777  29.034  0.00  0.00    +0.346 C 
ATOM     22  O   UNL A   1     -21.650  -1.331  28.905  0.00  0.00    -0.244 OA
BRANCH  21  23
ATOM     23  O   UNL A   1     -23.528  -0.944  29.921  0.00  0.00    -0.421 OA
BRANCH  23  24
ATOM     24  C   UNL A   1     -24.180  -2.203  30.121  0.00  0.00    +0.149 A 
ATOM     25  C   UNL A   1     -25.440  -2.155  30.732  0.00  0.00    +0.035 A 
ATOM     26  C   UNL A   1     -26.398  -2.844  30.273  0.00  0.00    +0.003 A 
ATOM     27  C   UNL A   1     -27.828  -2.607  30.711  0.00  0.00    +0.000 A 
ATOM     28  C   UNL A   1     -28.150  -1.667  31.178  0.00  0.00    +0.000 A 
ATOM     29  C   UNL A   1     -27.169  -0.651  31.648  0.00  0.00    +0.000 A 
ATOM     30  C   UNL A   1     -25.864  -0.905  31.233  0.00  0.00    +0.003 A 
ATOM     31  C   UNL A   1     -26.163  -4.186  29.563  0.00  0.00    +0.000 A 
ATOM     32  C   UNL A   1     -24.795  -4.346  29.081  0.00  0.00    +0.003 A 
ATOM     33  C   UNL A   1     -23.836  -3.331  29.331  0.00  0.00    +0.038 A 
ENDBRANCH  23  24
ENDBRANCH  21  23
ENDBRANCH   3  21
TORSDOF 5
ENDMDL
ENDMDL
