REMARK  Name = No_4644-gen_results/8p0m/2024-11-27-11-27-31/
REMARK  5 active torsions:
REMARK  status: ('A' for Active; 'I' for Inactive)
REMARK    1  A    between atoms: C_4  and  C_11
REMARK    2  A    between atoms: C_7  and  C_18
REMARK    3  A    between atoms: C_13  and  C_21
REMARK    4  A    between atoms: C_21  and  O_22
REMARK    5  A    between atoms: O_22  and  C_24
REMARK                            x       y       z     vdW  Elec       q    Type
REMARK                         _______ _______ _______ _____ _____    ______ ____
ROOT
ATOM      1  C   UNL A   1     -24.645   1.658  27.946  0.00  0.00    +0.011 A 
ATOM      2  C   UNL A   1     -24.896   2.756  28.561  0.00  0.00    +0.064 A 
ATOM      3  C   UNL A   1     -25.173   3.934  27.844  0.00  0.00    +0.087 A 
ATOM      4  C   UNL A   1     -24.484   1.557  26.589  0.00  0.00    +0.001 A 
ATOM      5  C   UNL A   1     -24.632   2.694  25.785  0.00  0.00    +0.000 A 
ATOM      6  C   UNL A   1     -24.890   3.923  26.432  0.00  0.00    +0.007 A 
ATOM      7 CL   UNL A   1     -25.152   2.936  30.280  0.00  0.00    -0.082 Cl
ENDROOT
BRANCH   1  11
ATOM      8  C   UNL A   1     -28.016  -0.814  28.878  0.00  0.00    +0.007 A 
ATOM      9  C   UNL A   1     -27.064  -0.119  28.608  0.00  0.00    +0.000 A 
ATOM     10  C   UNL A   1     -25.765  -0.390  29.036  0.00  0.00    +0.000 A 
ATOM     11  C   UNL A   1     -24.552   0.406  28.765  0.00  0.00    +0.001 A 
ATOM     12  C   UNL A   1     -23.230   0.118  29.258  0.00  0.00    +0.000 A 
ATOM     13  C   UNL A   1     -23.094  -1.131  29.873  0.00  0.00    +0.000 A 
ATOM     14  C   UNL A   1     -27.798  -1.934  29.856  0.00  0.00    +0.080 A 
ATOM     15  C   UNL A   1     -26.542  -2.327  30.258  0.00  0.00    +0.007 A 
ATOM     16  C   UNL A   1     -25.451  -1.552  29.908  0.00  0.00    +0.000 A 
ATOM     17  C   UNL A   1     -24.156  -1.910  30.281  0.00  0.00    +0.000 A 
BRANCH  14  18
ATOM     18  C   UNL A   1     -29.011  -2.753  30.232  0.00  0.00    +0.388 C 
ATOM     19  O   UNL A   1     -29.229  -2.783  31.527  0.00  0.00    -0.241 OA
ATOM     20  O   UNL A   1     -29.576  -3.511  29.488  0.00  0.00    -0.241 OA
ENDBRANCH  14  18
ENDBRANCH   1  11
BRANCH   3  21
ATOM     21  C   UNL A   1     -25.403   5.328  28.412  0.00  0.00    +0.346 C 
ATOM     22  O   UNL A   1     -25.509   6.269  27.515  0.00  0.00    -0.244 OA
BRANCH  21  23
ATOM     23  O   UNL A   1     -25.617   5.466  29.528  0.00  0.00    -0.421 OA
BRANCH  23  24
ATOM     24  C   UNL A   1     -25.706   6.772  30.108  0.00  0.00    +0.149 A 
ATOM     25  C   UNL A   1     -25.478   6.851  31.488  0.00  0.00    +0.035 A 
ATOM     26  C   UNL A   1     -24.738   7.764  31.961  0.00  0.00    +0.003 A 
ATOM     27  C   UNL A   1     -24.233   7.718  33.388  0.00  0.00    +0.000 A 
ATOM     28  C   UNL A   1     -24.206   6.787  33.970  0.00  0.00    +0.000 A 
ATOM     29  C   UNL A   1     -24.891   5.551  33.502  0.00  0.00    +0.000 A 
ATOM     30  C   UNL A   1     -25.348   5.633  32.189  0.00  0.00    +0.003 A 
ATOM     31  C   UNL A   1     -24.617   9.139  31.287  0.00  0.00    +0.000 A 
ATOM     32  C   UNL A   1     -25.034   9.129  29.888  0.00  0.00    +0.003 A 
ATOM     33  C   UNL A   1     -25.532   7.933  29.310  0.00  0.00    +0.038 A 
ENDBRANCH  23  24
ENDBRANCH  21  23
ENDBRANCH   3  21
TORSDOF 5
