MODEL 4645
MODEL 1
REMARK VINA RESULT:    -5.957      0.000      0.000
REMARK INTER + INTRA:          -6.460
REMARK INTER:                  -6.653
REMARK INTRA:                   0.193
REMARK UNBOUND:                 0.193
REMARK  Name = No_4645-gen_results/8p0m/2024-11-27-11-27-31/
REMARK  2 active torsions:
REMARK  status: ('A' for Active; 'I' for Inactive)
REMARK    1  A    between atoms: C_1  and  C_7
REMARK    2  A    between atoms: N_8  and  C_9
REMARK                            x       y       z     vdW  Elec       q    Type
REMARK                         _______ _______ _______ _____ _____    ______ ____
ROOT
ATOM      1  C   UNL A   1     -23.427  -0.916  29.102  0.00  0.00    +0.056 A 
ATOM      2  C   UNL A   1     -23.371  -2.060  28.714  0.00  0.00    +0.006 A 
ATOM      3  C   UNL A   1     -24.346  -3.004  28.972  0.00  0.00    +0.018 A 
ATOM      4  C   UNL A   1     -25.496  -2.592  29.703  0.00  0.00    +0.081 A 
ATOM      5  C   UNL A   1     -25.591  -1.268  29.966  0.00  0.00    +0.019 A 
ATOM      6  C   UNL A   1     -24.625  -0.428  29.645  0.00  0.00    +0.006 A 
ATOM      7  N   UNL A   1     -26.335  -3.715  29.882  0.00  0.00    -0.244 NA
ATOM      8  C   UNL A   1     -25.950  -4.875  29.642  0.00  0.00    +0.099 A 
ATOM      9  C   UNL A   1     -24.866  -5.316  28.962  0.00  0.00    +0.021 A 
ATOM     10  C   UNL A   1     -24.029  -4.404  28.651  0.00  0.00    +0.003 A 
ENDROOT
BRANCH   1  11
ATOM     11  C   UNL A   1     -22.320   0.051  28.763  0.00  0.00    +0.269 C 
ATOM     12  N   UNL A   1     -22.564   0.949  27.885  0.00  0.00    -0.174 NA
ATOM     13  O   UNL A   1     -21.163  -0.165  29.289  0.00  0.00    -0.268 OA
BRANCH  12  14
ATOM     14  C   UNL A   1     -23.447   0.821  27.006  0.00  0.00    +0.089 C 
ATOM     15  C   UNL A   1     -24.104   2.086  26.516  0.00  0.00    +0.019 C 
ENDBRANCH  12  14
ENDBRANCH   1  11
TORSDOF 2
ENDMDL
ENDMDL
