REMARK  Name = No_4646-gen_results/8p0m/2024-11-27-11-27-31/
REMARK  2 active torsions:
REMARK  status: ('A' for Active; 'I' for Inactive)
REMARK    1  A    between atoms: C_3  and  C_7
REMARK    2  A    between atoms: C_5  and  C_13
REMARK                            x       y       z     vdW  Elec       q    Type
REMARK                         _______ _______ _______ _____ _____    ______ ____
ROOT
ATOM      1  C   UNL A   1     -28.016  -0.814  28.878  0.00  0.00    +0.000 A 
ATOM      2  C   UNL A   1     -27.064  -0.119  28.608  0.00  0.00    +0.000 A 
ATOM      3  C   UNL A   1     -26.972   0.714  27.506  0.00  0.00    +0.000 A 
ATOM      4  C   UNL A   1     -28.105   0.774  26.642  0.00  0.00    +0.005 A 
ATOM      5  C   UNL A   1     -29.204   0.118  27.048  0.00  0.00    +0.057 A 
ATOM      6  C   UNL A   1     -29.213  -0.609  28.128  0.00  0.00    +0.005 A 
ENDROOT
BRANCH   3   7
ATOM      7  C   UNL A   1     -25.711   1.452  27.138  0.00  0.00    +0.000 A 
ATOM      8  C   UNL A   1     -25.207   2.413  27.932  0.00  0.00    +0.000 A 
ATOM      9  C   UNL A   1     -23.943   3.026  27.607  0.00  0.00    +0.000 A 
ATOM     10  C   UNL A   1     -23.273   2.530  26.456  0.00  0.00    +0.000 A 
ATOM     11  C   UNL A   1     -24.870   0.978  26.069  0.00  0.00    +0.000 A 
ATOM     12  C   UNL A   1     -23.731   1.552  25.699  0.00  0.00    +0.000 A 
ENDBRANCH   3   7
BRANCH   5  13
ATOM     13  C   UNL A   1     -30.399   0.259  26.186  0.00  0.00    +0.284 C 
ATOM     14  O   UNL A   1     -31.311  -0.593  26.193  0.00  0.00    -0.267 OA
ATOM     15  N   UNL A   1     -30.480   1.267  25.250  0.00  0.00    -0.084 NA
ENDBRANCH   5  13
TORSDOF 2
