REMARK  Name = No_4647-gen_results/8p0m/2024-11-27-11-27-31/
REMARK  7 active torsions:
REMARK  status: ('A' for Active; 'I' for Inactive)
REMARK    1  A    between atoms: C_3  and  C_7
REMARK    2  A    between atoms: C_7  and  C_18
REMARK    3  A    between atoms: C_8  and  C_9
REMARK    4  A    between atoms: C_10  and  C_11
REMARK    5  A    between atoms: C_11  and  C_12
REMARK    6  A    between atoms: C_15  and  P_31
REMARK    7  A    between atoms: C_21  and  C_25
REMARK                            x       y       z     vdW  Elec       q    Type
REMARK                         _______ _______ _______ _____ _____    ______ ____
ROOT
ATOM      1  C   UNL A   1     -26.399   0.295  27.228  0.00  0.00    +0.002 C 
ATOM      2  C   UNL A   1     -25.039   0.236  27.354  0.00  0.00    +0.000 C 
ENDROOT
BRANCH   1   5
ATOM      3  C   UNL A   1     -28.016  -0.814  28.878  0.00  0.00    -0.000 A 
ATOM      4  C   UNL A   1     -28.469  -0.785  29.829  0.00  0.00    -0.000 A 
ATOM      5  C   UNL A   1     -27.136   0.236  28.535  0.00  0.00    -0.000 A 
ATOM      6  C   UNL A   1     -26.875   1.282  29.398  0.00  0.00    -0.004 A 
ATOM      7  C   UNL A   1     -28.361   0.199  30.924  0.00  0.00    -0.004 A 
ATOM      8  C   UNL A   1     -27.528   1.223  30.636  0.00  0.00    -0.022 A 
ATOM      9  C   UNL A   1     -27.290   2.331  31.654  0.00  0.00    +0.031 C 
ENDBRANCH   1   5
BRANCH   1  10
ATOM     10  C   UNL A   1     -27.129   0.311  26.059  0.00  0.00    +0.019 A 
ATOM     11  C   UNL A   1     -28.119   0.583  25.672  0.00  0.00    +0.003 A 
ATOM     12  C   UNL A   1     -28.714   0.426  24.391  0.00  0.00    +0.019 A 
ATOM     13  C   UNL A   1     -26.377  -0.263  24.864  0.00  0.00    +0.099 A 
ATOM     14  N   UNL A   1     -26.937  -0.426  23.715  0.00  0.00    -0.242 NA
ATOM     15  C   UNL A   1     -28.146  -0.041  23.464  0.00  0.00    +0.099 A 
BRANCH  12  16
ATOM     16  C   UNL A   1     -30.238   0.840  24.381  0.00  0.00    +0.002 A 
ATOM     17  C   UNL A   1     -30.528   2.065  24.662  0.00  0.00    +0.000 A 
ATOM     18  C   UNL A   1     -31.921   2.551  24.598  0.00  0.00    +0.000 A 
ATOM     19  C   UNL A   1     -32.873   1.565  24.287  0.00  0.00    +0.000 A 
ATOM     20  C   UNL A   1     -31.149  -0.175  24.216  0.00  0.00    +0.000 A 
ATOM     21  C   UNL A   1     -32.517   0.231  24.121  0.00  0.00    +0.000 A 
ENDBRANCH  12  16
ENDBRANCH   1  10
BRANCH   2  22
ATOM     22  C   UNL A   1     -24.259   0.827  26.257  0.00  0.00    +0.003 C 
ATOM     23  C   UNL A   1     -24.154   1.865  26.070  0.00  0.00    +0.042 C 
BRANCH  23  24
ATOM     24  C   UNL A   1     -24.708   2.931  26.976  0.00  0.00    +0.196 C 
ATOM     25  O   UNL A   1     -23.604   3.217  27.962  0.00  0.00    -0.287 OA
BRANCH  24  26
ATOM     26  C   UNL A   1     -25.654   3.578  27.094  0.00  0.00    +0.039 A 
ATOM     27  C   UNL A   1     -26.668   3.571  26.057  0.00  0.00    +0.003 A 
ATOM     28  C   UNL A   1     -27.924   4.199  26.219  0.00  0.00    +0.003 A 
ATOM     29  C   UNL A   1     -28.121   4.859  27.467  0.00  0.00    +0.029 A 
ATOM     30  C   UNL A   1     -26.045   4.358  28.278  0.00  0.00    +0.003 A 
ATOM     31  C   UNL A   1     -27.170   5.021  28.441  0.00  0.00    +0.003 A 
BRANCH  29  32
ATOM     32  P   UNL A   1     -29.662   5.758  27.473  0.00  0.00    +0.140 P 
ATOM     33  O   UNL A   1     -29.939   6.021  28.799  0.00  0.00    -0.354 OA
ATOM     34  O   UNL A   1     -29.308   7.010  26.729  0.00  0.00    -0.456 OA
ATOM     35  O   UNL A   1     -30.653   4.890  26.797  0.00  0.00    -0.354 OA
ENDBRANCH  29  32
ENDBRANCH  24  26
ENDBRANCH  23  24
ENDBRANCH   2  22
TORSDOF 7
