MODEL 4647
MODEL 1
REMARK VINA RESULT:    -8.970      0.000      0.000
REMARK INTER + INTRA:         -14.774
REMARK INTER:                 -12.641
REMARK INTRA:                  -2.133
REMARK UNBOUND:                -2.133
REMARK  Name = No_4647-gen_results/8p0m/2024-11-27-11-27-31/
REMARK  7 active torsions:
REMARK  status: ('A' for Active; 'I' for Inactive)
REMARK    1  A    between atoms: C_3  and  C_7
REMARK    2  A    between atoms: C_7  and  C_18
REMARK    3  A    between atoms: C_8  and  C_9
REMARK    4  A    between atoms: C_10  and  C_11
REMARK    5  A    between atoms: C_11  and  C_12
REMARK    6  A    between atoms: C_15  and  P_31
REMARK    7  A    between atoms: C_21  and  C_25
REMARK                            x       y       z     vdW  Elec       q    Type
REMARK                         _______ _______ _______ _____ _____    ______ ____
ROOT
ATOM      1  C   UNL A   1     -10.784   0.737  37.010  0.00  0.00    +0.002 C 
ATOM      2  C   UNL A   1      -9.426   0.861  36.916  0.00  0.00    +0.000 C 
ENDROOT
BRANCH   1   5
ATOM      3  C   UNL A   1     -11.241  -1.758  37.378  0.00  0.00    -0.000 A 
ATOM      4  C   UNL A   1     -11.548  -2.513  38.046  0.00  0.00    -0.000 A 
ATOM      5  C   UNL A   1     -11.234  -0.426  37.848  0.00  0.00    -0.000 A 
ATOM      6  C   UNL A   1     -11.626  -0.101  39.131  0.00  0.00    -0.004 A 
ATOM      7  C   UNL A   1     -12.005  -2.439  39.448  0.00  0.00    -0.004 A 
ATOM      8  C   UNL A   1     -12.015  -1.180  39.937  0.00  0.00    -0.022 A 
ATOM      9  C   UNL A   1     -12.454  -0.914  41.371  0.00  0.00    +0.031 C 
ENDBRANCH   1   5
BRANCH   1  10
ATOM     10  C   UNL A   1     -11.739   1.491  36.363  0.00  0.00    +0.019 A 
ATOM     11  C   UNL A   1     -12.541   2.212  36.564  0.00  0.00    +0.003 A 
ATOM     12  C   UNL A   1     -13.502   2.825  35.715  0.00  0.00    +0.019 A 
ATOM     13  C   UNL A   1     -11.767   1.273  34.855  0.00  0.00    +0.099 A 
ATOM     14  N   UNL A   1     -12.662   1.812  34.100  0.00  0.00    -0.242 NA
ATOM     15  C   UNL A   1     -13.547   2.642  34.547  0.00  0.00    +0.099 A 
BRANCH  12  16
ATOM     16  C   UNL A   1     -14.558   3.680  36.520  0.00  0.00    +0.002 A 
ATOM     17  C   UNL A   1     -15.792   3.612  36.150  0.00  0.00    +0.000 A 
ATOM     18  C   UNL A   1     -16.850   4.319  36.899  0.00  0.00    +0.000 A 
ATOM     19  C   UNL A   1     -16.389   5.104  37.969  0.00  0.00    +0.000 A 
ATOM     20  C   UNL A   1     -14.057   4.544  37.463  0.00  0.00    +0.000 A 
ATOM     21  C   UNL A   1     -15.032   5.243  38.242  0.00  0.00    +0.000 A 
ENDBRANCH  12  16
ENDBRANCH   1  10
BRANCH   2  22
ATOM     22  C   UNL A   1      -8.917   2.207  36.619  0.00  0.00    +0.003 C 
ATOM     23  C   UNL A   1      -8.201   2.440  35.872  0.00  0.00    +0.042 C 
BRANCH  23  24
ATOM     24  C   UNL A   1      -7.656   1.428  34.901  0.00  0.00    +0.196 C 
ATOM     25  O   UNL A   1      -8.626   1.434  33.747  0.00  0.00    -0.287 OA
BRANCH  24  26
ATOM     26  C   UNL A   1      -6.746   0.732  34.777  0.00  0.00    +0.039 A 
ATOM     27  C   UNL A   1      -5.412   1.294  34.699  0.00  0.00    +0.003 A 
ATOM     28  C   UNL A   1      -4.248   0.492  34.725  0.00  0.00    +0.003 A 
ATOM     29  C   UNL A   1      -4.475  -0.912  34.815  0.00  0.00    +0.029 A 
ATOM     30  C   UNL A   1      -6.752  -0.738  34.813  0.00  0.00    +0.003 A 
ATOM     31  C   UNL A   1      -5.699  -1.526  34.763  0.00  0.00    +0.003 A 
BRANCH  29  32
ATOM     32  P   UNL A   1      -2.943  -1.814  34.657  0.00  0.00    +0.140 P 
ATOM     33  O   UNL A   1      -1.955  -0.858  34.537  0.00  0.00    -0.354 OA
ATOM     34  O   UNL A   1      -2.854  -2.531  35.970  0.00  0.00    -0.456 OA
ATOM     35  O   UNL A   1      -3.097  -2.692  33.475  0.00  0.00    -0.354 OA
ENDBRANCH  29  32
ENDBRANCH  24  26
ENDBRANCH  23  24
ENDBRANCH   2  22
TORSDOF 7
ENDMDL
ENDMDL
