MODEL 4648
MODEL 1
REMARK VINA RESULT:    -3.555      0.000      0.000
REMARK INTER + INTRA:          -4.025
REMARK INTER:                  -3.970
REMARK INTRA:                  -0.055
REMARK UNBOUND:                -0.055
REMARK  Name = No_4648-gen_results/8p0m/2024-11-27-11-27-31/
REMARK  2 active torsions:
REMARK  status: ('A' for Active; 'I' for Inactive)
REMARK    1  A    between atoms: C_1  and  C_3
REMARK    2  A    between atoms: C_3  and  C_4
REMARK                            x       y       z     vdW  Elec       q    Type
REMARK                         _______ _______ _______ _____ _____    ______ ____
ROOT
ATOM      1  C   UNL A   1      -9.365  -9.306  19.685  0.00  0.00    +0.103 C 
ENDROOT
BRANCH   1   2
ATOM      2  C   UNL A   1      -7.981  -9.378  19.903  0.00  0.00    -0.073 C 
ATOM      3  C   UNL A   1      -7.314  -8.565  19.837  0.00  0.00    -0.014 C 
ENDBRANCH   1   2
BRANCH   1   4
ATOM      4  C   UNL A   1     -10.020  -9.756  18.506  0.00  0.00    -0.012 C 
ATOM      5  C   UNL A   1      -9.430 -10.500  17.545  0.00  0.00    -0.004 C 
ENDBRANCH   1   4
TORSDOF 2
ENDMDL
ENDMDL
