REMARK  Name = No_4648-gen_results/8p0m/2024-11-27-11-27-31/
REMARK  2 active torsions:
REMARK  status: ('A' for Active; 'I' for Inactive)
REMARK    1  A    between atoms: C_1  and  C_3
REMARK    2  A    between atoms: C_3  and  C_4
REMARK                            x       y       z     vdW  Elec       q    Type
REMARK                         _______ _______ _______ _____ _____    ______ ____
ROOT
ATOM      1  C   UNL A   1     -28.192   0.147  27.871  0.00  0.00    +0.103 C 
ENDROOT
BRANCH   1   2
ATOM      2  C   UNL A   1     -28.016  -0.814  28.878  0.00  0.00    -0.073 C 
ATOM      3  C   UNL A   1     -28.469  -0.785  29.829  0.00  0.00    -0.014 C 
ENDBRANCH   1   2
BRANCH   1   4
ATOM      4  C   UNL A   1     -27.334   0.304  26.748  0.00  0.00    -0.012 C 
ATOM      5  C   UNL A   1     -27.663   0.985  25.629  0.00  0.00    -0.004 C 
ENDBRANCH   1   4
TORSDOF 2
