MODEL 4649
MODEL 1
REMARK VINA RESULT:    -5.301      0.000      0.000
REMARK INTER + INTRA:          -5.777
REMARK INTER:                  -5.611
REMARK INTRA:                  -0.166
REMARK UNBOUND:                -0.166
REMARK  Name = No_4649-gen_results/8p0m/2024-11-27-11-27-31/
REMARK  1 active torsions:
REMARK  status: ('A' for Active; 'I' for Inactive)
REMARK    1  A    between atoms: C_2  and  C_4
REMARK                            x       y       z     vdW  Elec       q    Type
REMARK                         _______ _______ _______ _____ _____    ______ ____
ROOT
ATOM      1  C   UNL A   1     -24.303  -2.754  29.053  0.00  0.00    +0.071 A 
ATOM      2  C   UNL A   1     -25.505  -2.618  29.668  0.00  0.00    +0.004 A 
ATOM      3  C   UNL A   1     -26.453  -3.661  29.864  0.00  0.00    -0.000 A 
ATOM      4  C   UNL A   1     -26.079  -4.873  29.605  0.00  0.00    -0.000 A 
ATOM      5  C   UNL A   1     -23.942  -4.029  28.708  0.00  0.00    +0.004 A 
ATOM      6  C   UNL A   1     -24.808  -5.115  28.959  0.00  0.00    -0.000 A 
ENDROOT
BRANCH   1   8
ATOM      7  F   UNL A   1     -22.398  -1.701  28.910  0.00  0.00    -0.166 F 
ATOM      8  C   UNL A   1     -23.520  -1.476  28.913  0.00  0.00    +0.419 C 
ATOM      9  F   UNL A   1     -23.907  -0.852  28.030  0.00  0.00    -0.166 F 
ATOM     10  F   UNL A   1     -23.837  -0.750  30.081  0.00  0.00    -0.166 F 
ENDBRANCH   1   8
TORSDOF 1
ENDMDL
ENDMDL
