MODEL 464
MODEL 1
REMARK VINA RESULT:    -6.008      0.000      0.000
REMARK INTER + INTRA:          -8.300
REMARK INTER:                  -7.765
REMARK INTRA:                  -0.535
REMARK UNBOUND:                -0.535
REMARK  Name = No_464-gen_results/8p0m/2024-11-27-11-27-31/
REMARK  5 active torsions:
REMARK  status: ('A' for Active; 'I' for Inactive)
REMARK    1  A    between atoms: C_2  and  C_13
REMARK    2  A    between atoms: C_3  and  C_7
REMARK    3  A    between atoms: C_6  and  C_10
REMARK    4  A    between atoms: C_10  and  O_12
REMARK    5  A    between atoms: O_12  and  C_16
REMARK                            x       y       z     vdW  Elec       q    Type
REMARK                         _______ _______ _______ _____ _____    ______ ____
ROOT
ATOM      1  C   UNL A   1     -24.605  -2.006  31.041  0.00  0.00    +0.006 A 
ATOM      2  C   UNL A   1     -24.188  -1.103  31.390  0.00  0.00    +0.080 A 
ATOM      3  C   UNL A   1     -24.181  -2.485  29.782  0.00  0.00    +0.021 A 
ATOM      4  C   UNL A   1     -23.261  -1.801  29.012  0.00  0.00    +0.006 A 
ATOM      5  C   UNL A   1     -23.201  -0.192  30.778  0.00  0.00    +0.013 A 
ATOM      6  C   UNL A   1     -22.769  -0.613  29.569  0.00  0.00    +0.076 A 
ENDROOT
BRANCH   3   7
ATOM      7  C   UNL A   1     -24.659  -3.781  29.190  0.00  0.00    +0.239 C 
ATOM      8 BR   UNL A   1     -25.640  -4.513  29.378  0.00  0.00    -0.038 Br
ATOM      9  F   UNL A   1     -23.596  -4.229  28.261  0.00  0.00    -0.220 F 
ENDBRANCH   3   7
BRANCH   2  10
ATOM     10  C   UNL A   1     -24.537  -0.519  32.862  0.00  0.00    +0.388 C 
ATOM     11  O   UNL A   1     -25.018   0.505  32.962  0.00  0.00    -0.241 OA
ATOM     12  O   UNL A   1     -23.978  -1.169  33.893  0.00  0.00    -0.241 OA
ENDBRANCH   2  10
BRANCH   6  13
ATOM     13  C   UNL A   1     -21.792   0.184  28.761  0.00  0.00    +0.346 C 
ATOM     14  O   UNL A   1     -20.743  -0.098  28.421  0.00  0.00    -0.244 OA
BRANCH  13  15
ATOM     15  O   UNL A   1     -22.372   1.359  28.298  0.00  0.00    -0.418 OA
BRANCH  15  16
ATOM     16  C   UNL A   1     -22.082   1.734  27.070  0.00  0.00    +0.183 C 
ATOM     17  C   UNL A   1     -22.783   2.130  26.241  0.00  0.00    +0.044 C 
ENDBRANCH  15  16
ENDBRANCH  13  15
ENDBRANCH   6  13
TORSDOF 5
ENDMDL
ENDMDL
