REMARK  Name = outputs/IAG933/test6/raw/output_465_IAG933_linker_design_.xyz
REMARK  12 active torsions:
REMARK  status: ('A' for Active; 'I' for Inactive)
REMARK    1  A    between atoms: C_1  and  C_2
REMARK    2  A    between atoms: C_1  and  C_8
REMARK    3  A    between atoms: C_1  and  C_43
REMARK    4  A    between atoms: C_13  and  N_38
REMARK    5  A    between atoms: C_14  and  C_15
REMARK    6  A    between atoms: C_21  and  O_22
REMARK    7  A    between atoms: O_22  and  C_23
REMARK    8  A    between atoms: C_23  and  C_24
REMARK    9  A    between atoms: C_30  and  C_42
REMARK   10  A    between atoms: C_31  and  C_42
REMARK   11  A    between atoms: C_35  and  C_43
REMARK   12  A    between atoms: C_43  and  C_44
REMARK                            x       y       z     vdW  Elec       q    Type
REMARK                         _______ _______ _______ _____ _____    ______ ____
ROOT
ATOM      1  C   UNL A   1     -23.318   1.796  26.743  0.00  0.00    +0.105 C 
ATOM      2  C   UNL A   1     -24.333   0.814  28.677  0.00  0.00    +0.088 C 
ATOM      3  C   UNL A   1     -22.398   1.589  27.771  0.00  0.00    +0.180 C 
ATOM      4  N   UNL A   1     -24.555   1.367  27.289  0.00  0.00    -0.305 N 
ATOM      5  C   UNL A   1     -22.991   0.761  28.760  0.00  0.00    +0.058 C 
ATOM      6  F   UNL A   1     -21.052   1.436  27.523  0.00  0.00    -0.235 F 
ATOM      7  C   UNL A   1     -23.162   2.382  25.387  0.00  0.00    +0.024 C 
ENDROOT
BRANCH   4   8
ATOM      8  C   UNL A   1     -25.688   1.614  26.461  0.00  0.00    +0.086 C 
ATOM      9  C   UNL A   1     -26.250   2.920  26.395  0.00  0.00    +0.090 C 
ATOM     10  C   UNL A   1     -27.438   3.091  25.645  0.00  0.00    +0.108 C 
ATOM     11  N   UNL A   1     -28.075   2.089  25.003  0.00  0.00    -0.208 NA
ATOM     12  C   UNL A   1     -27.543   0.849  25.079  0.00  0.00    +0.255 C 
ATOM     13  C   UNL A   1     -26.354   0.576  25.777  0.00  0.00    +0.206 C 
ATOM     14  F   UNL A   1     -25.860  -0.681  25.795  0.00  0.00    -0.198 F 
BRANCH   9  15
ATOM     15  C   UNL A   1     -25.642   4.093  27.123  0.00  0.00    +0.268 C 
ATOM     16  N   UNL A   1     -25.614   5.252  26.449  0.00  0.00    -0.200 NA
ATOM     17  C   UNL A   1     -25.026   6.479  26.963  0.00  0.00    +0.139 C 
ATOM     18  O   UNL A   1     -25.143   3.966  28.243  0.00  0.00    -0.268 OA
ENDBRANCH   9  15
BRANCH  12  19
ATOM     19  O   UNL A   1     -28.193  -0.208  24.477  0.00  0.00    -0.456 OA
BRANCH  19  20
ATOM     20  C   UNL A   1     -29.460   0.005  23.866  0.00  0.00    +0.243 C 
BRANCH  20  21
ATOM     21  C   UNL A   1     -30.065  -1.377  23.573  0.00  0.00    +0.229 C 
ATOM     22  O   UNL A   1     -30.729  -1.878  24.721  0.00  0.00    -0.216 OA
ENDBRANCH  20  21
ENDBRANCH  19  20
ENDBRANCH  12  19
ENDBRANCH   4   8
BRANCH   2  23
ATOM     23  C   UNL A   1     -25.419  -0.190  28.992  0.00  0.00    +0.088 C 
BRANCH  23  25
ATOM     24  C   UNL A   1     -27.443   1.616  29.717  0.00  0.00    -0.086 C 
ATOM     25  C   UNL A   1     -26.665   0.636  29.279  0.00  0.00    -0.090 C 
BRANCH  24  26
ATOM     26  C   UNL A   1     -28.065   2.805  30.199  0.00  0.00    +0.102 C 
BRANCH  26  28
ATOM     27  C   UNL A   1     -26.113   3.997  31.273  0.00  0.00    -0.003 C 
ATOM     28  C   UNL A   1     -27.396   3.521  31.397  0.00  0.00    -0.009 C 
ATOM     29  C   UNL A   1     -25.353   4.248  32.414  0.00  0.00    -0.000 C 
ATOM     30  C   UNL A   1     -27.341   3.856  33.797  0.00  0.00    -0.000 C 
ATOM     31  C   UNL A   1     -25.966   4.092  33.667  0.00  0.00    -0.000 C 
ATOM     32  C   UNL A   1     -28.089   3.622  32.640  0.00  0.00    -0.003 C 
ENDBRANCH  26  28
ENDBRANCH  24  26
ENDBRANCH  23  25
BRANCH  23  33
ATOM     33  C   UNL A   1     -24.855  -1.012  30.143  0.00  0.00    +0.052 C 
BRANCH  33  34
ATOM     34  C   UNL A   1     -24.973  -2.505  29.788  0.00  0.00    -0.020 C 
ATOM     35  C   UNL A   1     -23.906  -3.173  29.146  0.00  0.00    -0.004 C 
ATOM     36  C   UNL A   1     -23.989  -4.549  28.853  0.00  0.00    -0.000 C 
ATOM     37  C   UNL A   1     -25.137  -5.280  29.205  0.00  0.00    -0.000 C 
ATOM     38  C   UNL A   1     -26.232  -4.611  29.784  0.00  0.00    -0.000 C 
ATOM     39  C   UNL A   1     -26.155  -3.232  30.065  0.00  0.00    -0.004 C 
ENDBRANCH  33  34
BRANCH  33  40
ATOM     40  C   UNL A   1     -25.387  -0.679  31.571  0.00  0.00    +0.078 C 
ATOM     41  C   UNL A   1     -25.189   0.773  32.028  0.00  0.00    +0.019 C 
ATOM     42  C   UNL A   1     -25.336   0.684  33.544  0.00  0.00    +0.020 C 
ATOM     43  C   UNL A   1     -24.829  -0.715  33.905  0.00  0.00    +0.089 C 
ATOM     44  N   UNL A   1     -24.758  -1.481  32.646  0.00  0.00    -0.219 NA
ENDBRANCH  33  40
ENDBRANCH  23  33
ENDBRANCH   2  23
TORSDOF 12
