REMARK  Name = No_4650-gen_results/8p0m/2024-11-27-11-27-31/
REMARK  6 active torsions:
REMARK  status: ('A' for Active; 'I' for Inactive)
REMARK    1  A    between atoms: C_2  and  C_13
REMARK    2  A    between atoms: C_3  and  O_16
REMARK    3  A    between atoms: C_4  and  C_7
REMARK    4  A    between atoms: O_16  and  C_17
REMARK    5  A    between atoms: C_17  and  C_18
REMARK    6  A    between atoms: C_19  and  C_20
REMARK                            x       y       z     vdW  Elec       q    Type
REMARK                         _______ _______ _______ _____ _____    ______ ____
ROOT
ATOM      1  C   UNL A   1     -28.016  -0.814  28.878  0.00  0.00    +0.043 A 
ATOM      2  C   UNL A   1     -28.469  -0.785  29.829  0.00  0.00    +0.083 A 
ATOM      3  C   UNL A   1     -26.504  -0.778  28.877  0.00  0.00    +0.139 A 
ATOM      4  C   UNL A   1     -25.810  -0.853  30.103  0.00  0.00    +0.034 A 
ATOM      5  C   UNL A   1     -27.991  -0.892  31.226  0.00  0.00    +0.007 A 
ATOM      6  C   UNL A   1     -26.604  -0.868  31.265  0.00  0.00    +0.003 A 
ENDROOT
BRANCH   4   7
ATOM      7  C   UNL A   1     -24.389  -0.805  30.164  0.00  0.00    +0.003 A 
ATOM      8  C   UNL A   1     -23.635  -0.862  29.147  0.00  0.00    +0.000 A 
ATOM      9  C   UNL A   1     -22.175  -0.673  29.213  0.00  0.00    +0.000 A 
ATOM     10  C   UNL A   1     -23.746  -0.771  31.494  0.00  0.00    +0.000 A 
ATOM     11  C   UNL A   1     -22.290  -0.658  31.582  0.00  0.00    +0.000 A 
ATOM     12  C   UNL A   1     -21.575  -0.591  30.377  0.00  0.00    +0.000 A 
ENDBRANCH   4   7
BRANCH   2  13
ATOM     13  C   UNL A   1     -30.088  -0.780  29.838  0.00  0.00    +0.388 C 
ATOM     14  O   UNL A   1     -30.689   0.088  30.541  0.00  0.00    -0.241 OA
ATOM     15  O   UNL A   1     -30.655  -1.535  29.066  0.00  0.00    -0.241 OA
ENDBRANCH   2  13
BRANCH   3  16
ATOM     16  O   UNL A   1     -25.832  -0.745  27.746  0.00  0.00    -0.471 OA
BRANCH  16  17
ATOM     17  C   UNL A   1     -25.953   0.437  26.938  0.00  0.00    +0.232 C 
BRANCH  17  18
ATOM     18  C   UNL A   1     -25.625   1.542  27.495  0.00  0.00    +0.022 C 
ATOM     19  C   UNL A   1     -25.550   2.558  27.241  0.00  0.00    +0.022 C 
BRANCH  19  20
ATOM     20  C   UNL A   1     -25.239   3.834  28.004  0.00  0.00    +0.122 C 
ATOM     21  N   UNL A   1     -25.123   3.518  29.312  0.00  0.00    -0.146 NA
ENDBRANCH  19  20
ENDBRANCH  17  18
ENDBRANCH  16  17
ENDBRANCH   3  16
TORSDOF 6
