MODEL 4650
MODEL 1
REMARK VINA RESULT:    -6.726      0.000      0.000
REMARK INTER + INTRA:         -10.258
REMARK INTER:                  -9.085
REMARK INTRA:                  -1.173
REMARK UNBOUND:                -1.173
REMARK  Name = No_4650-gen_results/8p0m/2024-11-27-11-27-31/
REMARK  6 active torsions:
REMARK  status: ('A' for Active; 'I' for Inactive)
REMARK    1  A    between atoms: C_2  and  C_13
REMARK    2  A    between atoms: C_3  and  O_16
REMARK    3  A    between atoms: C_4  and  C_7
REMARK    4  A    between atoms: O_16  and  C_17
REMARK    5  A    between atoms: C_17  and  C_18
REMARK    6  A    between atoms: C_19  and  C_20
REMARK                            x       y       z     vdW  Elec       q    Type
REMARK                         _______ _______ _______ _____ _____    ______ ____
ROOT
ATOM      1  C   UNL A   1     -23.051   0.615  28.050  0.00  0.00    +0.043 A 
ATOM      2  C   UNL A   1     -23.742   1.011  27.360  0.00  0.00    +0.083 A 
ATOM      3  C   UNL A   1     -23.425  -0.721  28.651  0.00  0.00    +0.139 A 
ATOM      4  C   UNL A   1     -24.560  -1.404  28.165  0.00  0.00    +0.034 A 
ATOM      5  C   UNL A   1     -24.950   0.503  26.672  0.00  0.00    +0.007 A 
ATOM      6  C   UNL A   1     -25.322  -0.728  27.194  0.00  0.00    +0.003 A 
ENDROOT
BRANCH   4   7
ATOM      7  C   UNL A   1     -24.970  -2.655  28.706  0.00  0.00    +0.003 A 
ATOM      8  C   UNL A   1     -25.979  -2.804  29.458  0.00  0.00    +0.000 A 
ATOM      9  C   UNL A   1     -26.471  -4.122  29.898  0.00  0.00    +0.000 A 
ATOM     10  C   UNL A   1     -24.127  -3.841  28.446  0.00  0.00    +0.000 A 
ATOM     11  C   UNL A   1     -24.561  -5.149  28.937  0.00  0.00    +0.000 A 
ATOM     12  C   UNL A   1     -25.772  -5.203  29.643  0.00  0.00    +0.000 A 
ENDBRANCH   4   7
BRANCH   2  13
ATOM     13  C   UNL A   1     -23.370   2.461  26.744  0.00  0.00    +0.388 C 
ATOM     14  O   UNL A   1     -22.750   2.510  25.638  0.00  0.00    -0.241 OA
ATOM     15  O   UNL A   1     -23.817   3.443  27.312  0.00  0.00    -0.241 OA
ENDBRANCH   2  13
BRANCH   3  16
ATOM     16  O   UNL A   1     -22.669  -1.281  29.572  0.00  0.00    -0.471 OA
BRANCH  16  17
ATOM     17  C   UNL A   1     -22.542  -0.598  30.829  0.00  0.00    +0.232 C 
BRANCH  17  18
ATOM     18  C   UNL A   1     -23.630  -0.361  31.460  0.00  0.00    +0.022 C 
ATOM     19  C   UNL A   1     -24.246  -0.831  32.168  0.00  0.00    +0.022 C 
BRANCH  19  20
ATOM     20  C   UNL A   1     -25.489  -0.429  32.944  0.00  0.00    +0.122 C 
ATOM     21  N   UNL A   1     -26.054   0.619  32.308  0.00  0.00    -0.146 NA
ENDBRANCH  19  20
ENDBRANCH  17  18
ENDBRANCH  16  17
ENDBRANCH   3  16
TORSDOF 6
ENDMDL
ENDMDL
