MODEL 4652
MODEL 1
REMARK VINA RESULT:    -5.642      0.000      0.000
REMARK INTER + INTRA:          -6.638
REMARK INTER:                  -6.302
REMARK INTRA:                  -0.336
REMARK UNBOUND:                -0.336
REMARK  Name = No_4652-gen_results/8p0m/2024-11-27-11-27-31/
REMARK  2 active torsions:
REMARK  status: ('A' for Active; 'I' for Inactive)
REMARK    1  A    between atoms: C_2  and  C_7
REMARK    2  A    between atoms: N_9  and  C_10
REMARK                            x       y       z     vdW  Elec       q    Type
REMARK                         _______ _______ _______ _____ _____    ______ ____
ROOT
ATOM      1  C   UNL A   1     -25.956  -2.913  29.667  0.00  0.00    +0.005 A 
ATOM      2  C   UNL A   1     -25.074  -2.630  29.164  0.00  0.00    +0.055 A 
ATOM      3  C   UNL A   1     -26.235  -4.398  29.703  0.00  0.00    +0.000 A 
ATOM      4  C   UNL A   1     -25.266  -5.296  29.209  0.00  0.00    +0.000 A 
ATOM      5  C   UNL A   1     -23.905  -3.346  28.606  0.00  0.00    +0.005 A 
ATOM      6  C   UNL A   1     -24.123  -4.717  28.627  0.00  0.00    +0.000 A 
ENDROOT
BRANCH   2   7
ATOM      7  C   UNL A   1     -24.745  -1.058  29.122  0.00  0.00    +0.269 C 
ATOM      8  O   UNL A   1     -25.495  -0.421  29.640  0.00  0.00    -0.268 OA
ATOM      9  N   UNL A   1     -23.798  -0.566  28.239  0.00  0.00    -0.174 NA
BRANCH   9  10
ATOM     10  C   UNL A   1     -23.326   0.402  28.223  0.00  0.00    +0.084 C 
ATOM     11  C   UNL A   1     -22.374   0.920  28.327  0.00  0.00    -0.008 C 
ATOM     12  C   UNL A   1     -21.254   0.024  28.589  0.00  0.00    +0.032 C 
ENDBRANCH   9  10
ENDBRANCH   2   7
TORSDOF 2
ENDMDL
ENDMDL
