REMARK  Name = No_4653-gen_results/8p0m/2024-11-27-11-27-31/
REMARK  4 active torsions:
REMARK  status: ('A' for Active; 'I' for Inactive)
REMARK    1  A    between atoms: C_1  and  C_8
REMARK    2  A    between atoms: C_5  and  C_10
REMARK    3  A    between atoms: C_8  and  C_9
REMARK    4  A    between atoms: C_13  and  C_14
REMARK                            x       y       z     vdW  Elec       q    Type
REMARK                         _______ _______ _______ _____ _____    ______ ____
ROOT
ATOM      1  C   UNL A   1     -28.016  -0.814  28.878  0.00  0.00    -0.029 C 
ATOM      2  C   UNL A   1     -27.064  -0.119  28.608  0.00  0.00    -0.048 C 
ATOM      3  C   UNL A   1     -26.972   0.714  27.506  0.00  0.00    +0.022 C 
ATOM      4  C   UNL A   1     -25.820   1.491  27.116  0.00  0.00    +0.016 C 
ATOM      5  C   UNL A   1     -24.656   1.424  27.918  0.00  0.00    +0.104 C 
ATOM      6  C   UNL A   1     -24.685   0.590  29.066  0.00  0.00    +0.016 C 
ATOM      7  C   UNL A   1     -25.810  -0.127  29.334  0.00  0.00    +0.022 C 
ENDROOT
BRANCH   5   8
ATOM      8  C   UNL A   1     -23.468   2.204  27.601  0.00  0.00    +0.364 C 
ATOM      9  O   UNL A   1     -23.280   2.737  26.515  0.00  0.00    -0.246 OA
ATOM     10  O   UNL A   1     -22.347   1.985  28.331  0.00  0.00    -0.246 OA
ENDBRANCH   5   8
BRANCH   1  11
ATOM     11  C   UNL A   1     -29.218  -0.042  29.313  0.00  0.00    +0.063 C 
BRANCH  11  12
ATOM     12  C   UNL A   1     -30.280  -0.807  29.836  0.00  0.00    +0.041 C 
ATOM     13  C   UNL A   1     -30.464  -0.818  31.150  0.00  0.00    +0.052 C 
ATOM     14 CL   UNL A   1     -31.340  -1.600  28.876  0.00  0.00    -0.087 Cl
BRANCH  13  15
ATOM     15  C   UNL A   1     -31.713  -1.132  31.709  0.00  0.00    +0.341 C 
ATOM     16  F   UNL A   1     -32.629  -1.000  31.116  0.00  0.00    -0.193 F 
ATOM     17  F   UNL A   1     -31.639  -2.448  32.212  0.00  0.00    -0.193 F 
ENDBRANCH  13  15
ENDBRANCH  11  12
ENDBRANCH   1  11
TORSDOF 4
