MODEL 4653
MODEL 1
REMARK VINA RESULT:    -5.804      0.000      0.000
REMARK INTER + INTRA:          -7.914
REMARK INTER:                  -7.161
REMARK INTRA:                  -0.753
REMARK UNBOUND:                -0.753
REMARK  Name = No_4653-gen_results/8p0m/2024-11-27-11-27-31/
REMARK  4 active torsions:
REMARK  status: ('A' for Active; 'I' for Inactive)
REMARK    1  A    between atoms: C_1  and  C_8
REMARK    2  A    between atoms: C_5  and  C_10
REMARK    3  A    between atoms: C_8  and  C_9
REMARK    4  A    between atoms: C_13  and  C_14
REMARK                            x       y       z     vdW  Elec       q    Type
REMARK                         _______ _______ _______ _____ _____    ______ ____
ROOT
ATOM      1  C   UNL A   1     -24.578   1.035  29.469  0.00  0.00    -0.029 C 
ATOM      2  C   UNL A   1     -24.587  -0.166  29.331  0.00  0.00    -0.048 C 
ATOM      3  C   UNL A   1     -25.697  -0.978  29.489  0.00  0.00    +0.022 C 
ATOM      4  C   UNL A   1     -25.720  -2.419  29.410  0.00  0.00    +0.016 C 
ATOM      5  C   UNL A   1     -24.509  -3.101  29.141  0.00  0.00    +0.104 C 
ATOM      6  C   UNL A   1     -23.333  -2.326  28.965  0.00  0.00    +0.016 C 
ATOM      7  C   UNL A   1     -23.408  -0.973  29.087  0.00  0.00    +0.022 C 
ENDROOT
BRANCH   5   8
ATOM      8  C   UNL A   1     -24.464  -4.551  29.017  0.00  0.00    +0.364 C 
ATOM      9  O   UNL A   1     -23.790  -5.137  28.181  0.00  0.00    -0.246 OA
ATOM     10  O   UNL A   1     -25.501  -5.267  29.518  0.00  0.00    -0.246 OA
ENDBRANCH   5   8
BRANCH   1  11
ATOM     11  C   UNL A   1     -25.314   1.768  28.397  0.00  0.00    +0.063 C 
BRANCH  11  12
ATOM     12  C   UNL A   1     -24.757   1.682  27.105  0.00  0.00    +0.041 C 
ATOM     13  C   UNL A   1     -23.840   2.574  26.751  0.00  0.00    +0.052 C 
ATOM     14 CL   UNL A   1     -25.135   0.474  26.070  0.00  0.00    -0.087 Cl
BRANCH  13  15
ATOM     15  C   UNL A   1     -22.917   2.304  25.728  0.00  0.00    +0.341 C 
ATOM     16  F   UNL A   1     -22.773   3.029  24.914  0.00  0.00    -0.193 F 
ATOM     17  F   UNL A   1     -21.682   1.995  26.335  0.00  0.00    -0.193 F 
ENDBRANCH  13  15
ENDBRANCH  11  12
ENDBRANCH   1  11
TORSDOF 4
ENDMDL
ENDMDL
