MODEL 4654
MODEL 1
REMARK VINA RESULT:    -4.595      0.000      0.000
REMARK INTER + INTRA:          -4.595
REMARK INTER:                  -4.595
REMARK INTRA:                   0.000
REMARK UNBOUND:                 0.000
REMARK  Name = No_4654-gen_results/8p0m/2024-11-27-11-27-31/
REMARK  0 active torsions:
REMARK  status: ('A' for Active; 'I' for Inactive)
REMARK                            x       y       z     vdW  Elec       q    Type
REMARK                         _______ _______ _______ _____ _____    ______ ____
ROOT
ATOM      1  C   UNL A   1     -10.203  -9.804  18.397  0.00  0.00    +0.030 A 
ATOM      2  C   UNL A   1      -9.211 -10.364  17.993  0.00  0.00    +0.140 A 
ATOM      3  C   UNL A   1      -8.062 -10.443  18.773  0.00  0.00    +0.030 A 
ATOM      4  C   UNL A   1      -8.004  -9.818  20.070  0.00  0.00    +0.002 A 
ATOM      5  C   UNL A   1      -9.187  -9.172  20.449  0.00  0.00    +0.000 A 
ATOM      6  C   UNL A   1     -10.241  -9.112  19.667  0.00  0.00    +0.002 A 
ATOM      7  F   UNL A   1      -9.109 -10.929  16.789  0.00  0.00    -0.204 F 
ENDROOT
TORSDOF 0
ENDMDL
ENDMDL
