REMARK  Name = No_4655-gen_results/8p0m/2024-11-27-11-27-31/
REMARK  1 active torsions:
REMARK  status: ('A' for Active; 'I' for Inactive)
REMARK    1  A    between atoms: C_3  and  N_5
REMARK                            x       y       z     vdW  Elec       q    Type
REMARK                         _______ _______ _______ _____ _____    ______ ____
ROOT
ATOM      1  O   UNL A   1     -28.123  -1.335  28.487  0.00  0.00    -0.272 OA
ATOM      2  C   UNL A   1     -27.064  -0.824  28.869  0.00  0.00    +0.256 C 
ATOM      3  C   UNL A   1     -26.402  -0.062  28.622  0.00  0.00    +0.138 C 
ATOM      4  N   UNL A   1     -26.265  -1.867  29.761  0.00  0.00    -0.204 NA
ATOM      5  C   UNL A   1     -24.967   0.323  29.179  0.00  0.00    +0.027 C 
ATOM      6  C   UNL A   1     -24.420  -0.610  30.039  0.00  0.00    +0.025 C 
ATOM      7  C   UNL A   1     -25.102  -1.753  30.289  0.00  0.00    +0.115 C 
ENDROOT
BRANCH   3   8
ATOM      8  N   UNL A   1     -26.826   1.075  27.914  0.00  0.00    -0.253 NA
ATOM      9  C   UNL A   1     -26.295   1.407  26.722  0.00  0.00    +0.151 C 
ATOM     10  C   UNL A   1     -28.044   1.641  28.191  0.00  0.00    +0.074 C 
ATOM     11  C   UNL A   1     -28.689   2.318  27.352  0.00  0.00    +0.018 C 
ATOM     12  C   UNL A   1     -26.892   2.212  25.751  0.00  0.00    +0.036 C 
ATOM     13  C   UNL A   1     -28.099   2.796  26.095  0.00  0.00    +0.004 C 
ATOM     14  N   UNL A   1     -25.148   0.694  26.421  0.00  0.00    -0.115 NA
ENDBRANCH   3   8
TORSDOF 1
