MODEL 4655
MODEL 1
REMARK VINA RESULT:    -5.507      0.000      0.000
REMARK INTER + INTRA:          -5.736
REMARK INTER:                  -5.829
REMARK INTRA:                   0.093
REMARK UNBOUND:                 0.093
REMARK  Name = No_4655-gen_results/8p0m/2024-11-27-11-27-31/
REMARK  1 active torsions:
REMARK  status: ('A' for Active; 'I' for Inactive)
REMARK    1  A    between atoms: C_3  and  N_5
REMARK                            x       y       z     vdW  Elec       q    Type
REMARK                         _______ _______ _______ _____ _____    ______ ____
ROOT
ATOM      1  O   UNL A   1     -26.267  -1.323  30.279  0.00  0.00    -0.272 OA
ATOM      2  C   UNL A   1     -25.590  -2.248  29.815  0.00  0.00    +0.256 C 
ATOM      3  C   UNL A   1     -24.832  -2.424  29.127  0.00  0.00    +0.138 C 
ATOM      4  N   UNL A   1     -26.353  -3.624  30.034  0.00  0.00    -0.204 NA
ATOM      5  C   UNL A   1     -24.207  -3.765  28.553  0.00  0.00    +0.027 C 
ATOM      6  C   UNL A   1     -24.892  -4.911  28.907  0.00  0.00    +0.025 C 
ATOM      7  C   UNL A   1     -26.024  -4.800  29.643  0.00  0.00    +0.115 C 
ENDROOT
BRANCH   3   8
ATOM      8  N   UNL A   1     -23.905  -1.425  28.786  0.00  0.00    -0.253 NA
ATOM      9  C   UNL A   1     -24.186  -0.479  27.870  0.00  0.00    +0.151 C 
ATOM     10  C   UNL A   1     -22.875  -1.125  29.641  0.00  0.00    +0.074 C 
ATOM     11  C   UNL A   1     -22.310  -0.003  29.663  0.00  0.00    +0.018 C 
ATOM     12  C   UNL A   1     -23.569   0.767  27.758  0.00  0.00    +0.036 C 
ATOM     13  C   UNL A   1     -22.506   1.005  28.613  0.00  0.00    +0.004 C 
ATOM     14  N   UNL A   1     -25.326  -0.756  27.137  0.00  0.00    -0.115 NA
ENDBRANCH   3   8
TORSDOF 1
ENDMDL
ENDMDL
