MODEL 4656
MODEL 1
REMARK VINA RESULT:    -6.591      0.000      0.000
REMARK INTER + INTRA:          -8.579
REMARK INTER:                  -8.132
REMARK INTRA:                  -0.447
REMARK UNBOUND:                -0.447
REMARK  Name = No_4656-gen_results/8p0m/2024-11-27-11-27-31/
REMARK  4 active torsions:
REMARK  status: ('A' for Active; 'I' for Inactive)
REMARK    1  A    between atoms: C_1  and  C_6
REMARK    2  A    between atoms: C_5  and  C_10
REMARK    3  A    between atoms: N_8  and  C_13
REMARK    4  A    between atoms: C_13  and  C_14
REMARK                            x       y       z     vdW  Elec       q    Type
REMARK                         _______ _______ _______ _____ _____    ______ ____
ROOT
ATOM      1  C   UNL A   1     -22.838   0.279  28.485  0.00  0.00    +0.265 C 
ATOM      2  N   UNL A   1     -23.172  -0.594  29.376  0.00  0.00    -0.197 NA
ATOM      3  O   UNL A   1     -21.602   0.402  28.320  0.00  0.00    -0.268 OA
ENDROOT
BRANCH   1   4
ATOM      4  C   UNL A   1     -23.842   0.892  27.659  0.00  0.00    +0.055 A 
ATOM      5  C   UNL A   1     -24.244   0.324  26.670  0.00  0.00    +0.005 A 
ATOM      6  C   UNL A   1     -25.160   0.840  25.770  0.00  0.00    +0.000 A 
ATOM      7  C   UNL A   1     -25.642   2.159  26.020  0.00  0.00    +0.005 A 
ATOM      8  C   UNL A   1     -25.063   2.818  27.044  0.00  0.00    +0.057 A 
ATOM      9  C   UNL A   1     -24.173   2.214  27.816  0.00  0.00    +0.009 A 
BRANCH   8  10
ATOM     10  C   UNL A   1     -25.551   4.194  27.262  0.00  0.00    +0.284 C 
ATOM     11  N   UNL A   1     -26.705   4.576  27.128  0.00  0.00    -0.084 NA
ATOM     12  O   UNL A   1     -24.698   5.012  27.798  0.00  0.00    -0.267 OA
ENDBRANCH   8  10
ENDBRANCH   1   4
BRANCH   2  13
ATOM     13  C   UNL A   1     -24.531  -1.017  29.631  0.00  0.00    +0.142 C 
BRANCH  13  14
ATOM     14  C   UNL A   1     -24.814  -2.361  29.512  0.00  0.00    -0.001 A 
ATOM     15  C   UNL A   1     -23.869  -3.169  28.777  0.00  0.00    -0.003 A 
ATOM     16  C   UNL A   1     -26.095  -2.924  29.908  0.00  0.00    -0.003 A 
ATOM     17  C   UNL A   1     -24.109  -4.563  28.716  0.00  0.00    -0.000 A 
ATOM     18  C   UNL A   1     -26.302  -4.345  29.726  0.00  0.00    -0.000 A 
ATOM     19  C   UNL A   1     -25.300  -5.142  29.117  0.00  0.00    -0.000 A 
ENDBRANCH  13  14
ENDBRANCH   2  13
TORSDOF 4
ENDMDL
ENDMDL
