REMARK  Name = No_4656-gen_results/8p0m/2024-11-27-11-27-31/
REMARK  4 active torsions:
REMARK  status: ('A' for Active; 'I' for Inactive)
REMARK    1  A    between atoms: C_1  and  C_6
REMARK    2  A    between atoms: C_5  and  C_10
REMARK    3  A    between atoms: N_8  and  C_13
REMARK    4  A    between atoms: C_13  and  C_14
REMARK                            x       y       z     vdW  Elec       q    Type
REMARK                         _______ _______ _______ _____ _____    ______ ____
ROOT
ATOM      1  C   UNL A   1     -28.022  -1.590  30.088  0.00  0.00    +0.265 C 
ATOM      2  N   UNL A   1     -27.023  -2.357  30.374  0.00  0.00    -0.197 NA
ATOM      3  O   UNL A   1     -28.868  -1.480  31.006  0.00  0.00    -0.268 OA
ENDROOT
BRANCH   1   4
ATOM      4  C   UNL A   1     -28.016  -0.814  28.878  0.00  0.00    +0.055 A 
ATOM      5  C   UNL A   1     -27.064  -0.119  28.608  0.00  0.00    +0.005 A 
ATOM      6  C   UNL A   1     -26.972   0.714  27.506  0.00  0.00    +0.000 A 
ATOM      7  C   UNL A   1     -28.105   0.774  26.642  0.00  0.00    +0.005 A 
ATOM      8  C   UNL A   1     -29.201   0.104  27.053  0.00  0.00    +0.057 A 
ATOM      9  C   UNL A   1     -29.164  -0.639  28.148  0.00  0.00    +0.009 A 
BRANCH   8  10
ATOM     10  C   UNL A   1     -30.373   0.210  26.162  0.00  0.00    +0.284 C 
ATOM     11  N   UNL A   1     -30.341   0.391  24.953  0.00  0.00    -0.084 NA
ATOM     12  O   UNL A   1     -31.516  -0.079  26.704  0.00  0.00    -0.267 OA
ENDBRANCH   8  10
ENDBRANCH   1   4
BRANCH   2  13
ATOM     13  C   UNL A   1     -25.854  -2.516  29.539  0.00  0.00    +0.142 C 
BRANCH  13  14
ATOM     14  C   UNL A   1     -24.777  -1.691  29.783  0.00  0.00    -0.001 A 
ATOM     15  C   UNL A   1     -23.588  -1.914  28.994  0.00  0.00    -0.003 A 
ATOM     16  C   UNL A   1     -24.735  -0.780  30.916  0.00  0.00    -0.003 A 
ATOM     17  C   UNL A   1     -22.503  -1.023  29.181  0.00  0.00    -0.000 A 
ATOM     18  C   UNL A   1     -23.550   0.031  31.096  0.00  0.00    -0.000 A 
ATOM     19  C   UNL A   1     -22.442  -0.116  30.224  0.00  0.00    -0.000 A 
ENDBRANCH  13  14
ENDBRANCH   2  13
TORSDOF 4
