MODEL 4657
MODEL 1
REMARK VINA RESULT:    -6.525      0.000      0.000
REMARK INTER + INTRA:          -7.693
REMARK INTER:                  -7.288
REMARK INTRA:                  -0.404
REMARK UNBOUND:                -0.404
REMARK  Name = No_4657-gen_results/8p0m/2024-11-27-11-27-31/
REMARK  2 active torsions:
REMARK  status: ('A' for Active; 'I' for Inactive)
REMARK    1  A    between atoms: C_3  and  C_4
REMARK    2  A    between atoms: C_6  and  C_13
REMARK                            x       y       z     vdW  Elec       q    Type
REMARK                         _______ _______ _______ _____ _____    ______ ____
ROOT
ATOM      1  C   UNL A   1     -29.372 -10.222  32.467  0.00  0.00    +0.007 A 
ATOM      2  C   UNL A   1     -29.738 -10.138  31.317  0.00  0.00    +0.000 A 
ATOM      3  C   UNL A   1     -29.267 -11.016  30.347  0.00  0.00    +0.000 A 
ATOM      4  C   UNL A   1     -28.275 -11.135  32.827  0.00  0.00    +0.080 A 
ATOM      5  C   UNL A   1     -27.799 -12.082  31.969  0.00  0.00    +0.007 A 
ATOM      6  C   UNL A   1     -28.293 -12.058  30.654  0.00  0.00    +0.000 A 
ENDROOT
BRANCH   3   7
ATOM      7  C   UNL A   1     -29.632 -11.009  28.902  0.00  0.00    +0.000 A 
ATOM      8  C   UNL A   1     -29.131 -11.924  27.911  0.00  0.00    +0.000 A 
ATOM      9  C   UNL A   1     -29.572 -11.797  26.626  0.00  0.00    +0.000 A 
ATOM     10  C   UNL A   1     -30.634 -11.079  26.178  0.00  0.00    +0.000 A 
ATOM     11  C   UNL A   1     -30.739 -10.191  28.431  0.00  0.00    +0.000 A 
ATOM     12  C   UNL A   1     -31.193 -10.246  27.114  0.00  0.00    +0.000 A 
ENDBRANCH   3   7
BRANCH   4  13
ATOM     13  C   UNL A   1     -27.723 -11.199  34.226  0.00  0.00    +0.388 C 
ATOM     14  O   UNL A   1     -27.415 -10.184  34.811  0.00  0.00    -0.241 OA
ATOM     15  O   UNL A   1     -27.269 -12.343  34.650  0.00  0.00    -0.241 OA
ENDBRANCH   4  13
TORSDOF 2
ENDMDL
ENDMDL
