MODEL 4658
MODEL 1
REMARK VINA RESULT:    -6.698      0.000      0.000
REMARK INTER + INTRA:          -7.927
REMARK INTER:                  -7.481
REMARK INTRA:                  -0.447
REMARK UNBOUND:                -0.447
REMARK  Name = No_4658-gen_results/8p0m/2024-11-27-11-27-31/
REMARK  2 active torsions:
REMARK  status: ('A' for Active; 'I' for Inactive)
REMARK    1  A    between atoms: C_3  and  C_4
REMARK    2  A    between atoms: C_4  and  C_8
REMARK                            x       y       z     vdW  Elec       q    Type
REMARK                         _______ _______ _______ _____ _____    ______ ____
ROOT
ATOM      1  C   UNL A   1     -24.429  -1.212  29.044  0.00  0.00    +0.053 C 
ENDROOT
BRANCH   1   4
ATOM      2  C   UNL A   1     -23.844  -3.690  28.544  0.00  0.00    -0.004 A 
ATOM      3  C   UNL A   1     -24.203  -4.671  28.686  0.00  0.00    -0.000 A 
ATOM      4  C   UNL A   1     -24.754  -2.656  29.036  0.00  0.00    -0.018 A 
ATOM      5  C   UNL A   1     -25.406  -5.253  29.265  0.00  0.00    -0.000 A 
ATOM      6  C   UNL A   1     -26.296  -4.307  29.730  0.00  0.00    -0.000 A 
ATOM      7  C   UNL A   1     -25.973  -3.003  29.676  0.00  0.00    -0.004 A 
ENDBRANCH   1   4
BRANCH   1   8
ATOM      8  C   UNL A   1     -23.661  -0.555  28.475  0.00  0.00    -0.018 A 
ATOM      9  C   UNL A   1     -22.335  -0.433  29.112  0.00  0.00    -0.004 A 
ATOM     10  C   UNL A   1     -21.471   0.507  28.349  0.00  0.00    -0.000 A 
ATOM     11  C   UNL A   1     -21.939   1.462  27.500  0.00  0.00    -0.000 A 
ATOM     12  C   UNL A   1     -23.256   1.393  27.112  0.00  0.00    -0.000 A 
ATOM     13  C   UNL A   1     -24.112   0.436  27.601  0.00  0.00    -0.004 A 
ENDBRANCH   1   8
TORSDOF 2
ENDMDL
ENDMDL
