MODEL 4659
MODEL 1
REMARK VINA RESULT:    -7.227      0.000      0.000
REMARK INTER + INTRA:         -10.253
REMARK INTER:                  -9.339
REMARK INTRA:                  -0.913
REMARK UNBOUND:                -0.913
REMARK  Name = No_4659-gen_results/8p0m/2024-11-27-11-27-31/
REMARK  5 active torsions:
REMARK  status: ('A' for Active; 'I' for Inactive)
REMARK    1  A    between atoms: C_2  and  C_7
REMARK    2  A    between atoms: C_4  and  C_15
REMARK    3  A    between atoms: C_7  and  C_8
REMARK    4  A    between atoms: N_17  and  C_18
REMARK    5  A    between atoms: C_18  and  C_19
REMARK                            x       y       z     vdW  Elec       q    Type
REMARK                         _______ _______ _______ _____ _____    ______ ____
ROOT
ATOM      1  C   UNL A   1     -23.023   0.397  28.581  0.00  0.00    -0.004 A 
ATOM      2  C   UNL A   1     -23.685  -0.607  28.454  0.00  0.00    -0.018 A 
ATOM      3  C   UNL A   1     -24.564  -0.813  27.440  0.00  0.00    +0.001 A 
ATOM      4  C   UNL A   1     -24.719   0.201  26.475  0.00  0.00    +0.055 A 
ATOM      5  C   UNL A   1     -23.061   1.433  27.580  0.00  0.00    -0.000 A 
ATOM      6  C   UNL A   1     -23.949   1.288  26.557  0.00  0.00    +0.004 A 
ENDROOT
BRANCH   4   7
ATOM      7  C   UNL A   1     -25.698  -0.010  25.329  0.00  0.00    +0.265 C 
ATOM      8  O   UNL A   1     -25.632  -0.895  24.675  0.00  0.00    -0.268 OA
ATOM      9  N   UNL A   1     -26.638   0.979  25.122  0.00  0.00    -0.193 NA
BRANCH   9  10
ATOM     10  C   UNL A   1     -27.600   0.834  24.052  0.00  0.00    +0.218 C 
BRANCH  10  11
ATOM     11  C   UNL A   1     -28.677   0.278  24.177  0.00  0.00    +0.417 C 
ATOM     12  F   UNL A   1     -29.047  -0.036  25.151  0.00  0.00    -0.168 F 
ATOM     13  F   UNL A   1     -29.687   1.218  23.653  0.00  0.00    -0.168 F 
ATOM     14  F   UNL A   1     -28.796  -0.798  23.348  0.00  0.00    -0.168 F 
ENDBRANCH  10  11
ENDBRANCH   9  10
ENDBRANCH   4   7
BRANCH   2  15
ATOM     15  C   UNL A   1     -23.591  -1.781  29.419  0.00  0.00    +0.052 C 
BRANCH  15  16
ATOM     16  C   UNL A   1     -24.732  -2.692  29.474  0.00  0.00    -0.022 A 
ATOM     17  C   UNL A   1     -24.877  -3.854  29.165  0.00  0.00    -0.025 A 
ATOM     18  C   UNL A   1     -23.956  -4.677  28.411  0.00  0.00    +0.031 C 
ATOM     19  C   UNL A   1     -25.888  -2.030  30.274  0.00  0.00    -0.004 A 
ATOM     20  C   UNL A   1     -26.998  -2.892  30.415  0.00  0.00    -0.000 A 
ATOM     21  C   UNL A   1     -27.133  -4.166  30.023  0.00  0.00    -0.000 A 
ATOM     22  C   UNL A   1     -26.121  -4.690  29.381  0.00  0.00    -0.005 A 
ENDBRANCH  15  16
ENDBRANCH   2  15
TORSDOF 5
ENDMDL
ENDMDL
