MODEL 465
MODEL 1
REMARK VINA RESULT:    -5.921      0.000      0.000
REMARK INTER + INTRA:          -6.300
REMARK INTER:                  -6.268
REMARK INTRA:                  -0.032
REMARK UNBOUND:                -0.032
REMARK  Name = No_465-gen_results/8p0m/2024-11-27-11-27-31/
REMARK  1 active torsions:
REMARK  status: ('A' for Active; 'I' for Inactive)
REMARK    1  A    between atoms: C_5  and  C_11
REMARK                            x       y       z     vdW  Elec       q    Type
REMARK                         _______ _______ _______ _____ _____    ______ ____
ROOT
ATOM      1  C   UNL A   1     -30.680  -9.734  29.698  0.00  0.00    +0.000 A 
ATOM      2  C   UNL A   1     -29.960 -10.304  30.486  0.00  0.00    +0.000 A 
ATOM      3  C   UNL A   1     -29.027 -11.271  30.117  0.00  0.00    +0.000 A 
ATOM      4  C   UNL A   1     -28.121 -12.022  31.008  0.00  0.00    +0.003 A 
ATOM      5  C   UNL A   1     -28.057 -11.564  32.359  0.00  0.00    +0.042 A 
ATOM      6  C   UNL A   1     -28.946 -10.561  32.761  0.00  0.00    +0.003 A 
ATOM      7  C   UNL A   1     -29.816  -9.961  31.919  0.00  0.00    +0.000 A 
ATOM      8  C   UNL A   1     -31.030 -10.438  28.426  0.00  0.00    +0.000 A 
ATOM      9  C   UNL A   1     -29.997 -11.264  27.854  0.00  0.00    +0.000 A 
ATOM     10  C   UNL A   1     -29.079 -11.835  28.751  0.00  0.00    +0.000 A 
ENDROOT
BRANCH   5  11
ATOM     11  C   UNL A   1     -27.112 -12.260  33.269  0.00  0.00    +0.234 C 
ATOM     12  O   UNL A   1     -27.454 -12.389  34.488  0.00  0.00    -0.283 OA
ENDBRANCH   5  11
TORSDOF 1
ENDMDL
ENDMDL
