MODEL 4660
MODEL 1
REMARK VINA RESULT:    -5.308      0.000      0.000
REMARK INTER + INTRA:          -5.770
REMARK INTER:                  -5.618
REMARK INTRA:                  -0.152
REMARK UNBOUND:                -0.152
REMARK  Name = No_4660-gen_results/8p0m/2024-11-27-11-27-31/
REMARK  1 active torsions:
REMARK  status: ('A' for Active; 'I' for Inactive)
REMARK    1  A    between atoms: C_4  and  C_7
REMARK                            x       y       z     vdW  Elec       q    Type
REMARK                         _______ _______ _______ _____ _____    ______ ____
ROOT
ATOM      1  C   UNL A   1     -26.595  -3.981  29.789  0.00  0.00    -0.000 A 
ATOM      2  C   UNL A   1     -26.052  -4.858  29.575  0.00  0.00    -0.000 A 
ATOM      3  C   UNL A   1     -25.847  -2.684  29.572  0.00  0.00    -0.000 A 
ATOM      4  C   UNL A   1     -24.566  -2.716  28.980  0.00  0.00    -0.000 A 
ATOM      5  C   UNL A   1     -24.753  -5.162  28.932  0.00  0.00    -0.000 A 
ATOM      6  C   UNL A   1     -24.039  -3.993  28.712  0.00  0.00    -0.000 A 
ENDROOT
BRANCH   4   7
ATOM      7  C   UNL A   1     -23.809  -1.530  28.769  0.00  0.00    -0.005 C 
ATOM      8  C   UNL A   1     -22.685  -1.302  29.309  0.00  0.00    -0.026 C 
ATOM      9  C   UNL A   1     -21.851  -0.135  28.975  0.00  0.00    +0.031 C 
ENDBRANCH   4   7
TORSDOF 1
ENDMDL
ENDMDL
