MODEL 4663
MODEL 1
REMARK VINA RESULT:    -4.351      0.000      0.000
REMARK INTER + INTRA:          -4.351
REMARK INTER:                  -4.351
REMARK INTRA:                   0.000
REMARK UNBOUND:                 0.000
REMARK  Name = No_4663-gen_results/8p0m/2024-11-27-11-27-31/
REMARK  0 active torsions:
REMARK  status: ('A' for Active; 'I' for Inactive)
REMARK                            x       y       z     vdW  Elec       q    Type
REMARK                         _______ _______ _______ _____ _____    ______ ____
ROOT
ATOM      1  C   UNL A   1     -24.958  -5.392  29.028  0.00  0.00    +0.000 A 
ATOM      2  C   UNL A   1     -24.210  -4.726  28.702  0.00  0.00    +0.000 A 
ATOM      3  C   UNL A   1     -26.139  -4.719  29.583  0.00  0.00    +0.000 A 
ATOM      4  C   UNL A   1     -26.172  -3.407  29.816  0.00  0.00    +0.000 A 
ATOM      5  C   UNL A   1     -24.015  -3.305  28.861  0.00  0.00    +0.000 A 
ATOM      6  C   UNL A   1     -25.112  -2.702  29.401  0.00  0.00    +0.000 A 
ENDROOT
TORSDOF 0
ENDMDL
ENDMDL
