REMARK  Name = outputs/IAG933/test6/raw/output_4664_IAG933_linker_design_.xyz
REMARK  11 active torsions:
REMARK  status: ('A' for Active; 'I' for Inactive)
REMARK    1  A    between atoms: C_1  and  C_2
REMARK    2  A    between atoms: C_1  and  C_8
REMARK    3  A    between atoms: C_1  and  N_40
REMARK    4  A    between atoms: C_13  and  C_38
REMARK    5  A    between atoms: C_14  and  C_15
REMARK    6  A    between atoms: C_21  and  O_22
REMARK    7  A    between atoms: O_22  and  C_23
REMARK    8  A    between atoms: C_23  and  C_24
REMARK    9  A    between atoms: O_31  and  C_35
REMARK   10  A    between atoms: O_31  and  C_44
REMARK   11  A    between atoms: C_34  and  C_44
REMARK                            x       y       z     vdW  Elec       q    Type
REMARK                         _______ _______ _______ _____ _____    ______ ____
ROOT
ATOM      1  C   UNL A   1     -22.321   0.997  27.919  0.00  0.00    +0.180 C 
ATOM      2  C   UNL A   1     -22.834   0.198  28.991  0.00  0.00    +0.289 C 
ATOM      3  F   UNL A   1     -21.951  -0.454  29.740  0.00  0.00    -0.207 F 
ATOM      4  C   UNL A   1     -24.913   1.039  28.761  0.00  0.00    +0.058 C 
ATOM      5  C   UNL A   1     -24.578   1.362  27.398  0.00  0.00    +0.027 C 
ATOM      6  C   UNL A   1     -23.258   1.485  27.009  0.00  0.00    +0.086 C 
ATOM      7  N   UNL A   1     -24.190   0.046  29.316  0.00  0.00    -0.274 N 
ATOM      8  F   UNL A   1     -20.986   1.370  27.828  0.00  0.00    -0.203 F 
ATOM      9 CL   UNL A   1     -22.724   2.304  25.570  0.00  0.00    -0.080 Cl
ENDROOT
BRANCH   5  10
ATOM     10  C   UNL A   1     -25.688   1.614  26.461  0.00  0.00    +0.040 C 
ATOM     11  C   UNL A   1     -26.250   2.920  26.395  0.00  0.00    +0.077 C 
ATOM     12  C   UNL A   1     -27.438   3.091  25.645  0.00  0.00    +0.107 C 
ATOM     13  N   UNL A   1     -28.075   2.089  25.003  0.00  0.00    -0.208 NA
ATOM     14  C   UNL A   1     -27.543   0.849  25.079  0.00  0.00    +0.253 C 
ATOM     15  C   UNL A   1     -26.354   0.576  25.777  0.00  0.00    +0.193 C 
ATOM     16  F   UNL A   1     -25.860  -0.681  25.795  0.00  0.00    -0.199 F 
BRANCH  11  17
ATOM     17  C   UNL A   1     -25.642   4.093  27.123  0.00  0.00    +0.266 C 
ATOM     18  N   UNL A   1     -25.614   5.252  26.449  0.00  0.00    -0.200 NA
ATOM     19  C   UNL A   1     -25.026   6.479  26.963  0.00  0.00    +0.139 C 
ATOM     20  O   UNL A   1     -25.143   3.966  28.243  0.00  0.00    -0.268 OA
ENDBRANCH  11  17
BRANCH  14  21
ATOM     21  O   UNL A   1     -28.193  -0.208  24.477  0.00  0.00    -0.456 OA
BRANCH  21  22
ATOM     22  C   UNL A   1     -29.460   0.005  23.866  0.00  0.00    +0.243 C 
BRANCH  22  23
ATOM     23  C   UNL A   1     -30.065  -1.377  23.573  0.00  0.00    +0.229 C 
ATOM     24  O   UNL A   1     -30.729  -1.878  24.721  0.00  0.00    -0.216 OA
ENDBRANCH  22  23
ENDBRANCH  21  22
ENDBRANCH  14  21
ENDBRANCH   5  10
BRANCH   7  25
ATOM     25  C   UNL A   1     -24.855  -1.012  30.143  0.00  0.00    +0.114 C 
BRANCH  25  26
ATOM     26  C   UNL A   1     -24.973  -2.505  29.788  0.00  0.00    -0.003 C 
ATOM     27  C   UNL A   1     -23.906  -3.173  29.146  0.00  0.00    -0.003 C 
ATOM     28  C   UNL A   1     -23.989  -4.549  28.853  0.00  0.00    -0.000 C 
ATOM     29  C   UNL A   1     -25.137  -5.280  29.205  0.00  0.00    -0.000 C 
ATOM     30  C   UNL A   1     -26.232  -4.611  29.784  0.00  0.00    -0.000 C 
ATOM     31  C   UNL A   1     -26.155  -3.232  30.065  0.00  0.00    -0.003 C 
ENDBRANCH  25  26
BRANCH  25  32
ATOM     32  C   UNL A   1     -25.387  -0.679  31.571  0.00  0.00    +0.095 C 
ATOM     33  C   UNL A   1     -25.189   0.773  32.028  0.00  0.00    +0.021 C 
ATOM     34  C   UNL A   1     -25.336   0.684  33.544  0.00  0.00    +0.020 C 
ATOM     35  C   UNL A   1     -24.829  -0.715  33.905  0.00  0.00    +0.089 C 
ATOM     36  N   UNL A   1     -24.758  -1.481  32.646  0.00  0.00    -0.217 NA
ENDBRANCH  25  32
ENDBRANCH   7  25
BRANCH   4  37
ATOM     37  C   UNL A   1     -25.512   1.863  29.686  0.00  0.00    +0.183 C 
BRANCH  37  38
ATOM     38  O   UNL A   1     -26.731   1.665  28.891  0.00  0.00    -0.345 OA
BRANCH  38  41
ATOM     39  O   UNL A   1     -28.400   0.898  31.848  0.00  0.00    -0.348 OA
ATOM     40  C   UNL A   1     -29.015   0.872  29.605  0.00  0.00    +0.211 C 
ATOM     41  C   UNL A   1     -27.548   0.998  29.898  0.00  0.00    +0.178 C 
ATOM     42  C   UNL A   1     -27.536   1.744  31.019  0.00  0.00    +0.174 C 
ATOM     43  C   UNL A   1     -29.510   0.600  30.974  0.00  0.00    +0.178 C 
ATOM     44  O   UNL A   1     -29.102  -0.178  28.621  0.00  0.00    -0.218 OA
ENDBRANCH  38  41
ENDBRANCH  37  38
ENDBRANCH   4  37
TORSDOF 11
