REMARK  Name = outputs/IAG933/test6/raw/output_4665_IAG933_linker_design_.xyz
REMARK  11 active torsions:
REMARK  status: ('A' for Active; 'I' for Inactive)
REMARK    1  A    between atoms: C_1  and  C_2
REMARK    2  A    between atoms: C_1  and  C_8
REMARK    3  A    between atoms: C_1  and  N_37
REMARK    4  A    between atoms: C_13  and  C_31
REMARK    5  A    between atoms: C_14  and  C_15
REMARK    6  A    between atoms: C_21  and  O_22
REMARK    7  A    between atoms: O_22  and  C_23
REMARK    8  A    between atoms: C_23  and  C_24
REMARK    9  A    between atoms: C_34  and  C_44
REMARK   10  A    between atoms: C_39  and  C_40
REMARK   11  A    between atoms: C_43  and  C_44
REMARK                            x       y       z     vdW  Elec       q    Type
REMARK                         _______ _______ _______ _____ _____    ______ ____
ROOT
ATOM      1  C   UNL A   1     -20.230   0.733  28.172  0.00  0.00    +0.143 C 
ATOM      2  C   UNL A   1     -24.699   1.352  27.531  0.00  0.00    +0.027 C 
ATOM      3  C   UNL A   1     -22.097  -0.177  29.338  0.00  0.00    +0.019 C 
ATOM      4  C   UNL A   1     -23.200   1.223  27.606  0.00  0.00    +0.054 C 
ATOM      5  C   UNL A   1     -25.472   0.950  28.786  0.00  0.00    +0.063 C 
ATOM      6  N   UNL A   1     -24.560  -0.006  29.291  0.00  0.00    -0.271 NA
ATOM      7  O   UNL A   1     -20.951   1.325  26.858  0.00  0.00    -0.346 OA
ATOM      8  C   UNL A   1     -22.063   1.110  26.533  0.00  0.00    +0.207 C 
ATOM      9  C   UNL A   1     -23.354  -0.142  28.373  0.00  0.00    +0.061 C 
ATOM     10  C   UNL A   1     -20.922  -0.362  28.443  0.00  0.00    +0.034 C 
ENDROOT
BRANCH   2  11
ATOM     11  C   UNL A   1     -25.688   1.614  26.461  0.00  0.00    +0.072 C 
ATOM     12  C   UNL A   1     -26.250   2.920  26.395  0.00  0.00    +0.055 C 
ATOM     13  C   UNL A   1     -27.438   3.091  25.645  0.00  0.00    +0.102 C 
ATOM     14  N   UNL A   1     -28.075   2.089  25.003  0.00  0.00    -0.212 NA
ATOM     15  C   UNL A   1     -27.543   0.849  25.079  0.00  0.00    +0.234 C 
ATOM     16  C   UNL A   1     -26.354   0.576  25.777  0.00  0.00    +0.240 C 
ATOM     17  F   UNL A   1     -25.860  -0.681  25.795  0.00  0.00    -0.227 F 
BRANCH  12  18
ATOM     18  C   UNL A   1     -25.642   4.093  27.123  0.00  0.00    +0.262 C 
ATOM     19  N   UNL A   1     -25.614   5.252  26.449  0.00  0.00    -0.200 NA
ATOM     20  C   UNL A   1     -25.026   6.479  26.963  0.00  0.00    +0.139 C 
ATOM     21  O   UNL A   1     -25.143   3.966  28.243  0.00  0.00    -0.269 OA
ENDBRANCH  12  18
BRANCH  15  22
ATOM     22  O   UNL A   1     -28.193  -0.208  24.477  0.00  0.00    -0.459 OA
BRANCH  22  23
ATOM     23  C   UNL A   1     -29.460   0.005  23.866  0.00  0.00    +0.242 C 
BRANCH  23  24
ATOM     24  C   UNL A   1     -30.065  -1.377  23.573  0.00  0.00    +0.229 C 
ATOM     25  O   UNL A   1     -30.729  -1.878  24.721  0.00  0.00    -0.216 OA
ENDBRANCH  23  24
ENDBRANCH  22  23
ENDBRANCH  15  22
ENDBRANCH   2  11
BRANCH   8  28
ATOM     26  F   UNL A   1     -22.148   2.776  24.893  0.00  0.00    -0.161 F 
ATOM     27  O   UNL A   1     -23.747   1.404  24.596  0.00  0.00    -0.256 OA
ATOM     28  C   UNL A   1     -22.825   1.671  25.441  0.00  0.00    +0.337 C 
ENDBRANCH   8  28
BRANCH   6  29
ATOM     29  C   UNL A   1     -24.855  -1.012  30.143  0.00  0.00    +0.096 C 
BRANCH  29  30
ATOM     30  C   UNL A   1     -24.973  -2.505  29.788  0.00  0.00    -0.006 C 
ATOM     31  C   UNL A   1     -23.906  -3.173  29.146  0.00  0.00    -0.003 C 
ATOM     32  C   UNL A   1     -23.989  -4.549  28.853  0.00  0.00    -0.000 C 
ATOM     33  C   UNL A   1     -25.137  -5.280  29.205  0.00  0.00    -0.000 C 
ATOM     34  C   UNL A   1     -26.232  -4.611  29.784  0.00  0.00    -0.000 C 
ATOM     35  C   UNL A   1     -26.155  -3.232  30.065  0.00  0.00    -0.003 C 
ENDBRANCH  29  30
BRANCH  29  36
ATOM     36  C   UNL A   1     -25.387  -0.679  31.571  0.00  0.00    +0.092 C 
ATOM     37  C   UNL A   1     -25.189   0.773  32.028  0.00  0.00    +0.021 C 
ATOM     38  C   UNL A   1     -25.336   0.684  33.544  0.00  0.00    +0.020 C 
ATOM     39  C   UNL A   1     -24.829  -0.715  33.905  0.00  0.00    +0.089 C 
ATOM     40  N   UNL A   1     -24.758  -1.481  32.646  0.00  0.00    -0.218 NA
ENDBRANCH  29  36
ENDBRANCH   6  29
BRANCH   5  41
ATOM     41  C   UNL A   1     -27.002   0.628  28.904  0.00  0.00    +0.054 C 
BRANCH  41  44
ATOM     42  O   UNL A   1     -26.925   4.103  30.374  0.00  0.00    -0.231 OA
ATOM     43  C   UNL A   1     -27.488   3.065  29.891  0.00  0.00    +0.129 C 
ATOM     44  C   UNL A   1     -27.966   1.743  29.346  0.00  0.00    +0.060 C 
ENDBRANCH  41  44
ENDBRANCH   5  41
TORSDOF 11
