MODEL 4666
MODEL 1
REMARK VINA RESULT:    -4.296      0.000      0.000
REMARK INTER + INTRA:          -4.296
REMARK INTER:                  -4.296
REMARK INTRA:                   0.000
REMARK UNBOUND:                 0.000
REMARK  Name = No_4666-gen_results/8p0m/2024-11-27-11-27-31/
REMARK  0 active torsions:
REMARK  status: ('A' for Active; 'I' for Inactive)
REMARK                            x       y       z     vdW  Elec       q    Type
REMARK                         _______ _______ _______ _____ _____    ______ ____
ROOT
ATOM      1  C   UNL A   1     -24.929  -5.376  28.967  0.00  0.00    +0.000 A 
ATOM      2  C   UNL A   1     -24.173  -4.679  28.737  0.00  0.00    +0.000 A 
ATOM      3  C   UNL A   1     -26.108  -4.776  29.591  0.00  0.00    +0.000 A 
ATOM      4  C   UNL A   1     -26.203  -3.427  29.827  0.00  0.00    +0.000 A 
ATOM      5  C   UNL A   1     -24.002  -3.232  28.863  0.00  0.00    +0.000 A 
ATOM      6  C   UNL A   1     -25.138  -2.642  29.467  0.00  0.00    +0.000 A 
ENDROOT
TORSDOF 0
ENDMDL
ENDMDL
