MODEL 4667
MODEL 1
REMARK VINA RESULT:    -7.176      0.000      0.000
REMARK INTER + INTRA:          -7.176
REMARK INTER:                  -7.176
REMARK INTRA:                   0.000
REMARK UNBOUND:                 0.000
REMARK  Name = No_4667-gen_results/8p0m/2024-11-27-11-27-31/
REMARK  0 active torsions:
REMARK  status: ('A' for Active; 'I' for Inactive)
REMARK                            x       y       z     vdW  Elec       q    Type
REMARK                         _______ _______ _______ _____ _____    ______ ____
ROOT
ATOM      1  C   UNL A   1     -23.903  -0.087  30.975  0.00  0.00    +0.005 A 
ATOM      2  C   UNL A   1     -24.407  -1.166  30.763  0.00  0.00    +0.035 A 
ATOM      3  C   UNL A   1     -24.006  -2.053  29.778  0.00  0.00    -0.013 A 
ATOM      4  C   UNL A   1     -22.892  -1.670  28.974  0.00  0.00    +0.026 A 
ATOM      5  C   UNL A   1     -22.253  -0.544  29.332  0.00  0.00    +0.140 A 
ATOM      6  C   UNL A   1     -22.677   0.209  30.306  0.00  0.00    +0.030 A 
ATOM      7  C   UNL A   1     -24.756  -3.321  29.462  0.00  0.00    +0.045 C 
ATOM      8  C   UNL A   1     -26.027  -3.311  29.896  0.00  0.00    -0.015 A 
ATOM      9  C   UNL A   1     -26.851  -4.525  29.739  0.00  0.00    -0.004 A 
ATOM     10  C   UNL A   1     -28.113  -4.611  30.416  0.00  0.00    -0.000 A 
ATOM     11  C   UNL A   1     -28.651  -3.540  31.052  0.00  0.00    +0.000 A 
ATOM     12  C   UNL A   1     -27.958  -2.310  31.096  0.00  0.00    +0.003 A 
ATOM     13  C   UNL A   1     -26.671  -2.237  30.584  0.00  0.00    +0.035 A 
ATOM     14  C   UNL A   1     -25.857  -1.302  31.168  0.00  0.00    +0.195 C 
ATOM     15  O   UNL A   1     -26.335  -0.365  31.911  0.00  0.00    -0.287 OA
ATOM     16  F   UNL A   1     -21.085  -0.292  28.718  0.00  0.00    -0.204 F 
ATOM     17  C   UNL A   1     -24.136  -4.317  28.656  0.00  0.00    +0.009 C 
ENDROOT
TORSDOF 0
ENDMDL
ENDMDL
