MODEL 4668
MODEL 1
REMARK VINA RESULT:    -4.334      0.000      0.000
REMARK INTER + INTRA:          -4.334
REMARK INTER:                  -4.334
REMARK INTRA:                   0.000
REMARK UNBOUND:                 0.000
REMARK  Name = No_4668-gen_results/8p0m/2024-11-27-11-27-31/
REMARK  0 active torsions:
REMARK  status: ('A' for Active; 'I' for Inactive)
REMARK                            x       y       z     vdW  Elec       q    Type
REMARK                         _______ _______ _______ _____ _____    ______ ____
ROOT
ATOM      1  C   UNL A   1     -26.387  -3.435  29.994  0.00  0.00    +0.001 A 
ATOM      2  C   UNL A   1     -25.499  -2.655  29.738  0.00  0.00    +0.011 A 
ATOM      3  C   UNL A   1     -24.347  -2.909  29.186  0.00  0.00    +0.058 A 
ATOM      4  C   UNL A   1     -24.052  -4.262  28.839  0.00  0.00    +0.011 A 
ATOM      5  C   UNL A   1     -25.055  -5.151  29.036  0.00  0.00    +0.001 A 
ATOM      6  C   UNL A   1     -26.256  -4.774  29.579  0.00  0.00    +0.000 A 
ATOM      7 CL   UNL A   1     -23.112  -1.744  28.927  0.00  0.00    -0.082 Cl
ENDROOT
TORSDOF 0
ENDMDL
ENDMDL
