MODEL 4669
MODEL 1
REMARK VINA RESULT:    -5.418      0.000      0.000
REMARK INTER + INTRA:          -5.869
REMARK INTER:                  -5.734
REMARK INTRA:                  -0.135
REMARK UNBOUND:                -0.135
REMARK  Name = No_4669-gen_results/8p0m/2024-11-27-11-27-31/
REMARK  1 active torsions:
REMARK  status: ('A' for Active; 'I' for Inactive)
REMARK    1  A    between atoms: C_3  and  C_7
REMARK                            x       y       z     vdW  Elec       q    Type
REMARK                         _______ _______ _______ _____ _____    ______ ____
ROOT
ATOM      1  C   UNL A   1     -25.779  -3.053  29.575  0.00  0.00    +0.015 A 
ATOM      2  C   UNL A   1     -26.079  -4.056  29.700  0.00  0.00    +0.058 A 
ATOM      3  C   UNL A   1     -24.510  -2.812  29.003  0.00  0.00    +0.072 A 
ATOM      4  C   UNL A   1     -23.845  -3.643  28.567  0.00  0.00    +0.004 A 
ATOM      5  C   UNL A   1     -25.408  -5.279  29.259  0.00  0.00    +0.011 A 
ATOM      6  C   UNL A   1     -24.215  -5.032  28.665  0.00  0.00    +0.001 A 
ATOM      7 CL   UNL A   1     -27.737  -4.483  30.360  0.00  0.00    -0.082 Cl
ENDROOT
BRANCH   3   8
ATOM      8  C   UNL A   1     -24.065  -1.334  28.822  0.00  0.00    +0.419 C 
ATOM      9  F   UNL A   1     -22.795  -1.377  28.828  0.00  0.00    -0.166 F 
ATOM     10  F   UNL A   1     -24.511  -0.815  27.679  0.00  0.00    -0.166 F 
ATOM     11  F   UNL A   1     -24.412  -0.530  29.855  0.00  0.00    -0.166 F 
ENDBRANCH   3   8
TORSDOF 1
ENDMDL
ENDMDL
