MODEL 466
MODEL 1
REMARK VINA RESULT:    -7.357      0.000      0.000
REMARK INTER + INTRA:         -11.936
REMARK INTER:                 -10.798
REMARK INTRA:                  -1.139
REMARK UNBOUND:                -1.139
REMARK  Name = No_466-gen_results/8p0m/2024-11-27-11-27-31/
REMARK  8 active torsions:
REMARK  status: ('A' for Active; 'I' for Inactive)
REMARK    1  A    between atoms: C_3  and  C_8
REMARK    2  A    between atoms: C_6  and  O_7
REMARK    3  A    between atoms: O_7  and  C_14
REMARK    4  A    between atoms: C_14  and  C_15
REMARK    5  A    between atoms: C_14  and  C_20
REMARK    6  A    between atoms: C_15  and  N_17
REMARK    7  A    between atoms: C_20  and  O_21
REMARK    8  A    between atoms: O_21  and  C_22
REMARK                            x       y       z     vdW  Elec       q    Type
REMARK                         _______ _______ _______ _____ _____    ______ ____
ROOT
ATOM      1  O   UNL A   1     -24.003   0.068  27.048  0.00  0.00    -0.466 OA
ENDROOT
BRANCH   1   7
ATOM      2  C   UNL A   1     -26.407   0.582  27.164  0.00  0.00    +0.048 A 
ATOM      3  C   UNL A   1     -27.467   0.774  26.613  0.00  0.00    +0.061 A 
ATOM      4  C   UNL A   1     -27.610   0.583  25.244  0.00  0.00    +0.011 A 
ATOM      5  C   UNL A   1     -26.487   0.193  24.429  0.00  0.00    +0.004 A 
ATOM      6  C   UNL A   1     -25.295   0.015  25.143  0.00  0.00    +0.037 A 
ATOM      7  C   UNL A   1     -25.209   0.226  26.437  0.00  0.00    +0.140 A 
ATOM      8 CL   UNL A   1     -28.913   1.187  27.499  0.00  0.00    -0.082 Cl
BRANCH   4   9
ATOM      9  C   UNL A   1     -28.877   0.778  24.447  0.00  0.00    +0.001 A 
ATOM     10  C   UNL A   1     -29.678  -0.298  24.139  0.00  0.00    +0.000 A 
ATOM     11  C   UNL A   1     -30.829  -0.123  23.346  0.00  0.00    +0.000 A 
ATOM     12  C   UNL A   1     -31.199   1.194  22.878  0.00  0.00    +0.000 A 
ATOM     13  C   UNL A   1     -30.306   2.203  23.097  0.00  0.00    +0.000 A 
ATOM     14  C   UNL A   1     -29.196   2.014  23.850  0.00  0.00    +0.000 A 
ENDBRANCH   4   9
ENDBRANCH   1   7
BRANCH   1  15
ATOM     15  C   UNL A   1     -23.881   0.106  28.385  0.00  0.00    +0.286 C 
BRANCH  15  16
ATOM     16  C   UNL A   1     -23.200   1.270  28.751  0.00  0.00    +0.290 C 
ATOM     17  O   UNL A   1     -23.536   1.793  29.681  0.00  0.00    -0.269 OA
BRANCH  16  18
ATOM     18  N   UNL A   1     -22.469   1.960  27.826  0.00  0.00    -0.173 NA
ATOM     19  C   UNL A   1     -21.537   1.807  27.479  0.00  0.00    +0.107 C 
ENDBRANCH  16  18
ENDBRANCH  15  16
BRANCH  15  20
ATOM     20  C   UNL A   1     -23.146  -1.149  28.841  0.00  0.00    +0.258 C 
BRANCH  20  21
ATOM     21  O   UNL A   1     -23.507  -1.650  29.873  0.00  0.00    -0.471 OA
BRANCH  21  22
ATOM     22  C   UNL A   1     -24.510  -2.668  29.747  0.00  0.00    +0.139 A 
ATOM     23  C   UNL A   1     -24.185  -3.841  29.215  0.00  0.00    +0.037 A 
ATOM     24  C   UNL A   1     -25.082  -4.891  29.172  0.00  0.00    +0.003 A 
ATOM     25  C   UNL A   1     -26.402  -4.631  29.558  0.00  0.00    +0.000 A 
ATOM     26  C   UNL A   1     -25.803  -2.468  30.211  0.00  0.00    +0.037 A 
ATOM     27  C   UNL A   1     -26.741  -3.436  30.102  0.00  0.00    +0.003 A 
ENDBRANCH  21  22
ENDBRANCH  20  21
ENDBRANCH  15  20
ENDBRANCH   1  15
TORSDOF 8
ENDMDL
ENDMDL
