REMARK  Name = outputs/IAG933/test6/raw/output_467_IAG933_linker_design_.xyz
REMARK  10 active torsions:
REMARK  status: ('A' for Active; 'I' for Inactive)
REMARK    1  A    between atoms: C_1  and  C_2
REMARK    2  A    between atoms: C_1  and  C_8
REMARK    3  A    between atoms: C_1  and  N_32
REMARK    4  A    between atoms: C_13  and  C_43
REMARK    5  A    between atoms: C_14  and  C_15
REMARK    6  A    between atoms: C_21  and  O_22
REMARK    7  A    between atoms: O_22  and  C_23
REMARK    8  A    between atoms: C_23  and  C_24
REMARK    9  A    between atoms: N_32  and  C_36
REMARK   10  A    between atoms: O_34  and  C_44
REMARK                            x       y       z     vdW  Elec       q    Type
REMARK                         _______ _______ _______ _____ _____    ______ ____
ROOT
ATOM      1  C   UNL A   1     -23.031   0.777  28.756  0.00  0.00    +0.195 C 
ATOM      2  F   UNL A   1     -21.068   1.661  27.581  0.00  0.00    -0.199 F 
ATOM      3  C   UNL A   1     -22.381   1.380  27.684  0.00  0.00    +0.205 C 
ATOM      4  C   UNL A   1     -24.404   0.607  28.371  0.00  0.00    +0.238 C 
ATOM      5  F   UNL A   1     -22.446   0.491  29.918  0.00  0.00    -0.202 F 
ATOM      6  C   UNL A   1     -24.502   1.283  27.225  0.00  0.00    +0.070 C 
ATOM      7  C   UNL A   1     -23.326   1.693  26.739  0.00  0.00    +0.218 C 
ENDROOT
BRANCH   4  10
ATOM      8  C   UNL A   1     -26.825   0.079  28.946  0.00  0.00    +0.305 C 
ATOM      9  N   UNL A   1     -27.692  -0.531  28.130  0.00  0.00    -0.040 NA
ATOM     10  N   UNL A   1     -25.351  -0.140  29.120  0.00  0.00    -0.186 N 
ATOM     11  C   UNL A   1     -29.329   2.137  28.439  0.00  0.00    -0.000 C 
ATOM     12  C   UNL A   1     -27.413   1.095  29.618  0.00  0.00    +0.143 C 
ATOM     13  C   UNL A   1     -28.223   2.189  29.281  0.00  0.00    -0.013 C 
ATOM     14  C   UNL A   1     -29.018  -0.323  27.695  0.00  0.00    +0.235 C 
ATOM     15  C   UNL A   1     -29.655   0.956  27.694  0.00  0.00    +0.050 C 
BRANCH  10  16
ATOM     16  C   UNL A   1     -24.855  -1.012  30.143  0.00  0.00    +0.199 C 
BRANCH  16  17
ATOM     17  C   UNL A   1     -24.973  -2.505  29.788  0.00  0.00    +0.021 C 
ATOM     18  C   UNL A   1     -23.906  -3.173  29.146  0.00  0.00    -0.000 C 
ATOM     19  C   UNL A   1     -23.989  -4.549  28.853  0.00  0.00    -0.000 C 
ATOM     20  C   UNL A   1     -25.137  -5.280  29.205  0.00  0.00    -0.000 C 
ATOM     21  C   UNL A   1     -26.232  -4.611  29.784  0.00  0.00    -0.000 C 
ATOM     22  C   UNL A   1     -26.155  -3.232  30.065  0.00  0.00    -0.000 C 
ENDBRANCH  16  17
BRANCH  16  23
ATOM     23  C   UNL A   1     -25.387  -0.679  31.571  0.00  0.00    +0.120 C 
ATOM     24  C   UNL A   1     -25.189   0.773  32.028  0.00  0.00    +0.023 C 
ATOM     25  C   UNL A   1     -25.336   0.684  33.544  0.00  0.00    +0.020 C 
ATOM     26  C   UNL A   1     -24.829  -0.715  33.905  0.00  0.00    +0.089 C 
ATOM     27  N   UNL A   1     -24.758  -1.481  32.646  0.00  0.00    -0.215 NA
ENDBRANCH  16  23
ENDBRANCH  10  16
ENDBRANCH   4  10
BRANCH   6  28
ATOM     28  C   UNL A   1     -25.688   1.614  26.461  0.00  0.00    +0.041 C 
ATOM     29  C   UNL A   1     -26.250   2.920  26.395  0.00  0.00    +0.076 C 
ATOM     30  C   UNL A   1     -27.438   3.091  25.645  0.00  0.00    +0.107 C 
ATOM     31  N   UNL A   1     -28.075   2.089  25.003  0.00  0.00    -0.208 NA
ATOM     32  C   UNL A   1     -27.543   0.849  25.079  0.00  0.00    +0.253 C 
ATOM     33  C   UNL A   1     -26.354   0.576  25.777  0.00  0.00    +0.193 C 
ATOM     34  F   UNL A   1     -25.860  -0.681  25.795  0.00  0.00    -0.199 F 
BRANCH  29  35
ATOM     35  C   UNL A   1     -25.642   4.093  27.123  0.00  0.00    +0.266 C 
ATOM     36  N   UNL A   1     -25.614   5.252  26.449  0.00  0.00    -0.200 NA
ATOM     37  C   UNL A   1     -25.026   6.479  26.963  0.00  0.00    +0.139 C 
ATOM     38  O   UNL A   1     -25.143   3.966  28.243  0.00  0.00    -0.268 OA
ENDBRANCH  29  35
BRANCH  32  39
ATOM     39  O   UNL A   1     -28.193  -0.208  24.477  0.00  0.00    -0.456 OA
BRANCH  39  40
ATOM     40  C   UNL A   1     -29.460   0.005  23.866  0.00  0.00    +0.243 C 
BRANCH  40  41
ATOM     41  C   UNL A   1     -30.065  -1.377  23.573  0.00  0.00    +0.229 C 
ATOM     42  O   UNL A   1     -30.729  -1.878  24.721  0.00  0.00    -0.216 OA
ENDBRANCH  40  41
ENDBRANCH  39  40
ENDBRANCH  32  39
ENDBRANCH   6  28
BRANCH   7  43
ATOM     43  O   UNL A   1     -23.180   2.352  25.570  0.00  0.00    -0.290 OA
ATOM     44  F   UNL A   1     -22.187   1.957  24.831  0.00  0.00    +0.014 F 
ENDBRANCH   7  43
TORSDOF 10
