REMARK  Name = No_4670-gen_results/8p0m/2024-11-27-11-27-31/
REMARK  4 active torsions:
REMARK  status: ('A' for Active; 'I' for Inactive)
REMARK    1  A    between atoms: C_1  and  O_11
REMARK    2  A    between atoms: C_15  and  C_16
REMARK    3  A    between atoms: N_17  and  C_18
REMARK    4  A    between atoms: C_18  and  C_19
REMARK                            x       y       z     vdW  Elec       q    Type
REMARK                         _______ _______ _______ _____ _____    ______ ____
ROOT
ATOM      1  C   UNL A   1     -28.016  -0.814  28.878  0.00  0.00    +0.140 A 
ATOM      2  C   UNL A   1     -27.064  -0.119  28.608  0.00  0.00    +0.037 A 
ATOM      3  C   UNL A   1     -27.001   0.691  27.491  0.00  0.00    +0.008 A 
ATOM      4  C   UNL A   1     -28.137   0.736  26.635  0.00  0.00    +0.018 A 
ATOM      5  C   UNL A   1     -29.236   0.076  27.069  0.00  0.00    +0.084 A 
ATOM      6  C   UNL A   1     -29.218  -0.643  28.175  0.00  0.00    +0.052 A 
ATOM      7  N   UNL A   1     -30.352   0.156  26.243  0.00  0.00    -0.244 NA
ATOM      8  C   UNL A   1     -31.431  -0.431  26.600  0.00  0.00    +0.099 A 
ATOM      9  C   UNL A   1     -31.540  -1.004  27.847  0.00  0.00    +0.021 A 
ATOM     10  C   UNL A   1     -30.435  -1.212  28.602  0.00  0.00    +0.006 A 
ATOM     11  C   UNL A   1     -27.976   1.562  25.409  0.00  0.00    +0.002 A 
ATOM     12  C   UNL A   1     -26.858   2.089  25.110  0.00  0.00    +0.000 A 
ATOM     13  C   UNL A   1     -25.693   2.135  25.916  0.00  0.00    +0.004 A 
ATOM     14  C   UNL A   1     -25.692   1.371  27.102  0.00  0.00    +0.046 A 
ENDROOT
BRANCH  14  15
ATOM     15  C   UNL A   1     -24.495   1.325  27.884  0.00  0.00    +0.218 C 
ATOM     16  N   UNL A   1     -23.552   2.035  27.703  0.00  0.00    -0.239 NA
ATOM     17  F   UNL A   1     -24.800   0.913  29.085  0.00  0.00    -0.184 F 
BRANCH  16  18
ATOM     18  C   UNL A   1     -22.310   1.702  28.090  0.00  0.00    +0.152 C 
BRANCH  18  19
ATOM     19  C   UNL A   1     -22.107   0.331  28.314  0.00  0.00    +0.006 C 
ATOM     20  C   UNL A   1     -20.750  -0.060  28.683  0.00  0.00    +0.015 C 
ATOM     21  C   UNL A   1     -20.712  -1.434  29.062  0.00  0.00    +0.093 C 
ATOM     22  N   UNL A   1     -21.894  -2.019  29.185  0.00  0.00    -0.264 NA
ATOM     23  C   UNL A   1     -22.809  -0.900  28.806  0.00  0.00    +0.150 C 
ENDBRANCH  18  19
ENDBRANCH  16  18
ENDBRANCH  14  15
BRANCH   1  24
ATOM     24  O   UNL A   1     -27.978  -1.553  30.059  0.00  0.00    -0.471 OA
ATOM     25  C   UNL A   1     -26.859  -2.248  30.332  0.00  0.00    +0.253 C 
ENDBRANCH   1  24
TORSDOF 4
