MODEL 4672
MODEL 1
REMARK VINA RESULT:    -4.640      0.000      0.000
REMARK INTER + INTRA:          -4.640
REMARK INTER:                  -4.640
REMARK INTRA:                   0.000
REMARK UNBOUND:                 0.000
REMARK  Name = No_4672-gen_results/8p0m/2024-11-27-11-27-31/
REMARK  0 active torsions:
REMARK  status: ('A' for Active; 'I' for Inactive)
REMARK                            x       y       z     vdW  Elec       q    Type
REMARK                         _______ _______ _______ _____ _____    ______ ____
ROOT
ATOM      1  C   UNL A   1     -26.190  -4.592  29.612  0.00  0.00    +0.030 A 
ATOM      2  C   UNL A   1     -26.208  -3.581  29.909  0.00  0.00    +0.014 A 
ATOM      3  C   UNL A   1     -25.040  -5.061  28.940  0.00  0.00    +0.140 A 
ATOM      4  C   UNL A   1     -23.969  -4.235  28.660  0.00  0.00    +0.030 A 
ATOM      5  C   UNL A   1     -25.213  -2.504  29.740  0.00  0.00    +0.058 A 
ATOM      6  C   UNL A   1     -24.096  -2.911  29.099  0.00  0.00    +0.014 A 
ATOM      7  F   UNL A   1     -24.921  -6.348  28.558  0.00  0.00    -0.204 F 
ATOM      8 CL   UNL A   1     -25.406  -0.895  30.307  0.00  0.00    -0.082 Cl
ENDROOT
TORSDOF 0
ENDMDL
ENDMDL
