MODEL 4673
MODEL 1
REMARK VINA RESULT:    -6.858      0.000      0.000
REMARK INTER + INTRA:         -10.025
REMARK INTER:                  -9.264
REMARK INTRA:                  -0.762
REMARK UNBOUND:                -0.762
REMARK  Name = No_4673-gen_results/8p0m/2024-11-27-11-27-31/
REMARK  6 active torsions:
REMARK  status: ('A' for Active; 'I' for Inactive)
REMARK    1  A    between atoms: C_3  and  C_4
REMARK    2  A    between atoms: C_4  and  P_8
REMARK    3  A    between atoms: P_8  and  O_11
REMARK    4  A    between atoms: O_11  and  C_12
REMARK    5  A    between atoms: C_12  and  C_14
REMARK    6  A    between atoms: C_14  and  N_16
REMARK                            x       y       z     vdW  Elec       q    Type
REMARK                         _______ _______ _______ _____ _____    ______ ____
ROOT
ATOM      1  P   UNL A   1     -22.913  -0.705  29.363  0.00  0.00    +0.406 P 
ATOM      2  O   UNL A   1     -22.699  -0.745  30.853  0.00  0.00    -0.252 OA
ATOM      3  O   UNL A   1     -21.575  -1.280  28.928  0.00  0.00    -0.137 OA
ENDROOT
BRANCH   1   4
ATOM      4  C   UNL A   1     -23.793  -1.238  28.961  0.00  0.00    +0.288 C 
ATOM      5  F   UNL A   1     -24.648  -0.698  28.082  0.00  0.00    -0.219 F 
BRANCH   4   8
ATOM      6  C   UNL A   1     -23.887  -3.781  28.630  0.00  0.00    -0.001 A 
ATOM      7  C   UNL A   1     -24.423  -4.668  28.818  0.00  0.00    -0.000 A 
ATOM      8  C   UNL A   1     -24.462  -2.562  29.051  0.00  0.00    +0.022 A 
ATOM      9  C   UNL A   1     -25.731  -4.898  29.456  0.00  0.00    -0.000 A 
ATOM     10  C   UNL A   1     -26.361  -3.734  29.897  0.00  0.00    -0.000 A 
ATOM     11  C   UNL A   1     -25.728  -2.542  29.750  0.00  0.00    -0.001 A 
ENDBRANCH   4   8
ENDBRANCH   1   4
BRANCH   1  12
ATOM     12  O   UNL A   1     -22.739   0.823  28.929  0.00  0.00    -0.286 OA
BRANCH  12  13
ATOM     13  C   UNL A   1     -22.113   1.191  27.734  0.00  0.00    +0.209 C 
BRANCH  13  14
ATOM     14  C   UNL A   1     -23.049   1.900  26.783  0.00  0.00    +0.279 C 
ATOM     15 CL   UNL A   1     -22.561   2.295  25.357  0.00  0.00    -0.069 Cl
BRANCH  14  16
ATOM     16  N   UNL A   1     -23.634   3.058  27.507  0.00  0.00    -0.045 NA
ATOM     17  C   UNL A   1     -24.868   3.374  27.485  0.00  0.00    +0.450 C 
ATOM     18  N   UNL A   1     -25.269   4.481  28.196  0.00  0.00    -0.086 NA
ATOM     19  N   UNL A   1     -25.778   2.897  26.624  0.00  0.00    -0.066 NA
ATOM     20  C   UNL A   1     -26.667   4.659  28.022  0.00  0.00    +0.286 C 
ATOM     21  C   UNL A   1     -26.977   3.693  27.010  0.00  0.00    +0.213 C 
ENDBRANCH  14  16
ENDBRANCH  13  14
ENDBRANCH  12  13
ENDBRANCH   1  12
TORSDOF 6
ENDMDL
ENDMDL
