MODEL 4674
MODEL 1
REMARK VINA RESULT:    -6.638      0.000      0.000
REMARK INTER + INTRA:          -7.063
REMARK INTER:                  -7.026
REMARK INTRA:                  -0.037
REMARK UNBOUND:                -0.037
REMARK  Name = No_4674-gen_results/8p0m/2024-11-27-11-27-31/
REMARK  1 active torsions:
REMARK  status: ('A' for Active; 'I' for Inactive)
REMARK    1  A    between atoms: C_7  and  C_11
REMARK                            x       y       z     vdW  Elec       q    Type
REMARK                         _______ _______ _______ _____ _____    ______ ____
ROOT
ATOM      1  C   UNL A   1     -24.659  -2.775  29.016  0.00  0.00    +0.004 A 
ATOM      2  C   UNL A   1     -23.906  -3.460  28.745  0.00  0.00    -0.000 A 
ATOM      3  C   UNL A   1     -25.694  -3.278  29.874  0.00  0.00    -0.000 A 
ATOM      4  C   UNL A   1     -26.682  -2.367  30.487  0.00  0.00    -0.000 A 
ATOM      5  C   UNL A   1     -26.309  -1.038  30.763  0.00  0.00    -0.000 A 
ATOM      6  C   UNL A   1     -25.074  -0.562  30.277  0.00  0.00    +0.004 A 
ATOM      7  C   UNL A   1     -24.252  -1.366  29.579  0.00  0.00    +0.071 A 
ATOM      8  C   UNL A   1     -24.029  -4.746  28.440  0.00  0.00    -0.000 A 
ATOM      9  C   UNL A   1     -25.213  -5.313  29.008  0.00  0.00    -0.000 A 
ATOM     10  C   UNL A   1     -26.139  -4.560  29.701  0.00  0.00    -0.000 A 
ENDROOT
BRANCH   7  11
ATOM     11  C   UNL A   1     -23.009  -0.675  29.043  0.00  0.00    +0.419 C 
ATOM     12  F   UNL A   1     -22.096  -1.403  29.092  0.00  0.00    -0.166 F 
ATOM     13  F   UNL A   1     -23.286  -0.206  27.795  0.00  0.00    -0.166 F 
ATOM     14  F   UNL A   1     -22.740   0.495  29.791  0.00  0.00    -0.166 F 
ENDBRANCH   7  11
TORSDOF 1
ENDMDL
ENDMDL
