MODEL 4675
MODEL 1
REMARK VINA RESULT:    -7.717      0.000      0.000
REMARK INTER + INTRA:         -11.410
REMARK INTER:                 -10.424
REMARK INTRA:                  -0.985
REMARK UNBOUND:                -0.985
REMARK  Name = No_4675-gen_results/8p0m/2024-11-27-11-27-31/
REMARK  6 active torsions:
REMARK  status: ('A' for Active; 'I' for Inactive)
REMARK    1  A    between atoms: C_2  and  O_7
REMARK    2  A    between atoms: O_7  and  C_8
REMARK    3  A    between atoms: C_12  and  C_14
REMARK    4  A    between atoms: C_14  and  C_16
REMARK    5  A    between atoms: C_18  and  C_19
REMARK    6  A    between atoms: C_20  and  C_21
REMARK                            x       y       z     vdW  Elec       q    Type
REMARK                         _______ _______ _______ _____ _____    ______ ____
ROOT
ATOM      1  C   UNL A   1     -23.671  -0.612  29.151  0.00  0.00    +0.145 A 
ATOM      2  C   UNL A   1     -22.361  -0.456  29.476  0.00  0.00    +0.037 A 
ATOM      3  C   UNL A   1     -21.514   0.378  28.688  0.00  0.00    +0.003 A 
ATOM      4  C   UNL A   1     -22.071   1.069  27.602  0.00  0.00    -0.004 A 
ATOM      5  C   UNL A   1     -23.417   0.929  27.318  0.00  0.00    -0.016 A 
ATOM      6  C   UNL A   1     -24.215   0.118  28.069  0.00  0.00    +0.034 A 
ENDROOT
BRANCH   5   7
ATOM      7  C   UNL A   1     -24.010   1.644  26.165  0.00  0.00    +0.037 C 
ATOM      8  C   UNL A   1     -23.226   2.481  25.498  0.00  0.00    +0.009 C 
ATOM      9  C   UNL A   1     -24.565   0.568  25.124  0.00  0.00    +0.009 C 
BRANCH   7  10
ATOM     10  C   UNL A   1     -25.322   2.305  26.582  0.00  0.00    -0.023 C 
ATOM     11  C   UNL A   1     -26.014   3.233  25.836  0.00  0.00    -0.004 C 
BRANCH  11  12
ATOM     12  C   UNL A   1     -27.413   3.459  26.098  0.00  0.00    -0.000 C 
ATOM     13  C   UNL A   1     -28.413   3.077  25.145  0.00  0.00    -0.000 C 
BRANCH  13  14
ATOM     14  C   UNL A   1     -27.959   2.459  23.970  0.00  0.00    -0.000 C 
ATOM     15  C   UNL A   1     -28.224   1.117  23.640  0.00  0.00    -0.000 C 
ENDBRANCH  13  14
ENDBRANCH  11  12
ENDBRANCH   7  10
ENDBRANCH   5   7
BRANCH   1  16
ATOM     16  O   UNL A   1     -24.456  -1.310  29.890  0.00  0.00    -0.454 OA
BRANCH  16  18
ATOM     17  C   UNL A   1     -23.835  -3.137  28.945  0.00  0.00    +0.037 A 
ATOM     18  C   UNL A   1     -24.607  -2.729  29.536  0.00  0.00    +0.145 A 
ATOM     19  C   UNL A   1     -23.995  -4.597  28.584  0.00  0.00    +0.003 A 
ATOM     20  C   UNL A   1     -25.191  -5.265  28.921  0.00  0.00    +0.000 A 
ATOM     21  C   UNL A   1     -25.943  -3.185  29.982  0.00  0.00    +0.037 A 
ATOM     22  C   UNL A   1     -26.129  -4.522  29.662  0.00  0.00    +0.003 A 
ENDBRANCH  16  18
ENDBRANCH   1  16
TORSDOF 6
ENDMDL
ENDMDL
