REMARK  Name = outputs/IAG933/test6/raw/output_4677_IAG933_linker_design_.xyz
REMARK  12 active torsions:
REMARK  status: ('A' for Active; 'I' for Inactive)
REMARK    1  A    between atoms: C_1  and  C_2
REMARK    2  A    between atoms: C_1  and  C_8
REMARK    3  A    between atoms: C_1  and  C_28
REMARK    4  A    between atoms: C_13  and  N_34
REMARK    5  A    between atoms: C_14  and  C_15
REMARK    6  A    between atoms: C_21  and  O_22
REMARK    7  A    between atoms: O_22  and  C_23
REMARK    8  A    between atoms: C_23  and  C_24
REMARK    9  A    between atoms: C_28  and  C_35
REMARK   10  A    between atoms: C_28  and  C_46
REMARK   11  A    between atoms: O_29  and  C_35
REMARK   12  A    between atoms: O_29  and  C_40
REMARK                            x       y       z     vdW  Elec       q    Type
REMARK                         _______ _______ _______ _____ _____    ______ ____
ROOT
ATOM      1  C   UNL A   1     -25.519  -0.049  29.158  0.00  0.00    +0.060 C 
ENDROOT
BRANCH   1   8
ATOM      2  O   UNL A   1     -22.541  -0.164  29.066  0.00  0.00    -0.291 OA
ATOM      3  N   UNL A   1     -24.373   1.171  27.106  0.00  0.00    -0.286 N 
ATOM      4  C   UNL A   1     -22.778   2.358  25.767  0.00  0.00    +0.045 C 
ATOM      5  C   UNL A   1     -23.236   0.731  28.564  0.00  0.00    +0.199 C 
ATOM      6 CL   UNL A   1     -20.858   1.532  27.402  0.00  0.00    -0.088 Cl
ATOM      7  C   UNL A   1     -22.868   1.596  27.284  0.00  0.00    +0.179 C 
ATOM      8  C   UNL A   1     -24.568   0.941  28.566  0.00  0.00    +0.137 C 
BRANCH   3   9
ATOM      9  C   UNL A   1     -25.688   1.614  26.461  0.00  0.00    +0.088 C 
ATOM     10  C   UNL A   1     -26.250   2.920  26.395  0.00  0.00    +0.090 C 
ATOM     11  C   UNL A   1     -27.438   3.091  25.645  0.00  0.00    +0.108 C 
ATOM     12  N   UNL A   1     -28.075   2.089  25.003  0.00  0.00    -0.208 NA
ATOM     13  C   UNL A   1     -27.543   0.849  25.079  0.00  0.00    +0.255 C 
ATOM     14  C   UNL A   1     -26.354   0.576  25.777  0.00  0.00    +0.206 C 
ATOM     15  F   UNL A   1     -25.860  -0.681  25.795  0.00  0.00    -0.198 F 
BRANCH  10  16
ATOM     16  C   UNL A   1     -25.642   4.093  27.123  0.00  0.00    +0.268 C 
ATOM     17  N   UNL A   1     -25.614   5.252  26.449  0.00  0.00    -0.200 NA
ATOM     18  C   UNL A   1     -25.026   6.479  26.963  0.00  0.00    +0.139 C 
ATOM     19  O   UNL A   1     -25.143   3.966  28.243  0.00  0.00    -0.268 OA
ENDBRANCH  10  16
BRANCH  13  20
ATOM     20  O   UNL A   1     -28.193  -0.208  24.477  0.00  0.00    -0.456 OA
BRANCH  20  21
ATOM     21  C   UNL A   1     -29.460   0.005  23.866  0.00  0.00    +0.243 C 
BRANCH  21  22
ATOM     22  C   UNL A   1     -30.065  -1.377  23.573  0.00  0.00    +0.229 C 
ATOM     23  O   UNL A   1     -30.729  -1.878  24.721  0.00  0.00    -0.216 OA
ENDBRANCH  21  22
ENDBRANCH  20  21
ENDBRANCH  13  20
ENDBRANCH   3   9
ENDBRANCH   1   8
BRANCH   1  24
ATOM     24  C   UNL A   1     -24.855  -1.012  30.143  0.00  0.00    +0.043 C 
BRANCH  24  25
ATOM     25  C   UNL A   1     -24.973  -2.505  29.788  0.00  0.00    -0.021 C 
ATOM     26  C   UNL A   1     -23.906  -3.173  29.146  0.00  0.00    -0.004 C 
ATOM     27  C   UNL A   1     -23.989  -4.549  28.853  0.00  0.00    -0.000 C 
ATOM     28  C   UNL A   1     -25.137  -5.280  29.205  0.00  0.00    -0.000 C 
ATOM     29  C   UNL A   1     -26.232  -4.611  29.784  0.00  0.00    -0.000 C 
ATOM     30  C   UNL A   1     -26.155  -3.232  30.065  0.00  0.00    -0.004 C 
ENDBRANCH  24  25
BRANCH  24  31
ATOM     31  C   UNL A   1     -25.387  -0.679  31.571  0.00  0.00    +0.077 C 
ATOM     32  C   UNL A   1     -25.189   0.773  32.028  0.00  0.00    +0.019 C 
ATOM     33  C   UNL A   1     -25.336   0.684  33.544  0.00  0.00    +0.020 C 
ATOM     34  C   UNL A   1     -24.829  -0.715  33.905  0.00  0.00    +0.089 C 
ATOM     35  N   UNL A   1     -24.758  -1.481  32.646  0.00  0.00    -0.219 NA
ENDBRANCH  24  31
ENDBRANCH   1  24
BRANCH   1  36
ATOM     36  C   UNL A   1     -26.375   1.125  29.773  0.00  0.00    +0.144 C 
BRANCH  36  37
ATOM     37  O   UNL A   1     -27.472   0.940  28.948  0.00  0.00    -0.356 OA
BRANCH  37  43
ATOM     38  C   UNL A   1     -31.597  -1.045  28.476  0.00  0.00    +0.142 C 
ATOM     39  C   UNL A   1     -29.638   2.209  28.928  0.00  0.00    +0.005 C 
ATOM     40  C   UNL A   1     -29.255   2.035  29.977  0.00  0.00    +0.030 C 
ATOM     41  C   UNL A   1     -29.912   0.997  28.275  0.00  0.00    +0.032 C 
ATOM     42  C   UNL A   1     -29.291  -0.130  28.900  0.00  0.00    +0.032 C 
ATOM     43  C   UNL A   1     -28.621   0.726  29.801  0.00  0.00    +0.115 C 
ATOM     44  C   UNL A   1     -31.010   0.867  27.290  0.00  0.00    +0.142 C 
ATOM     45  C   UNL A   1     -30.224  -1.301  29.152  0.00  0.00    +0.035 C 
ATOM     46  O   UNL A   1     -31.491  -0.429  27.186  0.00  0.00    -0.354 OA
ENDBRANCH  37  43
ENDBRANCH  36  37
ENDBRANCH   1  36
TORSDOF 12
