MODEL 4677
MODEL 1
REMARK VINA RESULT:    -5.304      0.000      0.000
REMARK INTER + INTRA:          -6.155
REMARK INTER:                  -5.925
REMARK INTRA:                  -0.231
REMARK UNBOUND:                -0.231
REMARK  Name = No_4677-gen_results/8p0m/2024-11-27-11-27-31/
REMARK  2 active torsions:
REMARK  status: ('A' for Active; 'I' for Inactive)
REMARK    1  A    between atoms: C_3  and  C_4
REMARK    2  A    between atoms: C_6  and  C_7
REMARK                            x       y       z     vdW  Elec       q    Type
REMARK                         _______ _______ _______ _____ _____    ______ ____
ROOT
ATOM      1  C   UNL A   1     -23.459   0.274  28.039  0.00  0.00    +0.021 A 
ATOM      2  C   UNL A   1     -23.091   1.213  28.342  0.00  0.00    +0.099 A 
ATOM      3  C   UNL A   1     -23.491  -0.718  29.114  0.00  0.00    +0.003 A 
ATOM      4  N   UNL A   1     -23.401   1.912  29.448  0.00  0.00    -0.242 NA
ATOM      5  C   UNL A   1     -23.541   1.175  30.616  0.00  0.00    +0.099 A 
ATOM      6  C   UNL A   1     -23.562  -0.172  30.473  0.00  0.00    +0.021 A 
ENDROOT
BRANCH   3   7
ATOM      7  C   UNL A   1     -23.275  -2.035  28.904  0.00  0.00    +0.000 C 
ATOM      8  C   UNL A   1     -24.249  -2.925  29.136  0.00  0.00    -0.000 C 
BRANCH   8   9
ATOM      9  C   UNL A   1     -24.179  -4.311  28.907  0.00  0.00    -0.005 C 
ATOM     10  C   UNL A   1     -25.268  -5.157  29.305  0.00  0.00    -0.026 C 
ATOM     11  C   UNL A   1     -26.491  -4.589  29.700  0.00  0.00    +0.031 C 
ENDBRANCH   8   9
ENDBRANCH   3   7
TORSDOF 2
ENDMDL
ENDMDL
