MODEL 4678
MODEL 1
REMARK VINA RESULT:    -5.784      0.000      0.000
REMARK INTER + INTRA:          -6.664
REMARK INTER:                  -6.461
REMARK INTRA:                  -0.204
REMARK UNBOUND:                -0.204
REMARK  Name = No_4678-gen_results/8p0m/2024-11-27-11-27-31/
REMARK  2 active torsions:
REMARK  status: ('A' for Active; 'I' for Inactive)
REMARK    1  A    between atoms: C_2  and  P_8
REMARK    2  A    between atoms: C_3  and  C_12
REMARK                            x       y       z     vdW  Elec       q    Type
REMARK                         _______ _______ _______ _____ _____    ______ ____
ROOT
ATOM      1  C   UNL A   1     -28.289 -11.786  31.467  0.00  0.00    +0.001 A 
ATOM      2  C   UNL A   1     -28.525 -11.326  32.385  0.00  0.00    +0.029 A 
ATOM      3  C   UNL A   1     -29.056 -11.276  30.268  0.00  0.00    +0.005 A 
ATOM      4  C   UNL A   1     -29.904 -10.158  30.415  0.00  0.00    +0.136 A 
ATOM      5  C   UNL A   1     -29.322 -10.149  32.798  0.00  0.00    +0.005 A 
ATOM      6  C   UNL A   1     -30.038  -9.648  31.720  0.00  0.00    +0.029 A 
ATOM      7  F   UNL A   1     -30.587  -9.732  29.446  0.00  0.00    -0.204 F 
ENDROOT
BRANCH   2   8
ATOM      8  P   UNL A   1     -27.551 -11.959  33.913  0.00  0.00    +0.140 P 
ATOM      9  O   UNL A   1     -28.449 -12.621  34.808  0.00  0.00    -0.354 OA
ATOM     10  O   UNL A   1     -26.920 -10.808  34.570  0.00  0.00    -0.354 OA
ATOM     11  O   UNL A   1     -26.540 -12.863  33.342  0.00  0.00    -0.456 OA
ENDBRANCH   2   8
BRANCH   3  12
ATOM     12  C   UNL A   1     -28.985 -11.847  28.908  0.00  0.00    +0.029 C 
ATOM     13  C   UNL A   1     -29.704 -13.012  28.639  0.00  0.00    +0.005 C 
ENDBRANCH   3  12
TORSDOF 2
ENDMDL
ENDMDL
