REMARK  Name = No_4678-gen_results/8p0m/2024-11-27-11-27-31/
REMARK  2 active torsions:
REMARK  status: ('A' for Active; 'I' for Inactive)
REMARK    1  A    between atoms: C_2  and  P_8
REMARK    2  A    between atoms: C_3  and  C_12
REMARK                            x       y       z     vdW  Elec       q    Type
REMARK                         _______ _______ _______ _____ _____    ______ ____
ROOT
ATOM      1  C   UNL A   1     -28.016  -0.814  28.878  0.00  0.00    +0.001 A 
ATOM      2  C   UNL A   1     -28.469  -0.785  29.829  0.00  0.00    +0.029 A 
ATOM      3  C   UNL A   1     -26.504  -0.778  28.877  0.00  0.00    +0.005 A 
ATOM      4  C   UNL A   1     -25.810  -0.853  30.103  0.00  0.00    +0.136 A 
ATOM      5  C   UNL A   1     -27.991  -0.892  31.226  0.00  0.00    +0.005 A 
ATOM      6  C   UNL A   1     -26.604  -0.868  31.265  0.00  0.00    +0.029 A 
ATOM      7  F   UNL A   1     -24.553  -0.787  30.141  0.00  0.00    -0.204 F 
ENDROOT
BRANCH   2   8
ATOM      8  P   UNL A   1     -30.387  -0.839  29.843  0.00  0.00    +0.140 P 
ATOM      9  O   UNL A   1     -30.883   0.140  30.761  0.00  0.00    -0.354 OA
ATOM     10  O   UNL A   1     -30.810  -2.186  30.245  0.00  0.00    -0.354 OA
ATOM     11  O   UNL A   1     -30.762  -0.559  28.448  0.00  0.00    -0.456 OA
ENDBRANCH   2   8
BRANCH   3  12
ATOM     12  C   UNL A   1     -25.657  -0.687  27.670  0.00  0.00    +0.029 C 
ATOM     13  C   UNL A   1     -24.381  -0.137  27.796  0.00  0.00    +0.005 C 
ENDBRANCH   3  12
TORSDOF 2
