MODEL 4679
MODEL 1
REMARK VINA RESULT:    -6.228      0.000      0.000
REMARK INTER + INTRA:          -8.380
REMARK INTER:                  -7.684
REMARK INTRA:                  -0.696
REMARK UNBOUND:                -0.696
REMARK  Name = No_4679-gen_results/8p0m/2024-11-27-11-27-31/
REMARK  4 active torsions:
REMARK  status: ('A' for Active; 'I' for Inactive)
REMARK    1  A    between atoms: C_3  and  C_7
REMARK    2  A    between atoms: C_6  and  C_13
REMARK    3  A    between atoms: N_14  and  C_16
REMARK    4  A    between atoms: C_17  and  C_18
REMARK                            x       y       z     vdW  Elec       q    Type
REMARK                         _______ _______ _______ _____ _____    ______ ____
ROOT
ATOM      1  C   UNL A   1     -25.129   0.040  25.700  0.00  0.00    +0.005 A 
ATOM      2  C   UNL A   1     -26.126   0.117  25.019  0.00  0.00    +0.000 A 
ATOM      3  C   UNL A   1     -26.857   1.292  24.853  0.00  0.00    +0.000 A 
ATOM      4  C   UNL A   1     -26.452   2.484  25.574  0.00  0.00    +0.000 A 
ATOM      5  C   UNL A   1     -25.287   2.316  26.356  0.00  0.00    +0.005 A 
ATOM      6  C   UNL A   1     -24.669   1.166  26.455  0.00  0.00    +0.055 A 
ENDROOT
BRANCH   3   7
ATOM      7  C   UNL A   1     -28.086   1.241  24.058  0.00  0.00    +0.000 A 
ATOM      8  C   UNL A   1     -28.842   2.280  23.796  0.00  0.00    +0.000 A 
ATOM      9  C   UNL A   1     -30.107   2.122  23.129  0.00  0.00    +0.000 A 
ATOM     10  C   UNL A   1     -30.776   0.924  23.122  0.00  0.00    +0.000 A 
ATOM     11  C   UNL A   1     -28.855  -0.035  24.055  0.00  0.00    +0.000 A 
ATOM     12  C   UNL A   1     -30.118  -0.162  23.594  0.00  0.00    +0.000 A 
ENDBRANCH   3   7
BRANCH   6  13
ATOM     13  C   UNL A   1     -23.486   1.109  27.367  0.00  0.00    +0.269 C 
ATOM     14  N   UNL A   1     -23.225   0.083  28.000  0.00  0.00    -0.174 NA
ATOM     15  O   UNL A   1     -22.996   2.226  27.789  0.00  0.00    -0.268 OA
BRANCH  14  16
ATOM     16  C   UNL A   1     -22.097  -0.077  28.919  0.00  0.00    +0.084 C 
ATOM     17  C   UNL A   1     -21.976  -0.401  29.875  0.00  0.00    -0.008 C 
BRANCH  17  18
ATOM     18  C   UNL A   1     -23.156  -0.831  30.629  0.00  0.00    +0.027 C 
ATOM     19  C   UNL A   1     -23.576  -0.713  31.814  0.00  0.00    +0.005 C 
ENDBRANCH  17  18
ENDBRANCH  14  16
ENDBRANCH   6  13
TORSDOF 4
ENDMDL
ENDMDL
