MODEL 467
MODEL 1
REMARK VINA RESULT:    -7.404      0.000      0.000
REMARK INTER + INTRA:         -13.372
REMARK INTER:                 -11.732
REMARK INTRA:                  -1.640
REMARK UNBOUND:                -1.640
REMARK  Name = No_467-gen_results/8p0m/2024-11-27-11-27-31/
REMARK  10 active torsions:
REMARK  status: ('A' for Active; 'I' for Inactive)
REMARK    1  A    between atoms: C_2  and  C_29
REMARK    2  A    between atoms: C_3  and  C_4
REMARK    3  A    between atoms: C_4  and  N_8
REMARK    4  A    between atoms: C_9  and  N_21
REMARK    5  A    between atoms: C_10  and  C_13
REMARK    6  A    between atoms: C_16  and  O_18
REMARK    7  A    between atoms: O_18  and  C_32
REMARK    8  A    between atoms: N_21  and  C_22
REMARK    9  A    between atoms: C_22  and  C_23
REMARK   10  A    between atoms: C_32  and  C_33
REMARK                            x       y       z     vdW  Elec       q    Type
REMARK                         _______ _______ _______ _____ _____    ______ ____
ROOT
ATOM      1  N   UNL A   1      -7.674   1.308  35.227  0.00  0.00    -0.309 N 
ATOM      2  C   UNL A   1      -8.825   1.129  35.306  0.00  0.00    +0.133 A 
ATOM      3  C   UNL A   1      -9.713   1.875  34.433  0.00  0.00    +0.087 A 
ATOM      4  C   UNL A   1      -8.845   2.691  33.617  0.00  0.00    +0.026 A 
ATOM      5  C   UNL A   1      -7.424   2.394  34.244  0.00  0.00    +0.077 A 
ENDROOT
BRANCH   3   6
ATOM      6  C   UNL A   1     -11.144   1.854  34.216  0.00  0.00    +0.256 C 
ATOM      7  N   UNL A   1     -12.118   2.296  34.767  0.00  0.00    -0.251 N 
ATOM      8  C   UNL A   1     -11.952   2.907  35.970  0.00  0.00    +0.101 C 
ATOM      9  C   UNL A   1     -13.167   3.454  36.587  0.00  0.00    +0.133 C 
ATOM     10  C   UNL A   1     -13.527   2.202  34.465  0.00  0.00    +0.107 C 
ATOM     11  C   UNL A   1     -14.209   3.065  35.589  0.00  0.00    +0.087 C 
ATOM     12  O   UNL A   1     -11.375   1.281  33.005  0.00  0.00    -0.270 OA
BRANCH   9  13
ATOM     13  O   UNL A   1     -13.320   4.056  37.651  0.00  0.00    -0.474 OA
BRANCH  13  14
ATOM     14  C   UNL A   1     -13.662   3.433  38.777  0.00  0.00    +0.231 C 
BRANCH  14  15
ATOM     15  C   UNL A   1     -15.012   3.675  39.186  0.00  0.00    +0.016 C 
ATOM     16  C   UNL A   1     -15.838   3.041  38.942  0.00  0.00    -0.027 C 
ATOM     17  C   UNL A   1     -17.281   3.138  39.375  0.00  0.00    +0.030 C 
ENDBRANCH  14  15
ENDBRANCH  13  14
ENDBRANCH   9  13
ENDBRANCH   3   6
BRANCH   1  18
ATOM     18  C   UNL A   1      -6.669   0.809  35.963  0.00  0.00    +0.134 C 
BRANCH  18  21
ATOM     19  C   UNL A   1      -4.355  -0.089  35.077  0.00  0.00    +0.004 A 
ATOM     20  C   UNL A   1      -3.942  -0.867  34.500  0.00  0.00    +0.080 A 
ATOM     21  C   UNL A   1      -5.842  -0.190  35.334  0.00  0.00    +0.001 A 
ATOM     22  C   UNL A   1      -4.484  -2.163  34.069  0.00  0.00    +0.007 A 
ATOM     23  C   UNL A   1      -5.832  -2.341  34.294  0.00  0.00    -0.000 A 
ATOM     24  C   UNL A   1      -6.556  -1.385  34.958  0.00  0.00    -0.002 A 
BRANCH  20  25
ATOM     25  C   UNL A   1      -2.366  -0.806  34.146  0.00  0.00    +0.388 C 
ATOM     26  O   UNL A   1      -1.537  -0.767  34.981  0.00  0.00    -0.241 OA
ATOM     27  O   UNL A   1      -1.996  -1.015  32.853  0.00  0.00    -0.241 OA
ENDBRANCH  20  25
ENDBRANCH  18  21
ENDBRANCH   1  18
BRANCH   2  28
ATOM     28  N   UNL A   1      -9.531   0.220  36.099  0.00  0.00    -0.217 NA
BRANCH  28  29
ATOM     29  C   UNL A   1      -9.808   0.442  37.409  0.00  0.00    +0.140 C 
BRANCH  29  30
ATOM     30  C   UNL A   1     -10.555  -0.848  37.990  0.00  0.00    -0.001 A 
ATOM     31  C   UNL A   1     -10.955  -0.653  39.304  0.00  0.00    -0.003 A 
ATOM     32  C   UNL A   1     -11.870  -1.540  39.797  0.00  0.00    -0.000 A 
ATOM     33  C   UNL A   1     -12.210  -2.668  39.043  0.00  0.00    -0.000 A 
ATOM     34  C   UNL A   1     -11.783  -2.814  37.758  0.00  0.00    -0.000 A 
ATOM     35  C   UNL A   1     -10.966  -1.853  37.230  0.00  0.00    -0.003 A 
ENDBRANCH  29  30
ENDBRANCH  28  29
ENDBRANCH   2  28
TORSDOF 10
ENDMDL
ENDMDL
