MODEL 4680
MODEL 1
REMARK VINA RESULT:    -5.929      0.000      0.000
REMARK INTER + INTRA:          -8.080
REMARK INTER:                  -7.662
REMARK INTRA:                  -0.418
REMARK UNBOUND:                -0.418
REMARK  Name = No_4680-gen_results/8p0m/2024-11-27-11-27-31/
REMARK  5 active torsions:
REMARK  status: ('A' for Active; 'I' for Inactive)
REMARK    1  A    between atoms: C_3  and  C_7
REMARK    2  A    between atoms: C_7  and  O_9
REMARK    3  A    between atoms: O_9  and  C_10
REMARK    4  A    between atoms: C_10  and  C_11
REMARK    5  A    between atoms: C_10  and  C_12
REMARK                            x       y       z     vdW  Elec       q    Type
REMARK                         _______ _______ _______ _____ _____    ______ ____
ROOT
ATOM      1  C   UNL A   1     -24.628  -1.137  29.123  0.00  0.00    +0.341 C 
ATOM      2  O   UNL A   1     -25.042  -0.525  29.990  0.00  0.00    -0.245 OA
ENDROOT
BRANCH   1   5
ATOM      3  C   UNL A   1     -23.869  -3.553  28.638  0.00  0.00    +0.006 A 
ATOM      4  C   UNL A   1     -24.160  -4.562  28.726  0.00  0.00    +0.000 A 
ATOM      5  C   UNL A   1     -24.874  -2.608  29.126  0.00  0.00    +0.076 A 
ATOM      6  C   UNL A   1     -26.068  -3.024  29.661  0.00  0.00    +0.006 A 
ATOM      7  C   UNL A   1     -25.326  -5.279  29.242  0.00  0.00    +0.000 A 
ATOM      8  C   UNL A   1     -26.305  -4.374  29.716  0.00  0.00    +0.000 A 
ENDBRANCH   1   5
BRANCH   1   9
ATOM      9  O   UNL A   1     -23.893  -0.625  28.129  0.00  0.00    -0.441 OA
BRANCH   9  10
ATOM     10  C   UNL A   1     -22.836   0.179  28.437  0.00  0.00    +0.268 C 
BRANCH  10  11
ATOM     11  C   UNL A   1     -22.766   1.494  28.155  0.00  0.00    +0.360 C 
ATOM     12  F   UNL A   1     -23.744   2.091  27.475  0.00  0.00    -0.194 F 
ATOM     13  F   UNL A   1     -21.596   1.806  27.719  0.00  0.00    -0.194 F 
ENDBRANCH  10  11
BRANCH  10  14
ATOM     14  C   UNL A   1     -21.730  -0.524  29.276  0.00  0.00    +0.231 C 
ATOM     15  O   UNL A   1     -20.778  -1.032  28.714  0.00  0.00    -0.216 OA
ENDBRANCH  10  14
ENDBRANCH   9  10
ENDBRANCH   1   9
TORSDOF 5
ENDMDL
ENDMDL
