REMARK  Name = No_4681-gen_results/8p0m/2024-11-27-11-27-31/
REMARK  2 active torsions:
REMARK  status: ('A' for Active; 'I' for Inactive)
REMARK    1  A    between atoms: C_2  and  C_8
REMARK    2  A    between atoms: N_10  and  C_11
REMARK                            x       y       z     vdW  Elec       q    Type
REMARK                         _______ _______ _______ _____ _____    ______ ____
ROOT
ATOM      1  C   UNL A   1     -28.016  -0.814  28.878  0.00  0.00    +0.007 A 
ATOM      2  C   UNL A   1     -28.469  -0.785  29.829  0.00  0.00    +0.056 A 
ATOM      3  C   UNL A   1     -26.504  -0.778  28.877  0.00  0.00    +0.030 A 
ATOM      4  C   UNL A   1     -25.810  -0.853  30.103  0.00  0.00    +0.140 A 
ATOM      5  C   UNL A   1     -27.991  -0.892  31.226  0.00  0.00    +0.007 A 
ATOM      6  C   UNL A   1     -26.604  -0.868  31.265  0.00  0.00    +0.030 A 
ATOM      7  F   UNL A   1     -24.553  -0.787  30.141  0.00  0.00    -0.204 F 
ENDROOT
BRANCH   2   8
ATOM      8  C   UNL A   1     -30.095  -0.841  29.850  0.00  0.00    +0.269 C 
ATOM      9  O   UNL A   1     -30.524  -0.469  28.926  0.00  0.00    -0.268 OA
ATOM     10  N   UNL A   1     -30.780  -1.330  30.928  0.00  0.00    -0.180 NA
BRANCH  10  11
ATOM     11  C   UNL A   1     -30.348  -1.847  32.128  0.00  0.00    +0.052 C 
ATOM     12  C   UNL A   1     -31.053  -2.225  33.107  0.00  0.00    +0.013 C 
ATOM     13  C   UNL A   1     -28.932  -1.972  32.453  0.00  0.00    +0.049 C 
ENDBRANCH  10  11
ENDBRANCH   2   8
TORSDOF 2
