MODEL 4681
MODEL 1
REMARK VINA RESULT:    -5.429      0.000      0.000
REMARK INTER + INTRA:          -6.520
REMARK INTER:                  -6.064
REMARK INTRA:                  -0.456
REMARK UNBOUND:                -0.456
REMARK  Name = No_4681-gen_results/8p0m/2024-11-27-11-27-31/
REMARK  2 active torsions:
REMARK  status: ('A' for Active; 'I' for Inactive)
REMARK    1  A    between atoms: C_2  and  C_8
REMARK    2  A    between atoms: N_10  and  C_11
REMARK                            x       y       z     vdW  Elec       q    Type
REMARK                         _______ _______ _______ _____ _____    ______ ____
ROOT
ATOM      1  C   UNL A   1     -26.105  -2.850  29.797  0.00  0.00    +0.007 A 
ATOM      2  C   UNL A   1     -25.292  -2.351  29.349  0.00  0.00    +0.056 A 
ATOM      3  C   UNL A   1     -26.101  -4.355  29.656  0.00  0.00    +0.030 A 
ATOM      4  C   UNL A   1     -24.980  -4.994  29.085  0.00  0.00    +0.140 A 
ATOM      5  C   UNL A   1     -24.009  -2.767  28.739  0.00  0.00    +0.007 A 
ATOM      6  C   UNL A   1     -23.966  -4.147  28.599  0.00  0.00    +0.030 A 
ATOM      7  F   UNL A   1     -24.960  -6.242  28.918  0.00  0.00    -0.204 F 
ENDROOT
BRANCH   2   8
ATOM      8  C   UNL A   1     -25.270  -0.732  29.505  0.00  0.00    +0.269 C 
ATOM      9  O   UNL A   1     -25.683  -0.236  28.633  0.00  0.00    -0.268 OA
ATOM     10  N   UNL A   1     -24.794  -0.128  30.636  0.00  0.00    -0.180 NA
BRANCH  10  11
ATOM     11  C   UNL A   1     -24.278  -0.648  31.801  0.00  0.00    +0.052 C 
ATOM     12  C   UNL A   1     -24.856  -0.767  32.919  0.00  0.00    +0.013 C 
ATOM     13  C   UNL A   1     -22.894  -1.097  31.903  0.00  0.00    +0.049 C 
ENDBRANCH  10  11
ENDBRANCH   2   8
TORSDOF 2
ENDMDL
ENDMDL
