MODEL 4682
MODEL 1
REMARK VINA RESULT:    -4.354      0.000      0.000
REMARK INTER + INTRA:          -4.354
REMARK INTER:                  -4.354
REMARK INTRA:                   0.000
REMARK UNBOUND:                 0.000
REMARK  Name = No_4682-gen_results/8p0m/2024-11-27-11-27-31/
REMARK  0 active torsions:
REMARK  status: ('A' for Active; 'I' for Inactive)
REMARK                            x       y       z     vdW  Elec       q    Type
REMARK                         _______ _______ _______ _____ _____    ______ ____
ROOT
ATOM      1  C   UNL A   1     -26.176  -4.779  29.681  0.00  0.00    +0.011 A 
ATOM      2  C   UNL A   1     -26.172  -3.727  29.744  0.00  0.00    +0.058 A 
ATOM      3  C   UNL A   1     -25.040  -5.402  28.983  0.00  0.00    +0.001 A 
ATOM      4  C   UNL A   1     -23.935  -4.613  28.550  0.00  0.00    +0.000 A 
ATOM      5  C   UNL A   1     -25.142  -2.699  29.434  0.00  0.00    +0.011 A 
ATOM      6  C   UNL A   1     -24.076  -3.237  28.777  0.00  0.00    +0.001 A 
ATOM      7 CL   UNL A   1     -27.557  -2.943  30.613  0.00  0.00    -0.082 Cl
ENDROOT
TORSDOF 0
ENDMDL
ENDMDL
