MODEL 4683
MODEL 1
REMARK VINA RESULT:    -7.349      0.000      0.000
REMARK INTER + INTRA:         -10.601
REMARK INTER:                  -9.068
REMARK INTRA:                  -1.534
REMARK UNBOUND:                -1.534
REMARK  Name = No_4683-gen_results/8p0m/2024-11-27-11-27-31/
REMARK  4 active torsions:
REMARK  status: ('A' for Active; 'I' for Inactive)
REMARK    1  A    between atoms: C_3  and  C_8
REMARK    2  A    between atoms: C_8  and  O_10
REMARK    3  A    between atoms: O_10  and  C_14
REMARK    4  A    between atoms: C_15  and  C_16
REMARK                            x       y       z     vdW  Elec       q    Type
REMARK                         _______ _______ _______ _____ _____    ______ ____
ROOT
ATOM      1  O   UNL A   1     -24.089   2.248  28.908  0.00  0.00    -0.419 OA
ENDROOT
BRANCH   1   2
ATOM      2  C   UNL A   1     -25.424   2.677  28.750  0.00  0.00    +0.171 A 
ATOM      3  C   UNL A   1     -26.097   2.216  27.629  0.00  0.00    +0.057 A 
ATOM      4  C   UNL A   1     -26.018   3.213  29.958  0.00  0.00    +0.160 A 
ATOM      5  N   UNL A   1     -27.360   2.987  29.996  0.00  0.00    -0.143 NA
ATOM      6  C   UNL A   1     -27.594   2.314  27.916  0.00  0.00    +0.125 A 
ATOM      7  N   UNL A   1     -28.139   2.678  29.001  0.00  0.00    -0.146 NA
BRANCH   3   8
ATOM      8  C   UNL A   1     -25.799   2.274  26.494  0.00  0.00    +0.005 A 
ATOM      9  C   UNL A   1     -24.504   1.985  25.957  0.00  0.00    +0.000 A 
ATOM     10  C   UNL A   1     -24.357   0.589  25.913  0.00  0.00    +0.000 A 
ATOM     11  C   UNL A   1     -25.334  -0.227  25.934  0.00  0.00    +0.000 A 
ATOM     12  C   UNL A   1     -26.546   1.765  25.593  0.00  0.00    +0.000 A 
ATOM     13  C   UNL A   1     -26.489   0.322  25.365  0.00  0.00    +0.000 A 
ENDBRANCH   3   8
ENDBRANCH   1   2
BRANCH   1  14
ATOM     14  C   UNL A   1     -23.837   1.348  29.921  0.00  0.00    +0.346 C 
ATOM     15  O   UNL A   1     -23.500   1.714  31.026  0.00  0.00    -0.244 OA
BRANCH  14  18
ATOM     16  C   UNL A   1     -22.862  -0.785  29.072  0.00  0.00    +0.006 A 
ATOM     17  C   UNL A   1     -22.983  -1.816  28.894  0.00  0.00    +0.000 A 
ATOM     18  C   UNL A   1     -24.072  -0.130  29.568  0.00  0.00    +0.076 A 
ATOM     19  C   UNL A   1     -25.237  -0.821  29.791  0.00  0.00    +0.006 A 
ATOM     20  C   UNL A   1     -24.066  -2.789  29.038  0.00  0.00    +0.000 A 
ATOM     21  C   UNL A   1     -24.054  -4.171  28.744  0.00  0.00    +0.000 A 
ATOM     22  C   UNL A   1     -25.219  -2.146  29.538  0.00  0.00    +0.000 A 
ATOM     23  C   UNL A   1     -24.958  -4.876  29.181  0.00  0.00    +0.000 A 
ATOM     24  C   UNL A   1     -26.258  -4.305  29.663  0.00  0.00    +0.000 A 
ATOM     25  C   UNL A   1     -26.349  -2.985  29.860  0.00  0.00    +0.000 A 
ENDBRANCH  14  18
ENDBRANCH   1  14
TORSDOF 4
ENDMDL
ENDMDL
