MODEL 4684
MODEL 1
REMARK VINA RESULT:    -5.000      0.000      0.000
REMARK INTER + INTRA:          -5.707
REMARK INTER:                  -5.585
REMARK INTRA:                  -0.122
REMARK UNBOUND:                -0.122
REMARK  Name = No_4684-gen_results/8p0m/2024-11-27-11-27-31/
REMARK  2 active torsions:
REMARK  status: ('A' for Active; 'I' for Inactive)
REMARK    1  A    between atoms: C_3  and  N_9
REMARK    2  A    between atoms: N_9  and  C_10
REMARK                            x       y       z     vdW  Elec       q    Type
REMARK                         _______ _______ _______ _____ _____    ______ ____
ROOT
ATOM      1  C   UNL A   1     -25.533  -5.011  29.131  0.00  0.00    +0.032 A 
ATOM      2  C   UNL A   1     -24.587  -4.286  28.927  0.00  0.00    +0.155 A 
ATOM      3  C   UNL A   1     -24.553  -2.971  29.260  0.00  0.00    +0.099 A 
ATOM      4  C   UNL A   1     -25.686  -2.410  29.880  0.00  0.00    +0.030 A 
ATOM      5  C   UNL A   1     -26.686  -4.528  29.847  0.00  0.00    +0.014 A 
ATOM      6  C   UNL A   1     -26.714  -3.206  30.177  0.00  0.00    +0.059 A 
ATOM      7  F   UNL A   1     -23.454  -4.750  28.340  0.00  0.00    -0.203 F 
ATOM      8 CL   UNL A   1     -28.104  -2.606  30.988  0.00  0.00    -0.082 Cl
ENDROOT
BRANCH   3   9
ATOM      9  N   UNL A   1     -23.331  -2.356  28.944  0.00  0.00    -0.209 NA
BRANCH   9  10
ATOM     10  C   UNL A   1     -22.968  -1.242  29.376  0.00  0.00    +0.086 C 
ATOM     11  C   UNL A   1     -21.613  -0.680  29.014  0.00  0.00    +0.019 C 
ENDBRANCH   9  10
ENDBRANCH   3   9
TORSDOF 2
ENDMDL
ENDMDL
