MODEL 4685
MODEL 1
REMARK VINA RESULT:    -4.908      0.000      0.000
REMARK INTER + INTRA:          -5.299
REMARK INTER:                  -5.195
REMARK INTRA:                  -0.104
REMARK UNBOUND:                -0.104
REMARK  Name = No_4685-gen_results/8p0m/2024-11-27-11-27-31/
REMARK  1 active torsions:
REMARK  status: ('A' for Active; 'I' for Inactive)
REMARK    1  A    between atoms: C_3  and  C_4
REMARK                            x       y       z     vdW  Elec       q    Type
REMARK                         _______ _______ _______ _____ _____    ______ ____
ROOT
ATOM      1  C   UNL A   1     -25.781  -2.539  29.761  0.00  0.00    -0.000 A 
ATOM      2  C   UNL A   1     -26.382  -3.399  29.863  0.00  0.00    -0.000 A 
ATOM      3  C   UNL A   1     -24.474  -2.705  29.255  0.00  0.00    -0.000 A 
ATOM      4  C   UNL A   1     -26.105  -4.818  29.577  0.00  0.00    -0.000 A 
ATOM      5  C   UNL A   1     -24.826  -5.058  29.074  0.00  0.00    -0.000 A 
ATOM      6  C   UNL A   1     -23.993  -4.009  28.855  0.00  0.00    -0.000 A 
ENDROOT
BRANCH   3   7
ATOM      7  C   UNL A   1     -23.540  -1.589  28.949  0.00  0.00    -0.005 C 
ATOM      8  C   UNL A   1     -23.120  -0.766  30.038  0.00  0.00    -0.026 C 
ATOM      9  C   UNL A   1     -23.221  -1.186  31.376  0.00  0.00    +0.031 C 
ENDBRANCH   3   7
TORSDOF 1
ENDMDL
ENDMDL
