MODEL 4686
MODEL 1
REMARK VINA RESULT:    -6.743      0.000      0.000
REMARK INTER + INTRA:          -9.704
REMARK INTER:                  -8.714
REMARK INTRA:                  -0.990
REMARK UNBOUND:                -0.990
REMARK  Name = No_4686-gen_results/8p0m/2024-11-27-11-27-31/
REMARK  5 active torsions:
REMARK  status: ('A' for Active; 'I' for Inactive)
REMARK    1  A    between atoms: C_2  and  C_15
REMARK    2  A    between atoms: C_6  and  O_7
REMARK    3  A    between atoms: O_7  and  C_9
REMARK    4  A    between atoms: C_15  and  C_16
REMARK    5  A    between atoms: C_15  and  C_17
REMARK                            x       y       z     vdW  Elec       q    Type
REMARK                         _______ _______ _______ _____ _____    ______ ____
ROOT
ATOM      1  C   UNL A   1     -24.632  -0.210  27.828  0.00  0.00    +0.035 A 
ATOM      2  C   UNL A   1     -24.454   0.645  26.993  0.00  0.00    -0.001 A 
ATOM      3  C   UNL A   1     -23.254   1.340  26.845  0.00  0.00    +0.054 A 
ATOM      4  C   UNL A   1     -22.168   1.079  27.770  0.00  0.00    +0.014 A 
ATOM      5  C   UNL A   1     -22.452   0.075  28.723  0.00  0.00    +0.038 A 
ATOM      6  C   UNL A   1     -23.616  -0.521  28.789  0.00  0.00    +0.145 A 
ATOM      7 CL   UNL A   1     -22.938   2.576  25.676  0.00  0.00    -0.083 Cl
ENDROOT
BRANCH   6   8
ATOM      8  O   UNL A   1     -23.796  -1.438  29.785  0.00  0.00    -0.454 OA
BRANCH   8   9
ATOM      9  C   UNL A   1     -24.486  -2.576  29.549  0.00  0.00    +0.145 A 
ATOM     10  C   UNL A   1     -25.678  -2.528  30.049  0.00  0.00    +0.037 A 
ATOM     11  C   UNL A   1     -26.485  -3.728  30.088  0.00  0.00    +0.003 A 
ATOM     12  C   UNL A   1     -25.926  -4.873  29.441  0.00  0.00    +0.000 A 
ATOM     13  C   UNL A   1     -24.693  -4.819  28.895  0.00  0.00    +0.003 A 
ATOM     14  C   UNL A   1     -23.891  -3.675  28.952  0.00  0.00    +0.037 A 
ENDBRANCH   8   9
ENDBRANCH   6   8
BRANCH   2  15
ATOM     15  C   UNL A   1     -25.509   1.015  25.925  0.00  0.00    +0.067 C 
BRANCH  15  16
ATOM     16  C   UNL A   1     -26.437   1.824  26.256  0.00  0.00    -0.018 C 
ATOM     17  C   UNL A   1     -26.556   3.056  25.606  0.00  0.00    -0.004 C 
ENDBRANCH  15  16
BRANCH  15  18
ATOM     18  C   UNL A   1     -25.469   0.261  24.760  0.00  0.00    -0.018 C 
ATOM     19  C   UNL A   1     -25.959  -0.884  24.480  0.00  0.00    -0.004 C 
ENDBRANCH  15  18
ENDBRANCH   2  15
TORSDOF 5
ENDMDL
ENDMDL
