MODEL 4687
MODEL 1
REMARK VINA RESULT:    -4.477      0.000      0.000
REMARK INTER + INTRA:          -4.477
REMARK INTER:                  -4.477
REMARK INTRA:                   0.000
REMARK UNBOUND:                 0.000
REMARK  Name = No_4687-gen_results/8p0m/2024-11-27-11-27-31/
REMARK  0 active torsions:
REMARK  status: ('A' for Active; 'I' for Inactive)
REMARK                            x       y       z     vdW  Elec       q    Type
REMARK                         _______ _______ _______ _____ _____    ______ ____
ROOT
ATOM      1  C   UNL A   1     -10.392  -9.430  18.829  0.00  0.00    +0.030 A 
ATOM      2  C   UNL A   1      -9.788 -10.139  18.057  0.00  0.00    +0.140 A 
ATOM      3  C   UNL A   1      -8.529 -10.596  18.273  0.00  0.00    +0.030 A 
ATOM      4  C   UNL A   1      -7.880 -10.226  19.466  0.00  0.00    +0.002 A 
ATOM      5  C   UNL A   1      -9.826  -9.092  20.110  0.00  0.00    +0.002 A 
ATOM      6  C   UNL A   1      -8.552  -9.502  20.364  0.00  0.00    +0.000 A 
ATOM      7  F   UNL A   1     -10.349 -10.536  16.886  0.00  0.00    -0.204 F 
ENDROOT
TORSDOF 0
ENDMDL
ENDMDL
