MODEL 4688
MODEL 1
REMARK VINA RESULT:    -7.509      0.000      0.000
REMARK INTER + INTRA:          -9.996
REMARK INTER:                  -9.265
REMARK INTRA:                  -0.730
REMARK UNBOUND:                -0.730
REMARK  Name = No_4688-gen_results/8p0m/2024-11-27-11-27-31/
REMARK  4 active torsions:
REMARK  status: ('A' for Active; 'I' for Inactive)
REMARK    1  A    between atoms: C_3  and  C_8
REMARK    2  A    between atoms: C_5  and  O_7
REMARK    3  A    between atoms: O_7  and  C_14
REMARK    4  A    between atoms: C_16  and  C_17
REMARK                            x       y       z     vdW  Elec       q    Type
REMARK                         _______ _______ _______ _____ _____    ______ ____
ROOT
ATOM      1  C   UNL A   1     -29.083 -12.763  26.681  0.00  0.00    +0.037 A 
ATOM      2  C   UNL A   1     -28.911 -12.603  27.867  0.00  0.00    +0.003 A 
ATOM      3  C   UNL A   1     -29.398 -11.663  28.625  0.00  0.00    +0.000 A 
ATOM      4  C   UNL A   1     -30.230 -10.674  28.018  0.00  0.00    +0.003 A 
ATOM      5  C   UNL A   1     -30.010 -11.866  26.017  0.00  0.00    +0.145 A 
ATOM      6  C   UNL A   1     -30.539 -10.862  26.717  0.00  0.00    +0.037 A 
ENDROOT
BRANCH   3   7
ATOM      7  C   UNL A   1     -29.047 -11.511  30.100  0.00  0.00    +0.001 A 
ATOM      8  C   UNL A   1     -28.392 -11.860  30.797  0.00  0.00    +0.011 A 
ATOM      9  C   UNL A   1     -28.215 -11.608  32.262  0.00  0.00    +0.058 A 
ATOM     10  C   UNL A   1     -29.994 -10.434  30.788  0.00  0.00    +0.000 A 
ATOM     11  C   UNL A   1     -29.691  -9.865  32.001  0.00  0.00    +0.001 A 
ATOM     12  C   UNL A   1     -28.789 -10.553  32.782  0.00  0.00    +0.011 A 
ATOM     13 CL   UNL A   1     -26.923 -12.394  33.154  0.00  0.00    -0.082 Cl
ENDBRANCH   3   7
BRANCH   5  14
ATOM     14  O   UNL A   1     -30.268 -12.127  24.704  0.00  0.00    -0.450 OA
BRANCH  14  15
ATOM     15  C   UNL A   1     -31.165 -13.062  24.412  0.00  0.00    +0.179 C 
ATOM     16  C   UNL A   1     -31.186 -13.525  23.266  0.00  0.00    +0.041 C 
BRANCH  16  17
ATOM     17  C   UNL A   1     -30.276 -13.124  22.312  0.00  0.00    +0.003 A 
ATOM     18  C   UNL A   1     -30.484 -12.091  21.397  0.00  0.00    +0.000 A 
ATOM     19  C   UNL A   1     -29.563 -11.829  20.316  0.00  0.00    +0.000 A 
ATOM     20  C   UNL A   1     -28.366 -12.642  20.188  0.00  0.00    +0.000 A 
ATOM     21  C   UNL A   1     -28.218 -13.678  21.100  0.00  0.00    +0.000 A 
ATOM     22  C   UNL A   1     -29.119 -13.938  22.000  0.00  0.00    +0.000 A 
ENDBRANCH  16  17
ENDBRANCH  14  15
ENDBRANCH   5  14
TORSDOF 4
ENDMDL
ENDMDL
