REMARK  Name = No_4688-gen_results/8p0m/2024-11-27-11-27-31/
REMARK  4 active torsions:
REMARK  status: ('A' for Active; 'I' for Inactive)
REMARK    1  A    between atoms: C_3  and  C_8
REMARK    2  A    between atoms: C_5  and  O_7
REMARK    3  A    between atoms: O_7  and  C_14
REMARK    4  A    between atoms: C_16  and  C_17
REMARK                            x       y       z     vdW  Elec       q    Type
REMARK                         _______ _______ _______ _____ _____    ______ ____
ROOT
ATOM      1  C   UNL A   1     -28.016  -0.814  28.878  0.00  0.00    +0.037 A 
ATOM      2  C   UNL A   1     -27.064  -0.119  28.608  0.00  0.00    +0.003 A 
ATOM      3  C   UNL A   1     -26.876   1.133  28.913  0.00  0.00    +0.000 A 
ATOM      4  C   UNL A   1     -27.901   1.807  29.644  0.00  0.00    +0.003 A 
ATOM      5  C   UNL A   1     -29.046  -0.232  29.718  0.00  0.00    +0.145 A 
ATOM      6  C   UNL A   1     -28.940   1.052  30.060  0.00  0.00    +0.037 A 
ENDROOT
BRANCH   3   7
ATOM      7  C   UNL A   1     -25.668   1.936  28.448  0.00  0.00    +0.001 A 
ATOM      8  C   UNL A   1     -24.830   1.845  27.877  0.00  0.00    +0.011 A 
ATOM      9  C   UNL A   1     -23.699   2.770  27.552  0.00  0.00    +0.058 A 
ATOM     10  C   UNL A   1     -25.735   3.420  29.016  0.00  0.00    +0.000 A 
ATOM     11  C   UNL A   1     -24.971   4.436  28.496  0.00  0.00    +0.001 A 
ATOM     12  C   UNL A   1     -23.861   4.049  27.778  0.00  0.00    +0.011 A 
ATOM     13 CL   UNL A   1     -22.406   2.258  26.480  0.00  0.00    -0.082 Cl
ENDBRANCH   3   7
BRANCH   5  14
ATOM     14  O   UNL A   1     -30.059  -1.063  30.095  0.00  0.00    -0.450 OA
BRANCH  14  15
ATOM     15  C   UNL A   1     -30.437  -1.058  31.369  0.00  0.00    +0.179 C 
ATOM     16  C   UNL A   1     -31.125  -1.997  31.785  0.00  0.00    +0.041 C 
BRANCH  16  17
ATOM     17  C   UNL A   1     -31.463  -3.056  30.972  0.00  0.00    +0.003 A 
ATOM     18  C   UNL A   1     -31.970  -4.276  31.422  0.00  0.00    +0.000 A 
ATOM     19  C   UNL A   1     -32.146  -5.404  30.538  0.00  0.00    +0.000 A 
ATOM     20  C   UNL A   1     -31.817  -5.264  29.130  0.00  0.00    +0.000 A 
ATOM     21  C   UNL A   1     -31.285  -4.044  28.735  0.00  0.00    +0.000 A 
ATOM     22  C   UNL A   1     -31.054  -3.086  29.582  0.00  0.00    +0.000 A 
ENDBRANCH  16  17
ENDBRANCH  14  15
ENDBRANCH   5  14
TORSDOF 4
