MODEL 4689
MODEL 1
REMARK VINA RESULT:    -5.125      0.000      0.000
REMARK INTER + INTRA:          -5.851
REMARK INTER:                  -5.725
REMARK INTRA:                  -0.126
REMARK UNBOUND:                -0.126
REMARK  Name = No_4689-gen_results/8p0m/2024-11-27-11-27-31/
REMARK  2 active torsions:
REMARK  status: ('A' for Active; 'I' for Inactive)
REMARK    1  A    between atoms: C_2  and  C_8
REMARK    2  A    between atoms: N_9  and  C_11
REMARK                            x       y       z     vdW  Elec       q    Type
REMARK                         _______ _______ _______ _____ _____    ______ ____
ROOT
ATOM      1  C   UNL A   1     -24.527  -0.661  28.012  0.00  0.00    +0.008 A 
ATOM      2  C   UNL A   1     -23.893  -1.424  28.702  0.00  0.00    +0.055 A 
ATOM      3  C   UNL A   1     -22.609  -1.169  29.144  0.00  0.00    +0.008 A 
ATOM      4  C   UNL A   1     -22.020   0.079  28.797  0.00  0.00    +0.042 A 
ATOM      5  C   UNL A   1     -22.829   0.966  28.171  0.00  0.00    +0.196 A 
ATOM      6  C   UNL A   1     -24.062   0.649  27.822  0.00  0.00    +0.042 A 
ATOM      7  O   UNL A   1     -22.286   2.181  27.886  0.00  0.00    -0.287 OA
ENDROOT
BRANCH   2   8
ATOM      8  C   UNL A   1     -24.391  -2.862  29.016  0.00  0.00    +0.265 C 
ATOM      9  N   UNL A   1     -25.419  -3.163  29.351  0.00  0.00    -0.202 NA
ATOM     10  O   UNL A   1     -23.664  -3.898  28.541  0.00  0.00    -0.268 OA
BRANCH   9  11
ATOM     11  C   UNL A   1     -25.988  -4.492  29.617  0.00  0.00    +0.116 C 
ATOM     12  C   UNL A   1     -27.373  -4.525  30.003  0.00  0.00    +0.025 C 
ENDBRANCH   9  11
ENDBRANCH   2   8
TORSDOF 2
ENDMDL
ENDMDL
