MODEL 468
MODEL 1
REMARK VINA RESULT:    -5.635      0.000      0.000
REMARK INTER + INTRA:          -6.028
REMARK INTER:                  -5.965
REMARK INTRA:                  -0.064
REMARK UNBOUND:                -0.064
REMARK  Name = No_468-gen_results/8p0m/2024-11-27-11-27-31/
REMARK  1 active torsions:
REMARK  status: ('A' for Active; 'I' for Inactive)
REMARK    1  A    between atoms: C_6  and  C_8
REMARK                            x       y       z     vdW  Elec       q    Type
REMARK                         _______ _______ _______ _____ _____    ______ ____
ROOT
ATOM      1  C   UNL A   1     -24.210  -3.984  28.620  0.00  0.00    +0.034 A 
ATOM      2  C   UNL A   1     -24.909  -4.926  28.913  0.00  0.00    +0.140 A 
ATOM      3  C   UNL A   1     -26.106  -4.747  29.597  0.00  0.00    +0.030 A 
ATOM      4  C   UNL A   1     -26.529  -3.437  30.020  0.00  0.00    +0.003 A 
ATOM      5  C   UNL A   1     -25.649  -2.407  29.661  0.00  0.00    +0.005 A 
ATOM      6  C   UNL A   1     -24.520  -2.631  29.028  0.00  0.00    +0.057 A 
ATOM      7  F   UNL A   1     -24.606  -6.195  28.637  0.00  0.00    -0.204 F 
ENDROOT
BRANCH   6   8
ATOM      8  C   UNL A   1     -23.663  -1.446  28.758  0.00  0.00    +0.265 C 
ATOM      9  O   UNL A   1     -24.057  -0.436  28.188  0.00  0.00    -0.268 OA
ATOM     10  N   UNL A   1     -22.386  -1.496  29.200  0.00  0.00    -0.200 NA
ATOM     11  C   UNL A   1     -21.468  -0.386  28.951  0.00  0.00    +0.139 C 
ENDBRANCH   6   8
TORSDOF 1
ENDMDL
ENDMDL
