MODEL 4690
MODEL 1
REMARK VINA RESULT:    -6.277      0.000      0.000
REMARK INTER + INTRA:          -6.664
REMARK INTER:                  -7.011
REMARK INTRA:                   0.347
REMARK UNBOUND:                 0.347
REMARK  Name = No_4690-gen_results/8p0m/2024-11-27-11-27-31/
REMARK  2 active torsions:
REMARK  status: ('A' for Active; 'I' for Inactive)
REMARK    1  A    between atoms: C_2  and  C_7
REMARK    2  A    between atoms: C_4  and  S_15
REMARK                            x       y       z     vdW  Elec       q    Type
REMARK                         _______ _______ _______ _____ _____    ______ ____
ROOT
ATOM      1  C   UNL A   1     -24.847  -0.805  30.196  0.00  0.00    +0.006 A 
ATOM      2  C   UNL A   1     -24.165  -1.295  29.560  0.00  0.00    +0.054 A 
ATOM      3  C   UNL A   1     -26.111  -1.505  30.473  0.00  0.00    +0.020 A 
ATOM      4  C   UNL A   1     -26.319  -2.837  30.009  0.00  0.00    +0.129 A 
ATOM      5  C   UNL A   1     -24.113  -2.675  29.004  0.00  0.00    +0.006 A 
ATOM      6  C   UNL A   1     -25.273  -3.353  29.232  0.00  0.00    +0.020 A 
ENDROOT
BRANCH   2   7
ATOM      7  C   UNL A   1     -22.775  -0.578  29.252  0.00  0.00    +0.249 C 
ATOM      8  O   UNL A   1     -21.838  -0.682  29.847  0.00  0.00    -0.270 OA
ATOM      9  N   UNL A   1     -22.899   0.326  28.199  0.00  0.00    -0.276 N 
ATOM     10  C   UNL A   1     -21.789   1.159  27.882  0.00  0.00    +0.094 C 
ATOM     11  C   UNL A   1     -21.898   1.821  26.966  0.00  0.00    +0.022 C 
ATOM     12  C   UNL A   1     -23.154   1.951  26.183  0.00  0.00    +0.004 C 
ATOM     13  C   UNL A   1     -24.258   1.165  26.582  0.00  0.00    +0.022 C 
ATOM     14  C   UNL A   1     -24.134   0.329  27.527  0.00  0.00    +0.094 C 
ENDBRANCH   2   7
BRANCH   4  15
ATOM     15  S   UNL A   1     -27.714  -3.730  30.394  0.00  0.00    +0.121 S 
ATOM     16  O   UNL A   1     -27.887  -4.618  29.657  0.00  0.00    -0.147 OA
ATOM     17  O   UNL A   1     -28.771  -2.660  30.176  0.00  0.00    -0.147 OA
ENDBRANCH   4  15
TORSDOF 2
ENDMDL
ENDMDL
