REMARK  Name = outputs/IAG933/test6/raw/output_4690_IAG933_linker_design_.xyz
REMARK  7 active torsions:
REMARK  status: ('A' for Active; 'I' for Inactive)
REMARK    1  A    between atoms: C_1  and  C_2
REMARK    2  A    between atoms: C_13  and  N_42
REMARK    3  A    between atoms: C_14  and  C_15
REMARK    4  A    between atoms: C_21  and  O_22
REMARK    5  A    between atoms: O_22  and  C_23
REMARK    6  A    between atoms: C_23  and  C_24
REMARK    7  A    between atoms: C_33  and  C_34
REMARK                            x       y       z     vdW  Elec       q    Type
REMARK                         _______ _______ _______ _____ _____    ______ ____
ROOT
ATOM      1  C   UNL A   1     -24.855  -1.012  30.143  0.00  0.00    +0.053 C 
ATOM      2  C   UNL A   1     -25.387  -0.679  31.571  0.00  0.00    +0.079 C 
ATOM      3  C   UNL A   1     -25.189   0.773  32.028  0.00  0.00    +0.033 C 
ATOM      4  C   UNL A   1     -25.336   0.684  33.544  0.00  0.00    +0.021 C 
ATOM      5  C   UNL A   1     -24.829  -0.715  33.905  0.00  0.00    +0.089 C 
ATOM      6  N   UNL A   1     -24.758  -1.481  32.646  0.00  0.00    -0.219 NA
ATOM      7  O   UNL A   1     -23.417   1.988  25.163  0.00  0.00    -0.226 OA
ATOM      8  N   UNL A   1     -24.043   1.491  29.894  0.00  0.00    -0.260 NA
ATOM      9  C   UNL A   1     -24.692   1.862  31.211  0.00  0.00    +0.065 C 
ATOM     10  C   UNL A   1     -22.685   0.592  28.712  0.00  0.00    +0.093 C 
ATOM     11  C   UNL A   1     -21.566   1.603  28.183  0.00  0.00    +0.214 C 
ATOM     12  C   UNL A   1     -23.910   1.427  28.408  0.00  0.00    +0.148 C 
ATOM     13  C   UNL A   1     -23.229   1.605  26.365  0.00  0.00    +0.410 C 
ATOM     14  N   UNL A   1     -24.440   1.211  27.052  0.00  0.00    -0.210 N 
ATOM     15  O   UNL A   1     -21.794   1.641  26.757  0.00  0.00    -0.434 OA
ATOM     16  C   UNL A   1     -23.512  -0.017  29.932  0.00  0.00    +0.071 C 
ENDROOT
BRANCH  14  17
ATOM     17  C   UNL A   1     -25.688   1.614  26.461  0.00  0.00    +0.096 C 
ATOM     18  C   UNL A   1     -26.250   2.920  26.395  0.00  0.00    +0.090 C 
ATOM     19  C   UNL A   1     -27.438   3.091  25.645  0.00  0.00    +0.108 C 
ATOM     20  N   UNL A   1     -28.075   2.089  25.003  0.00  0.00    -0.208 NA
ATOM     21  C   UNL A   1     -27.543   0.849  25.079  0.00  0.00    +0.255 C 
ATOM     22  C   UNL A   1     -26.354   0.576  25.777  0.00  0.00    +0.207 C 
ATOM     23  F   UNL A   1     -25.860  -0.681  25.795  0.00  0.00    -0.198 F 
BRANCH  18  24
ATOM     24  C   UNL A   1     -25.642   4.093  27.123  0.00  0.00    +0.268 C 
ATOM     25  N   UNL A   1     -25.614   5.252  26.449  0.00  0.00    -0.200 NA
ATOM     26  C   UNL A   1     -25.026   6.479  26.963  0.00  0.00    +0.139 C 
ATOM     27  O   UNL A   1     -25.143   3.966  28.243  0.00  0.00    -0.268 OA
ENDBRANCH  18  24
BRANCH  21  28
ATOM     28  O   UNL A   1     -28.193  -0.208  24.477  0.00  0.00    -0.456 OA
BRANCH  28  29
ATOM     29  C   UNL A   1     -29.460   0.005  23.866  0.00  0.00    +0.243 C 
BRANCH  29  30
ATOM     30  C   UNL A   1     -30.065  -1.377  23.573  0.00  0.00    +0.229 C 
ATOM     31  O   UNL A   1     -30.729  -1.878  24.721  0.00  0.00    -0.216 OA
ENDBRANCH  29  30
ENDBRANCH  28  29
ENDBRANCH  21  28
ENDBRANCH  14  17
BRANCH   9  35
ATOM     32  C   UNL A   1     -25.264   5.663  33.387  0.00  0.00    +0.145 C 
ATOM     33  O   UNL A   1     -25.416   4.274  33.659  0.00  0.00    -0.354 OA
ATOM     34  C   UNL A   1     -24.618   4.641  31.180  0.00  0.00    +0.158 C 
ATOM     35  C   UNL A   1     -24.758   3.297  31.710  0.00  0.00    +0.075 C 
ATOM     36  C   UNL A   1     -25.867   3.663  32.529  0.00  0.00    +0.146 C 
ATOM     37  C   UNL A   1     -24.308   5.717  32.219  0.00  0.00    +0.065 C 
ATOM     38  O   UNL A   1     -25.580   4.998  30.266  0.00  0.00    -0.223 OA
ENDBRANCH   9  35
BRANCH   1  39
ATOM     39  C   UNL A   1     -24.973  -2.505  29.788  0.00  0.00    -0.020 C 
ATOM     40  C   UNL A   1     -23.906  -3.173  29.146  0.00  0.00    -0.004 C 
ATOM     41  C   UNL A   1     -23.989  -4.549  28.853  0.00  0.00    -0.000 C 
ATOM     42  C   UNL A   1     -25.137  -5.280  29.205  0.00  0.00    -0.000 C 
ATOM     43  C   UNL A   1     -26.232  -4.611  29.784  0.00  0.00    -0.000 C 
ATOM     44  C   UNL A   1     -26.155  -3.232  30.065  0.00  0.00    -0.004 C 
ENDBRANCH   1  39
TORSDOF 7
