REMARK  Name = outputs/IAG933/test6/raw/output_4691_IAG933_linker_design_.xyz
REMARK  11 active torsions:
REMARK  status: ('A' for Active; 'I' for Inactive)
REMARK    1  A    between atoms: C_1  and  C_2
REMARK    2  A    between atoms: C_1  and  C_8
REMARK    3  A    between atoms: C_1  and  C_40
REMARK    4  A    between atoms: C_13  and  C_34
REMARK    5  A    between atoms: C_14  and  C_15
REMARK    6  A    between atoms: C_21  and  O_22
REMARK    7  A    between atoms: O_22  and  C_23
REMARK    8  A    between atoms: C_23  and  C_24
REMARK    9  A    between atoms: N_29  and  C_36
REMARK   10  A    between atoms: C_30  and  N_31
REMARK   11  A    between atoms: C_36  and  C_38
REMARK                            x       y       z     vdW  Elec       q    Type
REMARK                         _______ _______ _______ _____ _____    ______ ____
ROOT
ATOM      1  C   UNL A   1     -24.862   0.598  28.543  0.00  0.00    +0.058 C 
ATOM      2  C   UNL A   1     -21.622   0.708  28.645  0.00  0.00    -0.003 C 
ATOM      3  C   UNL A   1     -21.882   1.196  27.306  0.00  0.00    +0.011 C 
ATOM      4  C   UNL A   1     -24.488   1.367  27.172  0.00  0.00    +0.025 C 
ATOM      5  C   UNL A   1     -23.142   1.608  26.694  0.00  0.00    +0.059 C 
ATOM      6  C   UNL A   1     -24.082   0.003  29.319  0.00  0.00    +0.065 C 
ATOM      7 CL   UNL A   1     -22.924   2.620  25.345  0.00  0.00    -0.082 Cl
ATOM      8  C   UNL A   1     -22.614   0.305  29.546  0.00  0.00    -0.020 C 
ENDROOT
BRANCH   4   9
ATOM      9  C   UNL A   1     -25.688   1.614  26.461  0.00  0.00    +0.040 C 
ATOM     10  C   UNL A   1     -26.250   2.920  26.395  0.00  0.00    +0.077 C 
ATOM     11  C   UNL A   1     -27.438   3.091  25.645  0.00  0.00    +0.107 C 
ATOM     12  N   UNL A   1     -28.075   2.089  25.003  0.00  0.00    -0.208 NA
ATOM     13  C   UNL A   1     -27.543   0.849  25.079  0.00  0.00    +0.253 C 
ATOM     14  C   UNL A   1     -26.354   0.576  25.777  0.00  0.00    +0.193 C 
ATOM     15  F   UNL A   1     -25.860  -0.681  25.795  0.00  0.00    -0.199 F 
BRANCH  10  16
ATOM     16  C   UNL A   1     -25.642   4.093  27.123  0.00  0.00    +0.266 C 
ATOM     17  N   UNL A   1     -25.614   5.252  26.449  0.00  0.00    -0.200 NA
ATOM     18  C   UNL A   1     -25.026   6.479  26.963  0.00  0.00    +0.139 C 
ATOM     19  O   UNL A   1     -25.143   3.966  28.243  0.00  0.00    -0.268 OA
ENDBRANCH  10  16
BRANCH  13  20
ATOM     20  O   UNL A   1     -28.193  -0.208  24.477  0.00  0.00    -0.456 OA
BRANCH  20  21
ATOM     21  C   UNL A   1     -29.460   0.005  23.866  0.00  0.00    +0.243 C 
BRANCH  21  22
ATOM     22  C   UNL A   1     -30.065  -1.377  23.573  0.00  0.00    +0.229 C 
ATOM     23  O   UNL A   1     -30.729  -1.878  24.721  0.00  0.00    -0.216 OA
ENDBRANCH  21  22
ENDBRANCH  20  21
ENDBRANCH  13  20
ENDBRANCH   4   9
BRANCH   1  26
ATOM     24  O   UNL A   1     -28.106  -0.358  28.047  0.00  0.00    -0.249 OA
ATOM     25  N   UNL A   1     -28.077   1.362  29.334  0.00  0.00    -0.184 NA
ATOM     26  N   UNL A   1     -26.209   0.637  28.932  0.00  0.00    -0.165 NA
ATOM     27  C   UNL A   1     -27.477   0.492  28.736  0.00  0.00    +0.343 C 
BRANCH  25  28
ATOM     28  C   UNL A   1     -28.941   2.169  30.129  0.00  0.00    +0.152 C 
BRANCH  28  30
ATOM     29  C   UNL A   1     -30.335   4.128  29.717  0.00  0.00    +0.040 C 
ATOM     30  C   UNL A   1     -28.962   3.557  29.418  0.00  0.00    +0.183 C 
ATOM     31  F   UNL A   1     -28.128   4.388  30.286  0.00  0.00    -0.235 F 
ENDBRANCH  28  30
ENDBRANCH  25  28
ENDBRANCH   1  26
BRANCH   6  32
ATOM     32  C   UNL A   1     -24.855  -1.012  30.143  0.00  0.00    +0.048 C 
BRANCH  32  33
ATOM     33  C   UNL A   1     -24.973  -2.505  29.788  0.00  0.00    -0.021 C 
ATOM     34  C   UNL A   1     -23.906  -3.173  29.146  0.00  0.00    -0.004 C 
ATOM     35  C   UNL A   1     -23.989  -4.549  28.853  0.00  0.00    -0.000 C 
ATOM     36  C   UNL A   1     -25.137  -5.280  29.205  0.00  0.00    -0.000 C 
ATOM     37  C   UNL A   1     -26.232  -4.611  29.784  0.00  0.00    -0.000 C 
ATOM     38  C   UNL A   1     -26.155  -3.232  30.065  0.00  0.00    -0.004 C 
ENDBRANCH  32  33
BRANCH  32  39
ATOM     39  C   UNL A   1     -25.387  -0.679  31.571  0.00  0.00    +0.077 C 
ATOM     40  C   UNL A   1     -25.189   0.773  32.028  0.00  0.00    +0.019 C 
ATOM     41  C   UNL A   1     -25.336   0.684  33.544  0.00  0.00    +0.020 C 
ATOM     42  C   UNL A   1     -24.829  -0.715  33.905  0.00  0.00    +0.089 C 
ATOM     43  N   UNL A   1     -24.758  -1.481  32.646  0.00  0.00    -0.219 NA
ENDBRANCH  32  39
ENDBRANCH   6  32
TORSDOF 11
