MODEL 4691
MODEL 1
REMARK VINA RESULT:    -4.977      0.000      0.000
REMARK INTER + INTRA:          -5.303
REMARK INTER:                  -5.268
REMARK INTRA:                  -0.036
REMARK UNBOUND:                -0.036
REMARK  Name = No_4691-gen_results/8p0m/2024-11-27-11-27-31/
REMARK  1 active torsions:
REMARK  status: ('A' for Active; 'I' for Inactive)
REMARK    1  A    between atoms: C_3  and  C_7
REMARK                            x       y       z     vdW  Elec       q    Type
REMARK                         _______ _______ _______ _____ _____    ______ ____
ROOT
ATOM      1  C   UNL A   1     -26.441  -3.508  29.976  0.00  0.00    +0.000 A 
ATOM      2  C   UNL A   1     -25.636  -2.617  29.831  0.00  0.00    +0.000 A 
ATOM      3  C   UNL A   1     -24.394  -2.791  29.222  0.00  0.00    +0.001 A 
ATOM      4  C   UNL A   1     -24.002  -4.117  28.784  0.00  0.00    +0.000 A 
ATOM      5  C   UNL A   1     -24.952  -5.117  28.989  0.00  0.00    +0.000 A 
ATOM      6  C   UNL A   1     -26.101  -4.866  29.584  0.00  0.00    +0.000 A 
ENDROOT
BRANCH   3   7
ATOM      7  C   UNL A   1     -23.346  -1.744  28.999  0.00  0.00    +0.019 C 
ATOM      8  C   UNL A   1     -22.807  -1.042  29.985  0.00  0.00    +0.106 C 
ATOM      9  N   UNL A   1     -21.904  -0.072  29.583  0.00  0.00    -0.127 NA
ENDBRANCH   3   7
TORSDOF 1
ENDMDL
ENDMDL
