MODEL 4692
MODEL 1
REMARK VINA RESULT:    -5.822      0.000      0.000
REMARK INTER + INTRA:         -13.255
REMARK INTER:                  -8.205
REMARK INTRA:                  -5.050
REMARK UNBOUND:                -5.050
REMARK  Name = No_4692-gen_results/8p0m/2024-11-27-11-27-31/
REMARK  7 active torsions:
REMARK  status: ('A' for Active; 'I' for Inactive)
REMARK    1  A    between atoms: C_3  and  C_8
REMARK    2  A    between atoms: C_6  and  O_7
REMARK    3  A    between atoms: O_7  and  C_14
REMARK    4  A    between atoms: C_14  and  C_15
REMARK    5  A    between atoms: C_15  and  C_16
REMARK    6  A    between atoms: C_21  and  C_22
REMARK    7  A    between atoms: C_23  and  C_24
REMARK                            x       y       z     vdW  Elec       q    Type
REMARK                         _______ _______ _______ _____ _____    ______ ____
ROOT
ATOM      1  C   UNL A   1      -3.114  -0.218   9.244  0.00  0.00    +0.074 C 
ENDROOT
BRANCH   1   2
ATOM      2  C   UNL A   1      -2.521  -0.153  10.557  0.00  0.00    -0.018 A 
ATOM      3  C   UNL A   1      -1.669  -1.162  10.895  0.00  0.00    -0.004 A 
ATOM      4  C   UNL A   1      -1.124  -1.042  12.237  0.00  0.00    -0.000 A 
ATOM      5  C   UNL A   1      -1.508  -0.528  13.079  0.00  0.00    -0.000 A 
ATOM      6  C   UNL A   1      -2.615   0.495  12.873  0.00  0.00    -0.000 A 
ATOM      7  C   UNL A   1      -3.135   0.608  11.575  0.00  0.00    -0.004 A 
BRANCH   7   8
ATOM      8  C   UNL A   1      -4.190   1.518  11.341  0.00  0.00    -0.000 C 
ATOM      9  C   UNL A   1      -4.985   1.960  12.339  0.00  0.00    -0.000 C 
BRANCH   9  10
ATOM     10  C   UNL A   1      -5.941   2.976  12.145  0.00  0.00    -0.000 A 
ATOM     11  C   UNL A   1      -6.621   3.549  13.211  0.00  0.00    -0.000 A 
ATOM     12  C   UNL A   1      -7.322   4.685  13.092  0.00  0.00    +0.000 A 
ATOM     13  C   UNL A   1      -7.416   5.290  11.791  0.00  0.00    +0.000 A 
ATOM     14  C   UNL A   1      -6.699   4.787  10.770  0.00  0.00    +0.000 A 
ATOM     15  C   UNL A   1      -5.892   3.690  10.963  0.00  0.00    -0.000 A 
ENDBRANCH   9  10
ENDBRANCH   7   8
ENDBRANCH   1   2
BRANCH   1  16
ATOM     16  C   UNL A   1      -3.599  -1.511   8.933  0.00  0.00    +0.210 C 
BRANCH  16  17
ATOM     17  O   UNL A   1      -4.887  -1.460   8.437  0.00  0.00    -0.475 OA
BRANCH  17  23
ATOM     18  C   UNL A   1      -6.397  -1.207  10.358  0.00  0.00    +0.037 A 
ATOM     19  C   UNL A   1      -7.260  -0.569  10.915  0.00  0.00    +0.003 A 
ATOM     20  C   UNL A   1      -7.883   0.544  10.351  0.00  0.00    +0.000 A 
ATOM     21  C   UNL A   1      -7.447   1.013   9.050  0.00  0.00    +0.003 A 
ATOM     22  C   UNL A   1      -6.430   0.224   8.465  0.00  0.00    +0.037 A 
ATOM     23  C   UNL A   1      -5.900  -0.804   9.077  0.00  0.00    +0.139 A 
BRANCH  20  24
ATOM     24  C   UNL A   1      -8.957   1.381  10.977  0.00  0.00    +0.000 A 
ATOM     25  C   UNL A   1      -9.487   2.399  10.314  0.00  0.00    +0.000 A 
ATOM     26  C   UNL A   1     -10.359   3.290  10.945  0.00  0.00    +0.000 A 
ATOM     27  C   UNL A   1     -10.747   3.152  12.278  0.00  0.00    +0.000 A 
ATOM     28  C   UNL A   1      -9.241   1.275  12.374  0.00  0.00    +0.000 A 
ATOM     29  C   UNL A   1     -10.179   2.144  13.012  0.00  0.00    +0.000 A 
ENDBRANCH  20  24
ENDBRANCH  17  23
ENDBRANCH  16  17
ENDBRANCH   1  16
TORSDOF 7
ENDMDL
ENDMDL
