MODEL 4693
MODEL 1
REMARK VINA RESULT:    -8.619      0.000      0.000
REMARK INTER + INTRA:          -9.367
REMARK INTER:                  -9.123
REMARK INTRA:                  -0.244
REMARK UNBOUND:                -0.244
REMARK  Name = No_4693-gen_results/8p0m/2024-11-27-11-27-31/
REMARK  1 active torsions:
REMARK  status: ('A' for Active; 'I' for Inactive)
REMARK    1  A    between atoms: C_4  and  C_11
REMARK                            x       y       z     vdW  Elec       q    Type
REMARK                         _______ _______ _______ _____ _____    ______ ____
ROOT
ATOM      1  C   UNL A   1     -23.877  -4.617  28.557  0.00  0.00    -0.000 A 
ATOM      2  C   UNL A   1     -23.908  -3.413  28.659  0.00  0.00    -0.000 A 
ATOM      3  C   UNL A   1     -24.974  -2.772  29.281  0.00  0.00    -0.004 A 
ATOM      4  C   UNL A   1     -25.133  -1.300  29.459  0.00  0.00    -0.022 A 
ATOM      5  C   UNL A   1     -26.253  -0.653  30.089  0.00  0.00    -0.004 A 
ATOM      6  C   UNL A   1     -25.056  -5.419  28.922  0.00  0.00    -0.000 A 
ATOM      7  C   UNL A   1     -26.114  -4.874  29.606  0.00  0.00    -0.000 A 
ATOM      8  C   UNL A   1     -26.161  -3.481  29.790  0.00  0.00    -0.000 A 
ATOM      9  C   UNL A   1     -27.198  -1.587  30.650  0.00  0.00    -0.000 A 
ATOM     10  C   UNL A   1     -27.202  -2.873  30.482  0.00  0.00    -0.000 A 
ENDROOT
BRANCH   4  11
ATOM     11  C   UNL A   1     -24.069  -0.368  28.992  0.00  0.00    +0.023 C 
ATOM     12  C   UNL A   1     -22.801  -0.734  29.111  0.00  0.00    +0.005 C 
ATOM     13  C   UNL A   1     -24.421   0.083  27.594  0.00  0.00    +0.026 C 
ATOM     14  C   UNL A   1     -23.473   0.878  26.930  0.00  0.00    -0.048 C 
ATOM     15  C   UNL A   1     -24.271   1.030  29.873  0.00  0.00    +0.005 C 
ATOM     16  C   UNL A   1     -23.861   1.711  25.918  0.00  0.00    -0.034 C 
ATOM     17  C   UNL A   1     -22.299   1.207  27.707  0.00  0.00    +0.022 C 
ATOM     18  C   UNL A   1     -21.812   0.316  28.721  0.00  0.00    +0.005 C 
ATOM     19  C   UNL A   1     -23.073   2.688  25.376  0.00  0.00    +0.030 C 
ENDBRANCH   4  11
TORSDOF 1
ENDMDL
ENDMDL
