REMARK  Name = outputs/IAG933/test6/raw/output_4693_IAG933_linker_design_.xyz
REMARK  12 active torsions:
REMARK  status: ('A' for Active; 'I' for Inactive)
REMARK    1  A    between atoms: C_1  and  C_2
REMARK    2  A    between atoms: C_1  and  C_8
REMARK    3  A    between atoms: C_1  and  C_28
REMARK    4  A    between atoms: C_13  and  C_42
REMARK    5  A    between atoms: C_14  and  C_15
REMARK    6  A    between atoms: C_21  and  O_22
REMARK    7  A    between atoms: O_22  and  C_23
REMARK    8  A    between atoms: C_23  and  C_24
REMARK    9  A    between atoms: C_28  and  N_29
REMARK   10  A    between atoms: C_28  and  O_33
REMARK   11  A    between atoms: O_33  and  C_39
REMARK   12  A    between atoms: C_43  and  O_44
REMARK                            x       y       z     vdW  Elec       q    Type
REMARK                         _______ _______ _______ _____ _____    ______ ____
ROOT
ATOM      1  C   UNL A   1     -25.369  -0.029  29.052  0.00  0.00    +0.237 C 
ENDROOT
BRANCH   1   2
ATOM      2  N   UNL A   1     -24.437   0.584  28.212  0.00  0.00    -0.237 NA
ATOM      3  C   UNL A   1     -22.169   1.984  27.052  0.00  0.00    +0.003 C 
ATOM      4  C   UNL A   1     -22.371   1.734  28.576  0.00  0.00    +0.018 C 
ATOM      5  C   UNL A   1     -23.305   1.856  26.156  0.00  0.00    +0.021 C 
ATOM      6  C   UNL A   1     -23.040   0.328  28.645  0.00  0.00    +0.076 C 
ATOM      7  C   UNL A   1     -24.580   1.194  27.059  0.00  0.00    +0.086 C 
BRANCH   7   8
ATOM      8  C   UNL A   1     -25.688   1.614  26.461  0.00  0.00    +0.030 C 
ATOM      9  C   UNL A   1     -26.250   2.920  26.395  0.00  0.00    +0.074 C 
ATOM     10  C   UNL A   1     -27.438   3.091  25.645  0.00  0.00    +0.106 C 
ATOM     11  N   UNL A   1     -28.075   2.089  25.003  0.00  0.00    -0.208 NA
ATOM     12  C   UNL A   1     -27.543   0.849  25.079  0.00  0.00    +0.253 C 
ATOM     13  C   UNL A   1     -26.354   0.576  25.777  0.00  0.00    +0.190 C 
ATOM     14  F   UNL A   1     -25.860  -0.681  25.795  0.00  0.00    -0.200 F 
BRANCH   9  15
ATOM     15  C   UNL A   1     -25.642   4.093  27.123  0.00  0.00    +0.266 C 
ATOM     16  N   UNL A   1     -25.614   5.252  26.449  0.00  0.00    -0.200 NA
ATOM     17  C   UNL A   1     -25.026   6.479  26.963  0.00  0.00    +0.139 C 
ATOM     18  O   UNL A   1     -25.143   3.966  28.243  0.00  0.00    -0.268 OA
ENDBRANCH   9  15
BRANCH  12  19
ATOM     19  O   UNL A   1     -28.193  -0.208  24.477  0.00  0.00    -0.456 OA
BRANCH  19  20
ATOM     20  C   UNL A   1     -29.460   0.005  23.866  0.00  0.00    +0.243 C 
BRANCH  20  21
ATOM     21  C   UNL A   1     -30.065  -1.377  23.573  0.00  0.00    +0.229 C 
ATOM     22  O   UNL A   1     -30.729  -1.878  24.721  0.00  0.00    -0.216 OA
ENDBRANCH  20  21
ENDBRANCH  19  20
ENDBRANCH  12  19
ENDBRANCH   7   8
ENDBRANCH   1   2
BRANCH   1  23
ATOM     23  C   UNL A   1     -24.855  -1.012  30.143  0.00  0.00    +0.095 C 
BRANCH  23  24
ATOM     24  C   UNL A   1     -24.973  -2.505  29.788  0.00  0.00    -0.016 C 
ATOM     25  C   UNL A   1     -23.906  -3.173  29.146  0.00  0.00    -0.004 C 
ATOM     26  C   UNL A   1     -23.989  -4.549  28.853  0.00  0.00    -0.000 C 
ATOM     27  C   UNL A   1     -25.137  -5.280  29.205  0.00  0.00    -0.000 C 
ATOM     28  C   UNL A   1     -26.232  -4.611  29.784  0.00  0.00    -0.000 C 
ATOM     29  C   UNL A   1     -26.155  -3.232  30.065  0.00  0.00    -0.004 C 
ENDBRANCH  23  24
BRANCH  23  30
ATOM     30  C   UNL A   1     -25.387  -0.679  31.571  0.00  0.00    +0.082 C 
ATOM     31  C   UNL A   1     -25.189   0.773  32.028  0.00  0.00    +0.019 C 
ATOM     32  C   UNL A   1     -25.336   0.684  33.544  0.00  0.00    +0.020 C 
ATOM     33  C   UNL A   1     -24.829  -0.715  33.905  0.00  0.00    +0.089 C 
ATOM     34  N   UNL A   1     -24.758  -1.481  32.646  0.00  0.00    -0.219 NA
ENDBRANCH  23  30
ENDBRANCH   1  23
BRANCH   1  35
ATOM     35  O   UNL A   1     -26.992  -0.360  28.874  0.00  0.00    -0.435 OA
BRANCH  35  41
ATOM     36  C   UNL A   1     -29.176   1.464  29.794  0.00  0.00    +0.115 C 
ATOM     37  O   UNL A   1     -29.232  -0.426  28.056  0.00  0.00    -0.420 OA
ATOM     38  C   UNL A   1     -30.999   0.932  27.615  0.00  0.00    +0.044 C 
ATOM     39  C   UNL A   1     -30.470  -0.313  28.101  0.00  0.00    +0.183 C 
ATOM     40  C   UNL A   1     -30.942   2.188  28.341  0.00  0.00    +0.040 C 
ATOM     41  C   UNL A   1     -28.514   0.444  28.867  0.00  0.00    +0.301 C 
ATOM     42  C   UNL A   1     -30.451   2.256  29.548  0.00  0.00    +0.145 C 
BRANCH  42  44
ATOM     43  C   UNL A   1     -32.846   3.162  29.996  0.00  0.00    +0.253 C 
ATOM     44  O   UNL A   1     -31.441   3.069  30.462  0.00  0.00    -0.471 OA
ENDBRANCH  42  44
ENDBRANCH  35  41
ENDBRANCH   1  35
TORSDOF 12
