MODEL 4696
MODEL 1
REMARK VINA RESULT:    -6.723      0.000      0.000
REMARK INTER + INTRA:          -8.393
REMARK INTER:                  -7.903
REMARK INTRA:                  -0.490
REMARK UNBOUND:                -0.490
REMARK  Name = No_4696-gen_results/8p0m/2024-11-27-11-27-31/
REMARK  3 active torsions:
REMARK  status: ('A' for Active; 'I' for Inactive)
REMARK    1  A    between atoms: C_2  and  O_7
REMARK    2  A    between atoms: O_7  and  C_8
REMARK    3  A    between atoms: C_8  and  C_9
REMARK                            x       y       z     vdW  Elec       q    Type
REMARK                         _______ _______ _______ _____ _____    ______ ____
ROOT
ATOM      1  O   UNL A   1     -23.821  -0.897  29.104  0.00  0.00    -0.471 OA
ENDROOT
BRANCH   1   3
ATOM      2  C   UNL A   1     -22.552   0.703  28.406  0.00  0.00    +0.037 A 
ATOM      3  C   UNL A   1     -23.406   0.137  28.160  0.00  0.00    +0.139 A 
ATOM      4  C   UNL A   1     -22.151   1.741  27.444  0.00  0.00    +0.003 A 
ATOM      5  C   UNL A   1     -22.972   2.042  26.318  0.00  0.00    +0.000 A 
ATOM      6  C   UNL A   1     -24.447   0.280  27.106  0.00  0.00    +0.037 A 
ATOM      7  C   UNL A   1     -24.105   1.228  26.188  0.00  0.00    +0.003 A 
ENDBRANCH   1   3
BRANCH   1   8
ATOM      8  C   UNL A   1     -23.378  -2.156  28.936  0.00  0.00    +0.232 C 
BRANCH   8   9
ATOM      9  C   UNL A   1     -24.120  -2.984  29.062  0.00  0.00    +0.021 A 
ATOM     10  C   UNL A   1     -24.099  -4.086  28.890  0.00  0.00    -0.001 A 
ATOM     11  C   UNL A   1     -25.065  -5.199  29.084  0.00  0.00    -0.000 A 
ATOM     12  C   UNL A   1     -26.272  -4.723  29.605  0.00  0.00    -0.000 A 
ATOM     13  C   UNL A   1     -26.463  -3.444  29.921  0.00  0.00    -0.000 A 
ATOM     14  C   UNL A   1     -25.496  -2.576  29.702  0.00  0.00    -0.001 A 
ENDBRANCH   8   9
ENDBRANCH   1   8
TORSDOF 3
ENDMDL
ENDMDL
