REMARK  Name = outputs/IAG933/test6/raw/output_4696_IAG933_linker_design_.xyz
REMARK  13 active torsions:
REMARK  status: ('A' for Active; 'I' for Inactive)
REMARK    1  A    between atoms: C_1  and  C_2
REMARK    2  A    between atoms: C_1  and  C_8
REMARK    3  A    between atoms: C_1  and  O_28
REMARK    4  A    between atoms: C_9  and  C_40
REMARK    5  A    between atoms: C_13  and  C_43
REMARK    6  A    between atoms: C_14  and  C_15
REMARK    7  A    between atoms: C_21  and  O_22
REMARK    8  A    between atoms: O_22  and  C_23
REMARK    9  A    between atoms: C_23  and  C_24
REMARK   10  A    between atoms: O_28  and  C_32
REMARK   11  A    between atoms: O_30  and  C_33
REMARK   12  A    between atoms: O_30  and  C_36
REMARK   13  A    between atoms: C_33  and  C_43
REMARK                            x       y       z     vdW  Elec       q    Type
REMARK                         _______ _______ _______ _____ _____    ______ ____
ROOT
ATOM      1  C   UNL A   1     -21.400  -0.826  29.313  0.00  0.00    +0.037 C 
ATOM      2  C   UNL A   1     -22.564  -0.160  29.323  0.00  0.00    +0.139 C 
ATOM      3  C   UNL A   1     -23.427   1.461  27.556  0.00  0.00    +0.127 C 
ATOM      4  F   UNL A   1     -20.466   1.947  27.387  0.00  0.00    -0.233 F 
ATOM      5  C   UNL A   1     -20.530   0.085  28.682  0.00  0.00    +0.043 C 
ATOM      6  C   UNL A   1     -22.514   0.836  28.425  0.00  0.00    +0.045 C 
ATOM      7  C   UNL A   1     -21.090   0.937  28.174  0.00  0.00    +0.184 C 
ENDROOT
BRANCH   2   8
ATOM      8  O   UNL A   1     -23.531  -0.475  30.181  0.00  0.00    -0.349 OA
BRANCH   8   9
ATOM      9  C   UNL A   1     -24.855  -1.012  30.143  0.00  0.00    +0.154 C 
BRANCH   9  10
ATOM     10  C   UNL A   1     -24.973  -2.505  29.788  0.00  0.00    +0.006 C 
ATOM     11  C   UNL A   1     -23.906  -3.173  29.146  0.00  0.00    -0.002 C 
ATOM     12  C   UNL A   1     -23.989  -4.549  28.853  0.00  0.00    -0.000 C 
ATOM     13  C   UNL A   1     -25.137  -5.280  29.205  0.00  0.00    -0.000 C 
ATOM     14  C   UNL A   1     -26.232  -4.611  29.784  0.00  0.00    -0.000 C 
ATOM     15  C   UNL A   1     -26.155  -3.232  30.065  0.00  0.00    -0.002 C 
ENDBRANCH   9  10
BRANCH   9  16
ATOM     16  C   UNL A   1     -25.387  -0.679  31.571  0.00  0.00    +0.113 C 
ATOM     17  C   UNL A   1     -25.189   0.773  32.028  0.00  0.00    +0.100 C 
ATOM     18  C   UNL A   1     -25.336   0.684  33.544  0.00  0.00    +0.029 C 
ATOM     19  C   UNL A   1     -24.829  -0.715  33.905  0.00  0.00    +0.089 C 
ATOM     20  N   UNL A   1     -24.758  -1.481  32.646  0.00  0.00    -0.216 NA
BRANCH  17  22
ATOM     21  O   UNL A   1     -23.924   2.789  31.735  0.00  0.00    -0.272 OA
ATOM     22  C   UNL A   1     -24.575   1.927  31.280  0.00  0.00    +0.262 C 
ATOM     23  N   UNL A   1     -24.685   1.932  29.944  0.00  0.00    -0.088 NA
ENDBRANCH  17  22
ENDBRANCH   9  16
ENDBRANCH   8   9
ENDBRANCH   2   8
BRANCH   3  24
ATOM     24  O   UNL A   1     -23.099   2.188  26.601  0.00  0.00    -0.396 OA
BRANCH  24  26
ATOM     25  O   UNL A   1     -23.460   1.195  24.614  0.00  0.00    -0.200 OA
ATOM     26  C   UNL A   1     -22.539   1.669  25.464  0.00  0.00    +0.556 C 
ATOM     27  O   UNL A   1     -21.345   1.823  25.152  0.00  0.00    -0.200 OA
ENDBRANCH  24  26
ENDBRANCH   3  24
BRANCH   3  28
ATOM     28  C   UNL A   1     -24.866   1.136  27.483  0.00  0.00    +0.072 C 
BRANCH  28  29
ATOM     29  C   UNL A   1     -25.688   1.614  26.461  0.00  0.00    +0.078 C 
ATOM     30  C   UNL A   1     -26.250   2.920  26.395  0.00  0.00    +0.055 C 
ATOM     31  C   UNL A   1     -27.438   3.091  25.645  0.00  0.00    +0.102 C 
ATOM     32  N   UNL A   1     -28.075   2.089  25.003  0.00  0.00    -0.212 NA
ATOM     33  C   UNL A   1     -27.543   0.849  25.079  0.00  0.00    +0.234 C 
ATOM     34  C   UNL A   1     -26.354   0.576  25.777  0.00  0.00    +0.240 C 
ATOM     35  F   UNL A   1     -25.860  -0.681  25.795  0.00  0.00    -0.227 F 
BRANCH  30  36
ATOM     36  C   UNL A   1     -25.642   4.093  27.123  0.00  0.00    +0.263 C 
ATOM     37  N   UNL A   1     -25.614   5.252  26.449  0.00  0.00    -0.200 NA
ATOM     38  C   UNL A   1     -25.026   6.479  26.963  0.00  0.00    +0.139 C 
ATOM     39  O   UNL A   1     -25.143   3.966  28.243  0.00  0.00    -0.269 OA
ENDBRANCH  30  36
BRANCH  33  40
ATOM     40  O   UNL A   1     -28.193  -0.208  24.477  0.00  0.00    -0.459 OA
BRANCH  40  41
ATOM     41  C   UNL A   1     -29.460   0.005  23.866  0.00  0.00    +0.242 C 
BRANCH  41  42
ATOM     42  C   UNL A   1     -30.065  -1.377  23.573  0.00  0.00    +0.229 C 
ATOM     43  O   UNL A   1     -30.729  -1.878  24.721  0.00  0.00    -0.216 OA
ENDBRANCH  41  42
ENDBRANCH  40  41
ENDBRANCH  33  40
ENDBRANCH  28  29
ENDBRANCH   3  28
TORSDOF 13
