MODEL 4698
MODEL 1
REMARK VINA RESULT:    -5.029      0.000      0.000
REMARK INTER + INTRA:          -5.514
REMARK INTER:                  -5.323
REMARK INTRA:                  -0.190
REMARK UNBOUND:                -0.190
REMARK  Name = No_4698-gen_results/8p0m/2024-11-27-11-27-31/
REMARK  1 active torsions:
REMARK  status: ('A' for Active; 'I' for Inactive)
REMARK    1  A    between atoms: C_6  and  C_8
REMARK                            x       y       z     vdW  Elec       q    Type
REMARK                         _______ _______ _______ _____ _____    ______ ____
ROOT
ATOM      1  C   UNL A   1     -22.337   2.237  27.132  0.00  0.00    +0.007 A 
ATOM      2  C   UNL A   1     -21.943   1.434  27.690  0.00  0.00    +0.004 A 
ATOM      3  C   UNL A   1     -23.733   2.270  26.920  0.00  0.00    +0.035 A 
ATOM      4  C   UNL A   1     -24.570   1.286  27.408  0.00  0.00    +0.007 A 
ATOM      5  C   UNL A   1     -23.970   0.271  28.136  0.00  0.00    +0.004 A 
ATOM      6  C   UNL A   1     -22.608   0.300  28.348  0.00  0.00    +0.071 A 
ATOM      7 BR   UNL A   1     -24.581   3.667  25.963  0.00  0.00    -0.049 Br
ENDROOT
BRANCH   6   8
ATOM      8  C   UNL A   1     -21.925  -0.777  29.133  0.00  0.00    +0.419 C 
ATOM      9  F   UNL A   1     -20.907  -0.910  28.844  0.00  0.00    -0.166 F 
ATOM     10  F   UNL A   1     -22.068  -0.443  30.459  0.00  0.00    -0.166 F 
ATOM     11  F   UNL A   1     -22.656  -1.902  29.049  0.00  0.00    -0.166 F 
ENDBRANCH   6   8
TORSDOF 1
ENDMDL
ENDMDL
