MODEL 4699
MODEL 1
REMARK VINA RESULT:    -7.102      0.000      0.000
REMARK INTER + INTRA:          -9.682
REMARK INTER:                  -8.763
REMARK INTRA:                  -0.919
REMARK UNBOUND:                -0.919
REMARK  Name = No_4699-gen_results/8p0m/2024-11-27-11-27-31/
REMARK  4 active torsions:
REMARK  status: ('A' for Active; 'I' for Inactive)
REMARK    1  A    between atoms: C_3  and  C_8
REMARK    2  A    between atoms: C_6  and  O_7
REMARK    3  A    between atoms: O_7  and  C_14
REMARK    4  A    between atoms: C_14  and  C_15
REMARK                            x       y       z     vdW  Elec       q    Type
REMARK                         _______ _______ _______ _____ _____    ______ ____
ROOT
ATOM      1  C   UNL A   1     -25.349  -0.544  25.482  0.00  0.00    +0.037 A 
ATOM      2  C   UNL A   1     -26.202  -0.188  24.702  0.00  0.00    +0.003 A 
ATOM      3  C   UNL A   1     -27.345   0.473  25.141  0.00  0.00    +0.000 A 
ATOM      4  C   UNL A   1     -27.570   0.713  26.543  0.00  0.00    +0.003 A 
ATOM      5  C   UNL A   1     -26.545   0.247  27.376  0.00  0.00    +0.037 A 
ATOM      6  C   UNL A   1     -25.492  -0.387  26.913  0.00  0.00    +0.139 A 
ENDROOT
BRANCH   3   7
ATOM      7  C   UNL A   1     -28.401   0.808  24.138  0.00  0.00    +0.000 A 
ATOM      8  C   UNL A   1     -29.244  -0.172  23.759  0.00  0.00    +0.000 A 
ATOM      9  C   UNL A   1     -30.358   0.049  23.141  0.00  0.00    +0.000 A 
ATOM     10  C   UNL A   1     -30.811   1.372  22.840  0.00  0.00    +0.000 A 
ATOM     11  C   UNL A   1     -29.955   2.386  23.138  0.00  0.00    +0.000 A 
ATOM     12  C   UNL A   1     -28.809   2.120  23.914  0.00  0.00    +0.000 A 
ENDBRANCH   3   7
BRANCH   6  13
ATOM     13  O   UNL A   1     -24.559  -0.841  27.794  0.00  0.00    -0.471 OA
BRANCH  13  14
ATOM     14  C   UNL A   1     -24.859  -1.082  29.100  0.00  0.00    +0.232 C 
BRANCH  14  15
ATOM     15  C   UNL A   1     -24.793  -2.432  29.483  0.00  0.00    +0.021 A 
ATOM     16  C   UNL A   1     -23.864  -3.158  28.904  0.00  0.00    -0.001 A 
ATOM     17  C   UNL A   1     -24.134  -4.513  28.619  0.00  0.00    -0.000 A 
ATOM     18  C   UNL A   1     -25.270  -5.135  29.126  0.00  0.00    -0.000 A 
ATOM     19  C   UNL A   1     -26.258  -4.325  29.697  0.00  0.00    -0.000 A 
ATOM     20  C   UNL A   1     -26.039  -2.963  29.774  0.00  0.00    -0.001 A 
ENDBRANCH  14  15
ENDBRANCH  13  14
ENDBRANCH   6  13
TORSDOF 4
ENDMDL
ENDMDL
