MODEL 469
MODEL 1
REMARK VINA RESULT:    -7.155      0.000      0.000
REMARK INTER + INTRA:          -9.352
REMARK INTER:                  -8.828
REMARK INTRA:                  -0.524
REMARK UNBOUND:                -0.524
REMARK  Name = No_469-gen_results/8p0m/2024-11-27-11-27-31/
REMARK  4 active torsions:
REMARK  status: ('A' for Active; 'I' for Inactive)
REMARK    1  A    between atoms: N_1  and  C_11
REMARK    2  A    between atoms: C_5  and  C_8
REMARK    3  A    between atoms: C_11  and  C_13
REMARK    4  A    between atoms: N_16  and  C_24
REMARK                            x       y       z     vdW  Elec       q    Type
REMARK                         _______ _______ _______ _____ _____    ______ ____
ROOT
ATOM      1  C   UNL A   1     -23.729   1.433  26.901  0.00  0.00    +0.159 C 
ATOM      2  C   UNL A   1     -24.289   2.502  27.170  0.00  0.00    +0.238 C 
ATOM      3  O   UNL A   1     -23.787   3.362  27.728  0.00  0.00    -0.274 OA
ATOM      4  N   UNL A   1     -25.631   2.727  26.728  0.00  0.00    -0.259 N 
ATOM      5  C   UNL A   1     -26.347   1.812  25.960  0.00  0.00    +0.050 A 
ATOM      6  C   UNL A   1     -27.688   1.791  25.926  0.00  0.00    +0.015 A 
ATOM      7  C   UNL A   1     -28.385   0.827  25.200  0.00  0.00    +0.001 A 
ATOM      8  C   UNL A   1     -27.656  -0.182  24.497  0.00  0.00    -0.000 A 
ATOM      9  C   UNL A   1     -26.278  -0.192  24.569  0.00  0.00    -0.003 A 
ATOM     10  C   UNL A   1     -25.609   0.757  25.277  0.00  0.00    -0.007 A 
ATOM     11  C   UNL A   1     -24.664   0.321  26.112  0.00  0.00    +0.046 C 
ENDROOT
BRANCH   1  12
ATOM     12  C   UNL A   1     -22.949   0.829  27.944  0.00  0.00    +0.254 C 
ATOM     13  O   UNL A   1     -21.786   0.819  27.945  0.00  0.00    -0.273 OA
BRANCH  12  14
ATOM     14  N   UNL A   1     -23.487   0.577  29.181  0.00  0.00    -0.188 NA
ATOM     15  C   UNL A   1     -23.967  -0.559  29.193  0.00  0.00    +0.029 C 
ATOM     16  C   UNL A   1     -23.279  -1.711  29.088  0.00  0.00    +0.039 C 
ATOM     17  C   UNL A   1     -23.820  -3.070  29.089  0.00  0.00    +0.017 C 
ATOM     18  C   UNL A   1     -25.216  -3.178  29.275  0.00  0.00    +0.104 C 
ATOM     19  C   UNL A   1     -25.972  -1.988  29.406  0.00  0.00    +0.017 C 
ATOM     20  C   UNL A   1     -25.421  -0.916  29.379  0.00  0.00    +0.039 C 
BRANCH  18  21
ATOM     21  C   UNL A   1     -25.785  -4.543  29.277  0.00  0.00    +0.364 C 
ATOM     22  O   UNL A   1     -26.660  -4.739  29.973  0.00  0.00    -0.246 OA
ATOM     23  O   UNL A   1     -25.006  -5.544  28.958  0.00  0.00    -0.246 OA
ENDBRANCH  18  21
ENDBRANCH  12  14
ENDBRANCH   1  12
BRANCH   4  24
ATOM     24  C   UNL A   1     -26.309   4.005  27.009  0.00  0.00    +0.098 C 
ATOM     25  C   UNL A   1     -26.966   4.145  28.113  0.00  0.00    +0.024 C 
ENDBRANCH   4  24
TORSDOF 4
ENDMDL
ENDMDL
