MODEL 46
MODEL 1
REMARK VINA RESULT:    -4.275      0.000      0.000
REMARK INTER + INTRA:          -4.275
REMARK INTER:                  -4.275
REMARK INTRA:                   0.000
REMARK UNBOUND:                 0.000
REMARK  Name = No_46-gen_results/8p0m/2024-11-27-11-27-31/
REMARK  0 active torsions:
REMARK  status: ('A' for Active; 'I' for Inactive)
REMARK                            x       y       z     vdW  Elec       q    Type
REMARK                         _______ _______ _______ _____ _____    ______ ____
ROOT
ATOM      1  C   UNL A   1     -26.076  -4.820  29.658  0.00  0.00    +0.000 A 
ATOM      2  C   UNL A   1     -26.187  -3.616  29.686  0.00  0.00    +0.000 A 
ATOM      3  C   UNL A   1     -25.196  -2.747  29.273  0.00  0.00    +0.000 A 
ATOM      4  C   UNL A   1     -23.996  -3.305  28.750  0.00  0.00    +0.000 A 
ATOM      5  C   UNL A   1     -23.987  -4.647  28.581  0.00  0.00    +0.000 A 
ATOM      6  C   UNL A   1     -25.000  -5.399  28.969  0.00  0.00    +0.000 A 
ENDROOT
TORSDOF 0
ENDMDL
ENDMDL
