MODEL 4700
MODEL 1
REMARK VINA RESULT:    -6.667      0.000      0.000
REMARK INTER + INTRA:          -8.174
REMARK INTER:                  -7.836
REMARK INTRA:                  -0.339
REMARK UNBOUND:                -0.339
REMARK  Name = No_4700-gen_results/8p0m/2024-11-27-11-27-31/
REMARK  3 active torsions:
REMARK  status: ('A' for Active; 'I' for Inactive)
REMARK    1  A    between atoms: N_1  and  C_2
REMARK    2  A    between atoms: N_1  and  C_8
REMARK    3  A    between atoms: C_8  and  C_9
REMARK                            x       y       z     vdW  Elec       q    Type
REMARK                         _______ _______ _______ _____ _____    ______ ____
ROOT
ATOM      1  N   UNL A   1     -24.869  -1.249  29.374  0.00  0.00    -0.233 NA
ENDROOT
BRANCH   1   2
ATOM      2  C   UNL A   1     -24.987  -2.474  29.293  0.00  0.00    +0.066 A 
ATOM      3  C   UNL A   1     -23.984  -3.222  28.700  0.00  0.00    +0.016 A 
ATOM      4  C   UNL A   1     -24.014  -4.639  28.583  0.00  0.00    +0.001 A 
ATOM      5  C   UNL A   1     -25.165  -5.320  29.065  0.00  0.00    +0.000 A 
ATOM      6  C   UNL A   1     -26.180  -4.536  29.679  0.00  0.00    +0.001 A 
ATOM      7  C   UNL A   1     -26.077  -3.198  29.807  0.00  0.00    +0.016 A 
ENDBRANCH   1   2
BRANCH   1   8
ATOM      8  C   UNL A   1     -23.784  -0.684  28.674  0.00  0.00    +0.139 C 
BRANCH   8   9
ATOM      9  C   UNL A   1     -23.687   0.215  28.016  0.00  0.00    -0.001 A 
ATOM     10  C   UNL A   1     -22.474   1.044  28.166  0.00  0.00    -0.003 A 
ATOM     11  C   UNL A   1     -22.034   1.810  27.146  0.00  0.00    -0.000 A 
ATOM     12  C   UNL A   1     -22.858   2.080  26.072  0.00  0.00    -0.000 A 
ATOM     13  C   UNL A   1     -24.032   1.436  25.875  0.00  0.00    -0.000 A 
ATOM     14  C   UNL A   1     -24.384   0.422  26.771  0.00  0.00    -0.003 A 
ENDBRANCH   8   9
ENDBRANCH   1   8
TORSDOF 3
ENDMDL
ENDMDL
