REMARK  Name = outputs/IAG933/test6/raw/output_4701_IAG933_linker_design_.xyz
REMARK  14 active torsions:
REMARK  status: ('A' for Active; 'I' for Inactive)
REMARK    1  A    between atoms: C_1  and  C_2
REMARK    2  A    between atoms: C_1  and  C_8
REMARK    3  A    between atoms: C_1  and  O_32
REMARK    4  A    between atoms: C_13  and  N_38
REMARK    5  A    between atoms: C_14  and  C_15
REMARK    6  A    between atoms: C_21  and  O_22
REMARK    7  A    between atoms: O_22  and  C_23
REMARK    8  A    between atoms: C_23  and  C_24
REMARK    9  A    between atoms: C_30  and  C_35
REMARK   10  A    between atoms: C_30  and  N_38
REMARK   11  A    between atoms: O_32  and  C_39
REMARK   12  A    between atoms: C_33  and  C_41
REMARK   13  A    between atoms: C_34  and  C_39
REMARK   14  A    between atoms: N_38  and  C_39
REMARK                            x       y       z     vdW  Elec       q    Type
REMARK                         _______ _______ _______ _____ _____    ______ ____
ROOT
ATOM      1  C   UNL A   1     -25.517   0.435  28.502  0.00  0.00    +0.193 C 
ENDROOT
BRANCH   1   2
ATOM      2  C   UNL A   1     -26.974   0.213  28.598  0.00  0.00    +0.116 C 
ATOM      3  C   UNL A   1     -28.991   1.153  29.720  0.00  0.00    +0.100 C 
ATOM      4  N   UNL A   1     -27.442   1.040  29.786  0.00  0.00    -0.215 NA
ATOM      5  C   UNL A   1     -29.393  -0.060  28.935  0.00  0.00    +0.122 C 
ATOM      6  C   UNL A   1     -28.295  -0.312  27.969  0.00  0.00    +0.034 C 
BRANCH   5   8
ATOM      7  O   UNL A   1     -30.613  -0.830  30.697  0.00  0.00    -0.246 OA
ATOM      8  C   UNL A   1     -29.692  -1.143  29.900  0.00  0.00    +0.366 C 
ATOM      9  O   UNL A   1     -29.064  -2.247  29.848  0.00  0.00    -0.246 OA
ENDBRANCH   5   8
ENDBRANCH   1   2
BRANCH   1  10
ATOM     10  O   UNL A   1     -24.732  -0.031  29.218  0.00  0.00    -0.336 OA
BRANCH  10  11
ATOM     11  C   UNL A   1     -24.855  -1.012  30.143  0.00  0.00    +0.155 C 
BRANCH  11  12
ATOM     12  C   UNL A   1     -24.973  -2.505  29.788  0.00  0.00    +0.006 C 
ATOM     13  C   UNL A   1     -23.906  -3.173  29.146  0.00  0.00    -0.002 C 
ATOM     14  C   UNL A   1     -23.989  -4.549  28.853  0.00  0.00    -0.000 C 
ATOM     15  C   UNL A   1     -25.137  -5.280  29.205  0.00  0.00    -0.000 C 
ATOM     16  C   UNL A   1     -26.232  -4.611  29.784  0.00  0.00    -0.000 C 
ATOM     17  C   UNL A   1     -26.155  -3.232  30.065  0.00  0.00    -0.002 C 
ENDBRANCH  11  12
BRANCH  11  18
ATOM     18  C   UNL A   1     -25.387  -0.679  31.571  0.00  0.00    +0.104 C 
ATOM     19  C   UNL A   1     -25.189   0.773  32.028  0.00  0.00    +0.022 C 
ATOM     20  C   UNL A   1     -25.336   0.684  33.544  0.00  0.00    +0.020 C 
ATOM     21  C   UNL A   1     -24.829  -0.715  33.905  0.00  0.00    +0.089 C 
ATOM     22  N   UNL A   1     -24.758  -1.481  32.646  0.00  0.00    -0.217 NA
ENDBRANCH  11  18
ENDBRANCH  10  11
ENDBRANCH   1  10
BRANCH   1  23
ATOM     23  N   UNL A   1     -24.804   1.166  27.398  0.00  0.00    -0.246 NA
BRANCH  23  24
ATOM     24  C   UNL A   1     -25.688   1.614  26.461  0.00  0.00    +0.130 C 
ATOM     25  C   UNL A   1     -26.250   2.920  26.395  0.00  0.00    +0.070 C 
ATOM     26  C   UNL A   1     -27.438   3.091  25.645  0.00  0.00    +0.103 C 
ATOM     27  N   UNL A   1     -28.075   2.089  25.003  0.00  0.00    -0.212 NA
ATOM     28  C   UNL A   1     -27.543   0.849  25.079  0.00  0.00    +0.235 C 
ATOM     29  C   UNL A   1     -26.354   0.576  25.777  0.00  0.00    +0.255 C 
ATOM     30  F   UNL A   1     -25.860  -0.681  25.795  0.00  0.00    -0.225 F 
BRANCH  25  31
ATOM     31  C   UNL A   1     -25.642   4.093  27.123  0.00  0.00    +0.264 C 
ATOM     32  N   UNL A   1     -25.614   5.252  26.449  0.00  0.00    -0.200 NA
ATOM     33  C   UNL A   1     -25.026   6.479  26.963  0.00  0.00    +0.139 C 
ATOM     34  O   UNL A   1     -25.143   3.966  28.243  0.00  0.00    -0.269 OA
ENDBRANCH  25  31
BRANCH  28  35
ATOM     35  O   UNL A   1     -28.193  -0.208  24.477  0.00  0.00    -0.459 OA
BRANCH  35  36
ATOM     36  C   UNL A   1     -29.460   0.005  23.866  0.00  0.00    +0.242 C 
BRANCH  36  37
ATOM     37  C   UNL A   1     -30.065  -1.377  23.573  0.00  0.00    +0.229 C 
ATOM     38  O   UNL A   1     -30.729  -1.878  24.721  0.00  0.00    -0.216 OA
ENDBRANCH  36  37
ENDBRANCH  35  36
ENDBRANCH  28  35
ENDBRANCH  23  24
BRANCH  23  39
ATOM     39  C   UNL A   1     -23.356   1.633  27.069  0.00  0.00    +0.060 C 
ATOM     40  C   UNL A   1     -23.167   2.162  25.744  0.00  0.00    +0.017 C 
BRANCH  39  42
ATOM     41  C   UNL A   1     -21.115   1.604  27.626  0.00  0.00    +0.001 C 
ATOM     42  C   UNL A   1     -22.468   1.155  28.095  0.00  0.00    +0.016 C 
ENDBRANCH  39  42
ENDBRANCH  23  39
ENDBRANCH   1  23
TORSDOF 14
