MODEL 4702
MODEL 1
REMARK VINA RESULT:    -4.692      0.000      0.000
REMARK INTER + INTRA:          -5.330
REMARK INTER:                  -5.240
REMARK INTRA:                  -0.090
REMARK UNBOUND:                -0.090
REMARK  Name = No_4702-gen_results/8p0m/2024-11-27-11-27-31/
REMARK  2 active torsions:
REMARK  status: ('A' for Active; 'I' for Inactive)
REMARK    1  A    between atoms: C_1  and  C_2
REMARK    2  A    between atoms: C_5  and  C_9
REMARK                            x       y       z     vdW  Elec       q    Type
REMARK                         _______ _______ _______ _____ _____    ______ ____
ROOT
ATOM      1  C   UNL A   1     -29.461 -10.960  30.024  0.00  0.00    -0.006 A 
ATOM      2  C   UNL A   1     -28.500 -11.890  30.370  0.00  0.00    -0.003 A 
ATOM      3  C   UNL A   1     -27.879 -12.020  31.675  0.00  0.00    +0.001 A 
ATOM      4  C   UNL A   1     -28.258 -11.125  32.700  0.00  0.00    +0.021 A 
ATOM      5  C   UNL A   1     -29.269 -10.158  32.356  0.00  0.00    +0.001 A 
ATOM      6  C   UNL A   1     -29.871 -10.078  31.122  0.00  0.00    -0.003 A 
ENDROOT
BRANCH   1   7
ATOM      7  C   UNL A   1     -30.002 -10.927  28.943  0.00  0.00    +0.121 C 
ATOM      8 CL   UNL A   1     -29.483 -11.643  27.703  0.00  0.00    -0.108 Cl
ENDBRANCH   1   7
BRANCH   4   9
ATOM      9  C   UNL A   1     -27.701 -11.165  34.016  0.00  0.00    +0.122 C 
ATOM     10  N   UNL A   1     -27.483 -12.350  34.487  0.00  0.00    -0.146 NA
ENDBRANCH   4   9
TORSDOF 2
ENDMDL
ENDMDL
