REMARK  Name = No_4702-gen_results/8p0m/2024-11-27-11-27-31/
REMARK  2 active torsions:
REMARK  status: ('A' for Active; 'I' for Inactive)
REMARK    1  A    between atoms: C_1  and  C_2
REMARK    2  A    between atoms: C_5  and  C_9
REMARK                            x       y       z     vdW  Elec       q    Type
REMARK                         _______ _______ _______ _____ _____    ______ ____
ROOT
ATOM      1  C   UNL A   1     -27.064  -0.119  28.608  0.00  0.00    -0.006 A 
ATOM      2  C   UNL A   1     -27.001   0.691  27.491  0.00  0.00    -0.003 A 
ATOM      3  C   UNL A   1     -25.855   1.482  27.083  0.00  0.00    +0.001 A 
ATOM      4  C   UNL A   1     -24.690   1.453  27.881  0.00  0.00    +0.021 A 
ATOM      5  C   UNL A   1     -24.738   0.601  29.042  0.00  0.00    +0.001 A 
ATOM      6  C   UNL A   1     -25.823  -0.169  29.389  0.00  0.00    -0.003 A 
ENDROOT
BRANCH   1   7
ATOM      7  C   UNL A   1     -28.016  -0.814  28.878  0.00  0.00    +0.121 C 
ATOM      8 CL   UNL A   1     -28.858  -0.661  30.138  0.00  0.00    -0.108 Cl
ENDBRANCH   1   7
BRANCH   4   9
ATOM      9  C   UNL A   1     -23.512   2.201  27.570  0.00  0.00    +0.122 C 
ATOM     10  N   UNL A   1     -22.741   2.460  28.577  0.00  0.00    -0.146 NA
ENDBRANCH   4   9
TORSDOF 2
