MODEL 4703
MODEL 1
REMARK VINA RESULT:    -6.824      0.000      0.000
REMARK INTER + INTRA:         -15.954
REMARK INTER:                 -11.212
REMARK INTRA:                  -4.741
REMARK UNBOUND:                -4.741
REMARK  Name = No_4703-gen_results/8p0m/2024-11-27-11-27-31/
REMARK  11 active torsions:
REMARK  status: ('A' for Active; 'I' for Inactive)
REMARK    1  A    between atoms: C_2  and  C_22
REMARK    2  A    between atoms: C_3  and  C_7
REMARK    3  A    between atoms: C_4  and  C_25
REMARK    4  A    between atoms: C_8  and  C_16
REMARK    5  A    between atoms: C_11  and  C_13
REMARK    6  A    between atoms: C_25  and  O_27
REMARK    7  A    between atoms: O_27  and  C_28
REMARK    8  A    between atoms: C_28  and  C_29
REMARK    9  A    between atoms: C_29  and  C_30
REMARK   10  A    between atoms: C_31  and  C_32
REMARK   11  A    between atoms: C_32  and  C_33
REMARK                            x       y       z     vdW  Elec       q    Type
REMARK                         _______ _______ _______ _____ _____    ______ ____
ROOT
ATOM      1  C   UNL A   1     -12.744   2.534  38.209  0.00  0.00    +0.007 A 
ATOM      2  C   UNL A   1     -13.708   2.688  37.812  0.00  0.00    +0.080 A 
ATOM      3  C   UNL A   1     -11.727   2.273  37.191  0.00  0.00    +0.007 A 
ATOM      4  C   UNL A   1     -12.022   2.256  35.850  0.00  0.00    +0.076 A 
ATOM      5  C   UNL A   1     -14.301   2.731  36.475  0.00  0.00    +0.007 A 
ATOM      6  C   UNL A   1     -13.324   2.480  35.483  0.00  0.00    +0.007 A 
ENDROOT
BRANCH   3   7
ATOM      7  C   UNL A   1     -10.294   2.071  37.554  0.00  0.00    +0.008 A 
ATOM      8  C   UNL A   1      -9.909   0.885  37.833  0.00  0.00    +0.001 A 
ATOM      9  C   UNL A   1      -8.521   0.726  38.294  0.00  0.00    +0.000 A 
ATOM     10  C   UNL A   1      -7.640   1.842  38.165  0.00  0.00    +0.001 A 
ATOM     11  C   UNL A   1      -9.419   3.175  37.570  0.00  0.00    +0.042 A 
ATOM     12  C   UNL A   1      -8.154   3.029  37.832  0.00  0.00    +0.008 A 
BRANCH   8  13
ATOM     13  C   UNL A   1     -10.733  -0.349  37.947  0.00  0.00    +0.000 A 
ATOM     14  C   UNL A   1     -10.850  -1.202  37.229  0.00  0.00    +0.000 A 
ATOM     15  C   UNL A   1     -11.569  -2.434  37.440  0.00  0.00    +0.000 A 
ATOM     16  C   UNL A   1     -12.182  -2.511  38.648  0.00  0.00    +0.000 A 
ATOM     17  C   UNL A   1     -11.465  -0.686  39.240  0.00  0.00    +0.000 A 
ATOM     18  C   UNL A   1     -12.084  -1.636  39.603  0.00  0.00    +0.000 A 
ENDBRANCH   8  13
BRANCH  11  19
ATOM     19  C   UNL A   1      -9.937   4.534  37.179  0.00  0.00    -0.064 C 
ATOM     20  C   UNL A   1      -9.943   5.374  36.519  0.00  0.00    -0.085 C 
ATOM     21  C   UNL A   1     -10.240   6.290  35.490  0.00  0.00    +0.090 C 
ENDBRANCH  11  19
ENDBRANCH   3   7
BRANCH   2  22
ATOM     22  C   UNL A   1     -14.939   3.086  38.814  0.00  0.00    +0.388 C 
ATOM     23  O   UNL A   1     -14.642   3.187  39.985  0.00  0.00    -0.241 OA
ATOM     24  O   UNL A   1     -16.074   3.376  38.334  0.00  0.00    -0.241 OA
ENDBRANCH   2  22
BRANCH   4  25
ATOM     25  C   UNL A   1     -11.045   1.963  34.759  0.00  0.00    +0.341 C 
ATOM     26  O   UNL A   1     -10.854   0.839  34.451  0.00  0.00    -0.245 OA
BRANCH  25  27
ATOM     27  O   UNL A   1     -10.342   2.958  34.271  0.00  0.00    -0.445 OA
BRANCH  27  28
ATOM     28  C   UNL A   1      -9.187   2.610  33.562  0.00  0.00    +0.213 C 
BRANCH  28  29
ATOM     29  C   UNL A   1      -7.945   3.020  34.234  0.00  0.00    +0.073 C 
BRANCH  29  30
ATOM     30  C   UNL A   1      -7.171   2.197  34.332  0.00  0.00    -0.026 C 
ATOM     31  C   UNL A   1      -7.637   0.875  34.642  0.00  0.00    -0.026 C 
BRANCH  31  32
ATOM     32  C   UNL A   1      -6.710  -0.260  34.960  0.00  0.00    +0.051 C 
BRANCH  32  33
ATOM     33  C   UNL A   1      -6.868  -1.511  34.456  0.00  0.00    -0.026 C 
ATOM     34  C   UNL A   1      -5.764  -2.332  34.392  0.00  0.00    -0.030 C 
ATOM     35  C   UNL A   1      -4.535  -1.905  34.725  0.00  0.00    +0.030 C 
ENDBRANCH  32  33
ENDBRANCH  31  32
ENDBRANCH  29  30
ENDBRANCH  28  29
ENDBRANCH  27  28
ENDBRANCH  25  27
ENDBRANCH   4  25
TORSDOF 11
ENDMDL
ENDMDL
