MODEL 4704
MODEL 1
REMARK VINA RESULT:    -6.542      0.000      0.000
REMARK INTER + INTRA:          -7.304
REMARK INTER:                  -6.924
REMARK INTRA:                  -0.380
REMARK UNBOUND:                -0.380
REMARK  Name = No_4704-gen_results/8p0m/2024-11-27-11-27-31/
REMARK  1 active torsions:
REMARK  status: ('A' for Active; 'I' for Inactive)
REMARK    1  A    between atoms: C_2  and  C_7
REMARK                            x       y       z     vdW  Elec       q    Type
REMARK                         _______ _______ _______ _____ _____    ______ ____
ROOT
ATOM      1  C   UNL A   1     -24.076  -3.939  28.807  0.00  0.00    +0.000 A 
ATOM      2  C   UNL A   1     -24.406  -2.799  29.040  0.00  0.00    +0.000 A 
ATOM      3  C   UNL A   1     -25.635  -2.512  29.623  0.00  0.00    +0.000 A 
ATOM      4  C   UNL A   1     -26.575  -3.560  29.926  0.00  0.00    +0.000 A 
ATOM      5  C   UNL A   1     -26.123  -4.846  29.603  0.00  0.00    +0.000 A 
ATOM      6  C   UNL A   1     -24.957  -5.063  29.037  0.00  0.00    +0.000 A 
ENDROOT
BRANCH   2   7
ATOM      7  C   UNL A   1     -23.577  -1.594  28.769  0.00  0.00    +0.000 A 
ATOM      8  C   UNL A   1     -22.654  -1.310  29.105  0.00  0.00    +0.000 A 
ATOM      9  C   UNL A   1     -21.880  -0.032  28.885  0.00  0.00    +0.000 A 
ATOM     10  C   UNL A   1     -22.385   0.731  28.272  0.00  0.00    +0.000 A 
ATOM     11  C   UNL A   1     -23.689   0.701  27.677  0.00  0.00    +0.000 A 
ATOM     12  C   UNL A   1     -24.335  -0.480  27.896  0.00  0.00    +0.000 A 
ENDBRANCH   2   7
TORSDOF 1
ENDMDL
ENDMDL
