MODEL 4705
MODEL 1
REMARK VINA RESULT:    -4.448      0.000      0.000
REMARK INTER + INTRA:          -4.448
REMARK INTER:                  -4.448
REMARK INTRA:                   0.000
REMARK UNBOUND:                 0.000
REMARK  Name = No_4705-gen_results/8p0m/2024-11-27-11-27-31/
REMARK  0 active torsions:
REMARK  status: ('A' for Active; 'I' for Inactive)
REMARK                            x       y       z     vdW  Elec       q    Type
REMARK                         _______ _______ _______ _____ _____    ______ ____
ROOT
ATOM      1  F   UNL A   1     -23.412  -5.025  28.179  0.00  0.00    -0.204 F 
ATOM      2  C   UNL A   1     -24.347  -4.555  28.644  0.00  0.00    +0.140 A 
ATOM      3  C   UNL A   1     -25.279  -5.191  29.198  0.00  0.00    +0.030 A 
ATOM      4  C   UNL A   1     -24.177  -3.084  28.909  0.00  0.00    +0.030 A 
ATOM      5  C   UNL A   1     -25.318  -2.368  29.490  0.00  0.00    +0.002 A 
ATOM      6  C   UNL A   1     -26.449  -4.487  29.802  0.00  0.00    +0.002 A 
ATOM      7  C   UNL A   1     -26.413  -3.109  29.946  0.00  0.00    +0.000 A 
ENDROOT
TORSDOF 0
ENDMDL
ENDMDL
