REMARK  Name = No_4705-gen_results/8p0m/2024-11-27-11-27-31/
REMARK  0 active torsions:
REMARK  status: ('A' for Active; 'I' for Inactive)
REMARK                            x       y       z     vdW  Elec       q    Type
REMARK                         _______ _______ _______ _____ _____    ______ ____
ROOT
ATOM      1  F   UNL A   1     -28.073  -1.254  28.532  0.00  0.00    -0.204 F 
ATOM      2  C   UNL A   1     -27.359  -0.379  28.722  0.00  0.00    +0.140 A 
ATOM      3  C   UNL A   1     -27.701   0.761  29.125  0.00  0.00    +0.030 A 
ATOM      4  C   UNL A   1     -25.928  -0.825  28.847  0.00  0.00    +0.030 A 
ATOM      5  C   UNL A   1     -24.916   0.212  29.076  0.00  0.00    +0.002 A 
ATOM      6  C   UNL A   1     -26.691   1.834  29.371  0.00  0.00    +0.002 A 
ATOM      7  C   UNL A   1     -25.343   1.513  29.360  0.00  0.00    +0.000 A 
ENDROOT
TORSDOF 0
