MODEL 4707
MODEL 1
REMARK VINA RESULT:    -5.259      0.000      0.000
REMARK INTER + INTRA:          -6.242
REMARK INTER:                  -5.874
REMARK INTRA:                  -0.367
REMARK UNBOUND:                -0.367
REMARK  Name = No_4707-gen_results/8p0m/2024-11-27-11-27-31/
REMARK  2 active torsions:
REMARK  status: ('A' for Active; 'I' for Inactive)
REMARK    1  A    between atoms: C_3  and  C_4
REMARK    2  A    between atoms: C_4  and  C_8
REMARK                            x       y       z     vdW  Elec       q    Type
REMARK                         _______ _______ _______ _____ _____    ______ ____
ROOT
ATOM      1  C   UNL A   1     -26.346  -4.226  29.685  0.00  0.00    -0.000 A 
ATOM      2  C   UNL A   1     -26.001  -3.068  29.671  0.00  0.00    -0.004 A 
ATOM      3  C   UNL A   1     -24.794  -2.685  29.095  0.00  0.00    -0.018 A 
ATOM      4  C   UNL A   1     -25.399  -5.279  29.311  0.00  0.00    -0.000 A 
ATOM      5  C   UNL A   1     -24.231  -4.994  28.647  0.00  0.00    -0.000 A 
ATOM      6  C   UNL A   1     -23.876  -3.648  28.531  0.00  0.00    -0.004 A 
ENDROOT
BRANCH   3   7
ATOM      7  C   UNL A   1     -24.377  -1.333  28.988  0.00  0.00    +0.052 C 
BRANCH   7   8
ATOM      8  C   UNL A   1     -23.080  -0.941  28.976  0.00  0.00    -0.026 C 
ATOM      9  C   UNL A   1     -22.414  -0.549  30.166  0.00  0.00    -0.030 C 
ATOM     10  C   UNL A   1     -23.012  -0.590  31.410  0.00  0.00    +0.030 C 
ENDBRANCH   7   8
ENDBRANCH   3   7
TORSDOF 2
ENDMDL
ENDMDL
