MODEL 4708
MODEL 1
REMARK VINA RESULT:    -6.482      0.000      0.000
REMARK INTER + INTRA:          -7.506
REMARK INTER:                  -7.240
REMARK INTRA:                  -0.266
REMARK UNBOUND:                -0.266
REMARK  Name = No_4708-gen_results/8p0m/2024-11-27-11-27-31/
REMARK  2 active torsions:
REMARK  status: ('A' for Active; 'I' for Inactive)
REMARK    1  A    between atoms: C_2  and  C_16
REMARK    2  A    between atoms: C_9  and  C_11
REMARK                            x       y       z     vdW  Elec       q    Type
REMARK                         _______ _______ _______ _____ _____    ______ ____
ROOT
ATOM      1  C   UNL A   1     -29.019 -10.500  32.605  0.00  0.00    +0.002 A 
ATOM      2  C   UNL A   1     -28.251 -11.213  32.496  0.00  0.00    +0.080 A 
ATOM      3  C   UNL A   1     -29.809 -10.198  31.351  0.00  0.00    -0.019 A 
ATOM      4  C   UNL A   1     -30.804  -9.167  31.197  0.00  0.00    +0.028 C 
ATOM      5  C   UNL A   1     -27.928 -12.146  31.409  0.00  0.00    +0.007 A 
ATOM      6  C   UNL A   1     -28.628 -11.951  30.237  0.00  0.00    +0.003 A 
ATOM      7  C   UNL A   1     -29.611 -10.998  30.169  0.00  0.00    +0.032 A 
ATOM      8  C   UNL A   1     -31.179  -8.710  29.920  0.00  0.00    +0.036 C 
ATOM      9  C   UNL A   1     -30.997  -9.575  28.814  0.00  0.00    +0.209 C 
ATOM     10  C   UNL A   1     -30.174 -10.616  28.895  0.00  0.00    +0.194 C 
ATOM     11 CL   UNL A   1     -31.794 -10.264  28.945  0.00  0.00    -0.100 Cl
ATOM     12  O   UNL A   1     -29.657 -11.319  27.857  0.00  0.00    -0.290 OA
ENDROOT
BRANCH   9  13
ATOM     13  C   UNL A   1     -31.579  -9.141  27.513  0.00  0.00    +0.416 C 
ATOM     14  F   UNL A   1     -32.266  -9.994  27.048  0.00  0.00    -0.168 F 
ATOM     15  F   UNL A   1     -32.353  -7.983  27.696  0.00  0.00    -0.168 F 
ATOM     16  F   UNL A   1     -30.593  -8.820  26.640  0.00  0.00    -0.168 F 
ENDBRANCH   9  13
BRANCH   2  17
ATOM     17  C   UNL A   1     -27.456 -11.615  33.827  0.00  0.00    +0.388 C 
ATOM     18  O   UNL A   1     -26.774 -12.675  33.863  0.00  0.00    -0.241 OA
ATOM     19  O   UNL A   1     -27.270 -10.691  34.664  0.00  0.00    -0.241 OA
ENDBRANCH   2  17
TORSDOF 2
ENDMDL
ENDMDL
