REMARK  Name = No_4709-gen_results/8p0m/2024-11-27-11-27-31/
REMARK  6 active torsions:
REMARK  status: ('A' for Active; 'I' for Inactive)
REMARK    1  A    between atoms: C_3  and  N_14
REMARK    2  A    between atoms: C_4  and  C_5
REMARK    3  A    between atoms: C_5  and  C_8
REMARK    4  A    between atoms: N_17  and  C_20
REMARK    5  A    between atoms: C_24  and  C_25
REMARK    6  A    between atoms: C_29  and  C_32
REMARK                            x       y       z     vdW  Elec       q    Type
REMARK                         _______ _______ _______ _____ _____    ______ ____
ROOT
ATOM      1  N   UNL A   1     -25.782  -0.744  27.691  0.00  0.00    -0.161 NA
ATOM      2  C   UNL A   1     -25.703   0.384  26.826  0.00  0.00    +0.345 C 
ATOM      3  O   UNL A   1     -26.233   1.405  27.237  0.00  0.00    -0.249 OA
ATOM      4  N   UNL A   1     -24.957   0.323  25.791  0.00  0.00    -0.166 NA
ENDROOT
BRANCH   1   7
ATOM      5  C   UNL A   1     -28.016  -0.814  28.878  0.00  0.00    +0.018 A 
ATOM      6  C   UNL A   1     -28.469  -0.785  29.829  0.00  0.00    +0.013 A 
ATOM      7  C   UNL A   1     -26.546  -0.876  28.850  0.00  0.00    +0.078 A 
ATOM      8  C   UNL A   1     -25.804  -1.032  30.057  0.00  0.00    +0.055 A 
ATOM      9  C   UNL A   1     -27.990  -1.005  31.209  0.00  0.00    +0.058 A 
ATOM     10  C   UNL A   1     -26.562  -1.137  31.260  0.00  0.00    +0.016 A 
ATOM     11 CL   UNL A   1     -28.867  -1.148  32.633  0.00  0.00    -0.082 Cl
BRANCH   8  12
ATOM     12  C   UNL A   1     -24.370  -1.100  30.072  0.00  0.00    +0.197 C 
ATOM     13  O   UNL A   1     -23.787  -2.175  30.196  0.00  0.00    -0.286 OA
BRANCH  12  14
ATOM     14  C   UNL A   1     -23.701   0.153  29.948  0.00  0.00    +0.043 A 
ATOM     15  C   UNL A   1     -24.009   1.230  30.617  0.00  0.00    +0.024 A 
ATOM     16  C   UNL A   1     -22.597   0.281  28.998  0.00  0.00    +0.041 A 
ATOM     17  C   UNL A   1     -22.124   1.448  28.481  0.00  0.00    +0.170 A 
ATOM     18  C   UNL A   1     -23.609   2.561  30.168  0.00  0.00    +0.101 A 
ATOM     19  N   UNL A   1     -22.610   2.596  29.186  0.00  0.00    -0.226 NA
ATOM     20  N   UNL A   1     -21.263   1.654  27.576  0.00  0.00    -0.107 NA
ENDBRANCH  12  14
ENDBRANCH   8  12
ENDBRANCH   1   7
BRANCH   4  21
ATOM     21  C   UNL A   1     -24.690   1.486  24.927  0.00  0.00    +0.192 C 
ATOM     22  C   UNL A   1     -23.211   1.615  24.899  0.00  0.00    +0.010 C 
ATOM     23  C   UNL A   1     -22.744   2.872  25.518  0.00  0.00    -0.006 C 
ATOM     24  C   UNL A   1     -23.941   3.470  26.092  0.00  0.00    +0.119 C 
ATOM     25  N   UNL A   1     -25.138   2.741  25.713  0.00  0.00    -0.187 NA
BRANCH  24  26
ATOM     26  C   UNL A   1     -24.192   4.627  26.566  0.00  0.00    -0.002 A 
ATOM     27  C   UNL A   1     -25.432   5.050  27.212  0.00  0.00    -0.003 A 
ATOM     28  C   UNL A   1     -25.633   6.253  27.837  0.00  0.00    +0.004 A 
ATOM     29  C   UNL A   1     -24.724   7.245  27.555  0.00  0.00    +0.071 A 
ATOM     30  C   UNL A   1     -23.659   7.078  26.696  0.00  0.00    +0.004 A 
ATOM     31  C   UNL A   1     -23.457   5.860  26.259  0.00  0.00    -0.003 A 
BRANCH  29  32
ATOM     32  C   UNL A   1     -25.013   8.665  28.120  0.00  0.00    +0.419 C 
ATOM     33  F   UNL A   1     -24.078   9.303  28.333  0.00  0.00    -0.166 F 
ATOM     34  F   UNL A   1     -25.641   8.418  29.367  0.00  0.00    -0.166 F 
ATOM     35  F   UNL A   1     -25.835   9.291  27.297  0.00  0.00    -0.166 F 
ENDBRANCH  29  32
ENDBRANCH  24  26
ENDBRANCH   4  21
TORSDOF 6
