MODEL 4709
MODEL 1
REMARK VINA RESULT:    -8.336      0.000      0.000
REMARK INTER + INTRA:         -12.555
REMARK INTER:                 -11.260
REMARK INTRA:                  -1.296
REMARK UNBOUND:                -1.296
REMARK  Name = No_4709-gen_results/8p0m/2024-11-27-11-27-31/
REMARK  6 active torsions:
REMARK  status: ('A' for Active; 'I' for Inactive)
REMARK    1  A    between atoms: C_3  and  N_14
REMARK    2  A    between atoms: C_4  and  C_5
REMARK    3  A    between atoms: C_5  and  C_8
REMARK    4  A    between atoms: N_17  and  C_20
REMARK    5  A    between atoms: C_24  and  C_25
REMARK    6  A    between atoms: C_29  and  C_32
REMARK                            x       y       z     vdW  Elec       q    Type
REMARK                         _______ _______ _______ _____ _____    ______ ____
ROOT
ATOM      1  N   UNL A   1     -25.007 -17.743   5.679  0.00  0.00    -0.161 NA
ATOM      2  C   UNL A   1     -26.044 -18.210   6.535  0.00  0.00    +0.345 C 
ATOM      3  O   UNL A   1     -25.681 -18.869   7.497  0.00  0.00    -0.249 OA
ATOM      4  N   UNL A   1     -27.235 -17.782   6.359  0.00  0.00    -0.166 NA
ENDROOT
BRANCH   1   7
ATOM      5  C   UNL A   1     -23.174 -19.483   5.558  0.00  0.00    +0.018 A 
ATOM      6  C   UNL A   1     -22.147 -19.643   5.733  0.00  0.00    +0.013 A 
ATOM      7  C   UNL A   1     -23.659 -18.102   5.701  0.00  0.00    +0.078 A 
ATOM      8  C   UNL A   1     -22.745 -17.031   5.925  0.00  0.00    +0.055 A 
ATOM      9  C   UNL A   1     -20.976 -18.757   5.896  0.00  0.00    +0.058 A 
ATOM     10  C   UNL A   1     -21.363 -17.378   5.983  0.00  0.00    +0.016 A 
ATOM     11 CL   UNL A   1     -19.344 -19.144   5.950  0.00  0.00    -0.082 Cl
BRANCH   8  12
ATOM     12  C   UNL A   1     -23.178 -15.670   6.066  0.00  0.00    +0.197 C 
ATOM     13  O   UNL A   1     -23.802 -15.303   7.060  0.00  0.00    -0.286 OA
BRANCH  12  14
ATOM     14  C   UNL A   1     -22.843 -14.809   4.980  0.00  0.00    +0.043 A 
ATOM     15  C   UNL A   1     -23.222 -14.989   3.744  0.00  0.00    +0.024 A 
ATOM     16  C   UNL A   1     -22.000 -13.641   5.229  0.00  0.00    +0.041 A 
ATOM     17  C   UNL A   1     -21.284 -12.963   4.291  0.00  0.00    +0.170 A 
ATOM     18  C   UNL A   1     -22.529 -14.361   2.623  0.00  0.00    +0.101 A 
ATOM     19  N   UNL A   1     -21.665 -13.309   2.955  0.00  0.00    -0.226 NA
ATOM     20  N   UNL A   1     -20.443 -12.025   4.422  0.00  0.00    -0.107 NA
ENDBRANCH  12  14
ENDBRANCH   8  12
ENDBRANCH   1   7
BRANCH   4  21
ATOM     21  C   UNL A   1     -28.339 -18.085   7.286  0.00  0.00    +0.192 C 
ATOM     22  C   UNL A   1     -29.575 -17.719   6.548  0.00  0.00    +0.010 C 
ATOM     23  C   UNL A   1     -30.300 -16.601   7.184  0.00  0.00    -0.006 C 
ATOM     24  C   UNL A   1     -29.420 -16.147   8.251  0.00  0.00    +0.119 C 
ATOM     25  N   UNL A   1     -28.279 -17.029   8.416  0.00  0.00    -0.187 NA
BRANCH  24  26
ATOM     26  C   UNL A   1     -29.590 -15.363   9.242  0.00  0.00    -0.002 A 
ATOM     27  C   UNL A   1     -30.211 -15.702  10.520  0.00  0.00    -0.003 A 
ATOM     28  C   UNL A   1     -30.261 -14.887  11.621  0.00  0.00    +0.004 A 
ATOM     29  C   UNL A   1     -30.001 -13.555  11.405  0.00  0.00    +0.071 A 
ATOM     30  C   UNL A   1     -29.705 -13.030  10.165  0.00  0.00    +0.004 A 
ATOM     31  C   UNL A   1     -29.533 -13.897   9.199  0.00  0.00    -0.003 A 
BRANCH  29  32
ATOM     32  C   UNL A   1     -30.206 -12.580  12.599  0.00  0.00    +0.419 C 
ATOM     33  F   UNL A   1     -29.273 -11.975  12.899  0.00  0.00    -0.166 F 
ATOM     34  F   UNL A   1     -30.517 -13.432  13.689  0.00  0.00    -0.166 F 
ATOM     35  F   UNL A   1     -31.220 -11.779  12.326  0.00  0.00    -0.166 F 
ENDBRANCH  29  32
ENDBRANCH  24  26
ENDBRANCH   4  21
TORSDOF 6
ENDMDL
ENDMDL
