MODEL 470
MODEL 1
REMARK VINA RESULT:    -5.071      0.000      0.000
REMARK INTER + INTRA:          -5.405
REMARK INTER:                  -5.368
REMARK INTRA:                  -0.038
REMARK UNBOUND:                -0.038
REMARK  Name = No_470-gen_results/8p0m/2024-11-27-11-27-31/
REMARK  1 active torsions:
REMARK  status: ('A' for Active; 'I' for Inactive)
REMARK    1  A    between atoms: C_2  and  C_7
REMARK                            x       y       z     vdW  Elec       q    Type
REMARK                         _______ _______ _______ _____ _____    ______ ____
ROOT
ATOM      1  C   UNL A   1     -27.804 -12.106  31.536  0.00  0.00    +0.007 A 
ATOM      2  C   UNL A   1     -28.038 -11.570  32.413  0.00  0.00    +0.080 A 
ATOM      3  C   UNL A   1     -28.630 -11.825  30.351  0.00  0.00    +0.000 A 
ATOM      4  C   UNL A   1     -29.596 -10.777  30.373  0.00  0.00    +0.000 A 
ATOM      5  C   UNL A   1     -28.934 -10.412  32.683  0.00  0.00    +0.007 A 
ATOM      6  C   UNL A   1     -29.724 -10.128  31.609  0.00  0.00    +0.000 A 
ENDROOT
BRANCH   2   7
ATOM      7  C   UNL A   1     -27.153 -11.832  33.713  0.00  0.00    +0.388 C 
ATOM      8  O   UNL A   1     -26.705 -12.853  33.771  0.00  0.00    -0.241 OA
ATOM      9  O   UNL A   1     -26.971 -10.889  34.639  0.00  0.00    -0.241 OA
ENDBRANCH   2   7
TORSDOF 1
ENDMDL
ENDMDL
