MODEL 4710
MODEL 1
REMARK VINA RESULT:    -8.668      0.000      0.000
REMARK INTER + INTRA:         -14.668
REMARK INTER:                 -12.722
REMARK INTRA:                  -1.946
REMARK UNBOUND:                -1.946
REMARK  Name = No_4710-gen_results/8p0m/2024-11-27-11-27-31/
REMARK  8 active torsions:
REMARK  status: ('A' for Active; 'I' for Inactive)
REMARK    1  A    between atoms: C_2  and  C_7
REMARK    2  A    between atoms: C_4  and  C_11
REMARK    3  A    between atoms: N_9  and  C_10
REMARK    4  A    between atoms: C_11  and  C_12
REMARK    5  A    between atoms: C_12  and  C_13
REMARK    6  A    between atoms: C_12  and  C_16
REMARK    7  A    between atoms: C_16  and  C_17
REMARK    8  A    between atoms: C_19  and  C_34
REMARK                            x       y       z     vdW  Elec       q    Type
REMARK                         _______ _______ _______ _____ _____    ______ ____
ROOT
ATOM      1  C   UNL A   1     -23.403   0.681  29.902  0.00  0.00    +0.040 C 
ENDROOT
BRANCH   1   5
ATOM      2  C   UNL A   1     -25.640   0.685  33.037  0.00  0.00    +0.022 A 
ATOM      3  C   UNL A   1     -25.089  -0.020  33.594  0.00  0.00    +0.057 A 
ATOM      4  C   UNL A   1     -25.103   1.047  31.716  0.00  0.00    +0.085 A 
ATOM      5  C   UNL A   1     -23.974   0.361  31.180  0.00  0.00    -0.005 A 
ATOM      6  C   UNL A   1     -23.942  -0.905  33.254  0.00  0.00    +0.004 A 
ATOM      7  C   UNL A   1     -23.409  -0.592  32.039  0.00  0.00    -0.003 A 
ATOM      8  N   UNL A   1     -25.653   2.074  30.953  0.00  0.00    -0.128 NA
BRANCH   3   9
ATOM      9  C   UNL A   1     -25.649  -0.453  35.023  0.00  0.00    +0.269 C 
ATOM     10  O   UNL A   1     -26.698  -0.131  35.226  0.00  0.00    -0.268 OA
ATOM     11  N   UNL A   1     -24.865  -1.221  35.894  0.00  0.00    -0.175 NA
BRANCH  11  12
ATOM     12  C   UNL A   1     -25.443  -1.620  37.138  0.00  0.00    +0.074 A 
ATOM     13  C   UNL A   1     -26.237  -2.402  37.402  0.00  0.00    +0.018 A 
ATOM     14  C   UNL A   1     -26.782  -2.704  38.677  0.00  0.00    +0.013 A 
ATOM     15  C   UNL A   1     -26.286  -1.880  39.703  0.00  0.00    +0.058 A 
ATOM     16  C   UNL A   1     -25.329  -0.936  39.452  0.00  0.00    +0.013 A 
ATOM     17  C   UNL A   1     -24.875  -0.670  38.169  0.00  0.00    +0.018 A 
ATOM     18 CL   UNL A   1     -26.856  -2.096  41.296  0.00  0.00    -0.082 Cl
ENDBRANCH  11  12
ENDBRANCH   3   9
ENDBRANCH   1   5
BRANCH   1  19
ATOM     19  C   UNL A   1     -23.792  -0.187  28.839  0.00  0.00    +0.090 C 
BRANCH  19  20
ATOM     20  C   UNL A   1     -24.478   0.347  27.699  0.00  0.00    +0.004 A 
ATOM     21  C   UNL A   1     -25.282  -0.404  26.887  0.00  0.00    -0.001 A 
ATOM     22  C   UNL A   1     -25.391   0.085  25.559  0.00  0.00    +0.020 A 
ATOM     23  C   UNL A   1     -24.390   1.704  27.365  0.00  0.00    +0.095 A 
ATOM     24  N   UNL A   1     -24.982   2.224  26.293  0.00  0.00    -0.243 NA
ATOM     25  C   UNL A   1     -25.510   1.374  25.385  0.00  0.00    +0.099 A 
ENDBRANCH  19  20
BRANCH  19  26
ATOM     26  C   UNL A   1     -23.589  -1.597  28.950  0.00  0.00    +0.177 C 
ATOM     27  O   UNL A   1     -22.185  -1.854  28.853  0.00  0.00    -0.291 OA
BRANCH  26  28
ATOM     28  C   UNL A   1     -24.338  -2.558  29.126  0.00  0.00    +0.035 A 
ATOM     29  C   UNL A   1     -25.622  -2.489  29.729  0.00  0.00    +0.003 A 
ATOM     30  C   UNL A   1     -26.409  -3.645  29.923  0.00  0.00    +0.000 A 
ATOM     31  C   UNL A   1     -25.918  -4.876  29.462  0.00  0.00    +0.000 A 
ATOM     32  C   UNL A   1     -24.680  -5.001  28.858  0.00  0.00    +0.000 A 
ATOM     33  C   UNL A   1     -23.891  -3.935  28.733  0.00  0.00    +0.003 A 
BRANCH  30  34
ATOM     34  C   UNL A   1     -27.741  -3.544  30.502  0.00  0.00    +0.000 C 
ATOM     35  C   UNL A   1     -28.410  -4.631  30.492  0.00  0.00    +0.000 C 
ENDBRANCH  30  34
ENDBRANCH  26  28
ENDBRANCH  19  26
ENDBRANCH   1  19
TORSDOF 8
ENDMDL
ENDMDL
