REMARK  Name = outputs/IAG933/test6/raw/output_4710_IAG933_linker_design_.xyz
REMARK  11 active torsions:
REMARK  status: ('A' for Active; 'I' for Inactive)
REMARK    1  A    between atoms: C_1  and  C_2
REMARK    2  A    between atoms: C_1  and  C_8
REMARK    3  A    between atoms: C_1  and  C_37
REMARK    4  A    between atoms: C_13  and  N_31
REMARK    5  A    between atoms: C_14  and  C_15
REMARK    6  A    between atoms: C_21  and  O_22
REMARK    7  A    between atoms: O_22  and  C_23
REMARK    8  A    between atoms: C_23  and  C_24
REMARK    9  A    between atoms: C_32  and  C_37
REMARK   10  A    between atoms: C_35  and  C_40
REMARK   11  A    between atoms: C_39  and  C_40
REMARK                            x       y       z     vdW  Elec       q    Type
REMARK                         _______ _______ _______ _____ _____    ______ ____
ROOT
ATOM      1  C   UNL A   1     -28.342  -0.754  29.021  0.00  0.00    +0.015 C 
ATOM      2  C   UNL A   1     -25.512  -0.102  29.120  0.00  0.00    +0.024 C 
ATOM      3  C   UNL A   1     -26.998  -0.474  28.956  0.00  0.00    -0.112 C 
ENDROOT
BRANCH   2   5
ATOM      4  N   UNL A   1     -24.539   1.353  27.174  0.00  0.00    -0.276 N 
ATOM      5  C   UNL A   1     -24.471   0.634  28.367  0.00  0.00    +0.155 C 
ATOM      6  C   UNL A   1     -22.995   2.500  25.417  0.00  0.00    +0.048 C 
ATOM      7  S   UNL A   1     -22.815   0.573  28.914  0.00  0.00    -0.088 S 
ATOM      8  C   UNL A   1     -23.233   1.757  26.734  0.00  0.00    +0.036 C 
ATOM      9  C   UNL A   1     -22.186   1.382  27.603  0.00  0.00    +0.043 C 
BRANCH   4  10
ATOM     10  C   UNL A   1     -25.688   1.614  26.461  0.00  0.00    +0.091 C 
ATOM     11  C   UNL A   1     -26.250   2.920  26.395  0.00  0.00    +0.090 C 
ATOM     12  C   UNL A   1     -27.438   3.091  25.645  0.00  0.00    +0.108 C 
ATOM     13  N   UNL A   1     -28.075   2.089  25.003  0.00  0.00    -0.208 NA
ATOM     14  C   UNL A   1     -27.543   0.849  25.079  0.00  0.00    +0.255 C 
ATOM     15  C   UNL A   1     -26.354   0.576  25.777  0.00  0.00    +0.207 C 
ATOM     16  F   UNL A   1     -25.860  -0.681  25.795  0.00  0.00    -0.198 F 
BRANCH  11  17
ATOM     17  C   UNL A   1     -25.642   4.093  27.123  0.00  0.00    +0.268 C 
ATOM     18  N   UNL A   1     -25.614   5.252  26.449  0.00  0.00    -0.200 NA
ATOM     19  C   UNL A   1     -25.026   6.479  26.963  0.00  0.00    +0.139 C 
ATOM     20  O   UNL A   1     -25.143   3.966  28.243  0.00  0.00    -0.268 OA
ENDBRANCH  11  17
BRANCH  14  21
ATOM     21  O   UNL A   1     -28.193  -0.208  24.477  0.00  0.00    -0.456 OA
BRANCH  21  22
ATOM     22  C   UNL A   1     -29.460   0.005  23.866  0.00  0.00    +0.243 C 
BRANCH  22  23
ATOM     23  C   UNL A   1     -30.065  -1.377  23.573  0.00  0.00    +0.229 C 
ATOM     24  O   UNL A   1     -30.729  -1.878  24.721  0.00  0.00    -0.216 OA
ENDBRANCH  22  23
ENDBRANCH  21  22
ENDBRANCH  14  21
ENDBRANCH   4  10
ENDBRANCH   2   5
BRANCH   2  25
ATOM     25  C   UNL A   1     -24.855  -1.012  30.143  0.00  0.00    +0.066 C 
BRANCH  25  26
ATOM     26  C   UNL A   1     -24.973  -2.505  29.788  0.00  0.00    -0.017 C 
ATOM     27  C   UNL A   1     -23.906  -3.173  29.146  0.00  0.00    -0.004 C 
ATOM     28  C   UNL A   1     -23.989  -4.549  28.853  0.00  0.00    -0.000 C 
ATOM     29  C   UNL A   1     -25.137  -5.280  29.205  0.00  0.00    -0.000 C 
ATOM     30  C   UNL A   1     -26.232  -4.611  29.784  0.00  0.00    -0.000 C 
ATOM     31  C   UNL A   1     -26.155  -3.232  30.065  0.00  0.00    -0.004 C 
ENDBRANCH  25  26
BRANCH  25  32
ATOM     32  C   UNL A   1     -25.387  -0.679  31.571  0.00  0.00    +0.081 C 
ATOM     33  C   UNL A   1     -25.189   0.773  32.028  0.00  0.00    +0.019 C 
ATOM     34  C   UNL A   1     -25.336   0.684  33.544  0.00  0.00    +0.020 C 
ATOM     35  C   UNL A   1     -24.829  -0.715  33.905  0.00  0.00    +0.089 C 
ATOM     36  N   UNL A   1     -24.758  -1.481  32.646  0.00  0.00    -0.219 NA
ENDBRANCH  25  32
ENDBRANCH   2  25
BRANCH   1  37
ATOM     37  C   UNL A   1     -29.316   0.115  29.722  0.00  0.00    +0.035 C 
BRANCH  37  42
ATOM     38  C   UNL A   1     -30.664   1.029  32.793  0.00  0.00    +0.072 C 
ATOM     39  C   UNL A   1     -28.831  -0.399  33.655  0.00  0.00    +0.072 C 
ATOM     40  C   UNL A   1     -29.298   1.864  34.676  0.00  0.00    +0.090 C 
ATOM     41  C   UNL A   1     -29.396  -1.020  32.303  0.00  0.00    +0.018 C 
ATOM     42  C   UNL A   1     -29.178   0.151  31.274  0.00  0.00    +0.008 C 
ATOM     43  C   UNL A   1     -29.714   1.510  31.725  0.00  0.00    +0.018 C 
ATOM     44  N   UNL A   1     -29.856   0.648  33.980  0.00  0.00    -0.272 NA
ENDBRANCH  37  42
ENDBRANCH   1  37
TORSDOF 11
