MODEL 4711
MODEL 1
REMARK VINA RESULT:    -4.804      0.000      0.000
REMARK INTER + INTRA:          -5.144
REMARK INTER:                  -5.085
REMARK INTRA:                  -0.059
REMARK UNBOUND:                -0.059
REMARK  Name = No_4711-gen_results/8p0m/2024-11-27-11-27-31/
REMARK  1 active torsions:
REMARK  status: ('A' for Active; 'I' for Inactive)
REMARK    1  A    between atoms: C_1  and  C_3
REMARK                            x       y       z     vdW  Elec       q    Type
REMARK                         _______ _______ _______ _____ _____    ______ ____
ROOT
ATOM      1  C   UNL A   1     -24.178  -2.854  29.018  0.00  0.00    +0.043 A 
ATOM      2  C   UNL A   1     -24.039  -4.078  28.715  0.00  0.00    +0.008 A 
ATOM      3  C   UNL A   1     -25.009  -5.194  29.103  0.00  0.00    +0.001 A 
ATOM      4  C   UNL A   1     -26.213  -4.835  29.624  0.00  0.00    +0.000 A 
ATOM      5  C   UNL A   1     -26.463  -3.515  29.905  0.00  0.00    +0.001 A 
ATOM      6  C   UNL A   1     -25.525  -2.564  29.600  0.00  0.00    +0.008 A 
ENDROOT
BRANCH   1   7
ATOM      7  C   UNL A   1     -23.414  -1.669  28.874  0.00  0.00    -0.051 C 
ATOM      8  C   UNL A   1     -22.609  -1.118  29.273  0.00  0.00    -0.009 C 
ENDBRANCH   1   7
TORSDOF 1
ENDMDL
ENDMDL
