REMARK  Name = outputs/IAG933/test6/raw/output_4711_IAG933_linker_design_.xyz
REMARK  13 active torsions:
REMARK  status: ('A' for Active; 'I' for Inactive)
REMARK    1  A    between atoms: C_1  and  C_2
REMARK    2  A    between atoms: C_1  and  C_8
REMARK    3  A    between atoms: C_1  and  N_37
REMARK    4  A    between atoms: C_13  and  C_34
REMARK    5  A    between atoms: C_14  and  C_15
REMARK    6  A    between atoms: C_21  and  O_22
REMARK    7  A    between atoms: O_22  and  C_23
REMARK    8  A    between atoms: C_23  and  C_24
REMARK    9  A    between atoms: C_28  and  C_38
REMARK   10  A    between atoms: C_28  and  O_40
REMARK   11  A    between atoms: N_32  and  C_35
REMARK   12  A    between atoms: C_33  and  O_40
REMARK   13  A    between atoms: N_37  and  C_38
REMARK                            x       y       z     vdW  Elec       q    Type
REMARK                         _______ _______ _______ _____ _____    ______ ____
ROOT
ATOM      1  C   UNL A   1     -23.653   0.077  28.561  0.00  0.00    +0.438 C 
ATOM      2  O   UNL A   1     -22.641  -0.325  29.118  0.00  0.00    -0.219 OA
ATOM      3  N   UNL A   1     -23.163   2.514  26.411  0.00  0.00    -0.065 NA
ATOM      4  C   UNL A   1     -24.146   1.543  26.690  0.00  0.00    +0.349 C 
ATOM      5  N   UNL A   1     -23.607   0.542  27.418  0.00  0.00    +0.046 NA
ATOM      6  N   UNL A   1     -24.879  -0.074  29.096  0.00  0.00    -0.235 N 
ENDROOT
BRANCH   4   7
ATOM      7  C   UNL A   1     -25.688   1.614  26.461  0.00  0.00    +0.179 C 
ATOM      8  C   UNL A   1     -26.250   2.920  26.395  0.00  0.00    +0.067 C 
ATOM      9  C   UNL A   1     -27.438   3.091  25.645  0.00  0.00    +0.103 C 
ATOM     10  N   UNL A   1     -28.075   2.089  25.003  0.00  0.00    -0.212 NA
ATOM     11  C   UNL A   1     -27.543   0.849  25.079  0.00  0.00    +0.235 C 
ATOM     12  C   UNL A   1     -26.354   0.576  25.777  0.00  0.00    +0.252 C 
ATOM     13  F   UNL A   1     -25.860  -0.681  25.795  0.00  0.00    -0.226 F 
BRANCH   8  14
ATOM     14  C   UNL A   1     -25.642   4.093  27.123  0.00  0.00    +0.263 C 
ATOM     15  N   UNL A   1     -25.614   5.252  26.449  0.00  0.00    -0.200 NA
ATOM     16  C   UNL A   1     -25.026   6.479  26.963  0.00  0.00    +0.139 C 
ATOM     17  O   UNL A   1     -25.143   3.966  28.243  0.00  0.00    -0.269 OA
ENDBRANCH   8  14
BRANCH  11  18
ATOM     18  O   UNL A   1     -28.193  -0.208  24.477  0.00  0.00    -0.459 OA
BRANCH  18  19
ATOM     19  C   UNL A   1     -29.460   0.005  23.866  0.00  0.00    +0.242 C 
BRANCH  19  20
ATOM     20  C   UNL A   1     -30.065  -1.377  23.573  0.00  0.00    +0.229 C 
ATOM     21  O   UNL A   1     -30.729  -1.878  24.721  0.00  0.00    -0.216 OA
ENDBRANCH  19  20
ENDBRANCH  18  19
ENDBRANCH  11  18
ENDBRANCH   4   7
BRANCH   3  23
ATOM     22  C   UNL A   1     -20.959   1.524  27.620  0.00  0.00    +0.062 C 
ATOM     23  C   UNL A   1     -21.974   2.423  26.990  0.00  0.00    +0.263 C 
ENDBRANCH   3  23
BRANCH   6  24
ATOM     24  C   UNL A   1     -24.855  -1.012  30.143  0.00  0.00    +0.117 C 
BRANCH  24  25
ATOM     25  C   UNL A   1     -24.973  -2.505  29.788  0.00  0.00    -0.003 C 
ATOM     26  C   UNL A   1     -23.906  -3.173  29.146  0.00  0.00    -0.003 C 
ATOM     27  C   UNL A   1     -23.989  -4.549  28.853  0.00  0.00    -0.000 C 
ATOM     28  C   UNL A   1     -25.137  -5.280  29.205  0.00  0.00    -0.000 C 
ATOM     29  C   UNL A   1     -26.232  -4.611  29.784  0.00  0.00    -0.000 C 
ATOM     30  C   UNL A   1     -26.155  -3.232  30.065  0.00  0.00    -0.003 C 
ENDBRANCH  24  25
BRANCH  24  31
ATOM     31  C   UNL A   1     -25.387  -0.679  31.571  0.00  0.00    +0.095 C 
ATOM     32  C   UNL A   1     -25.189   0.773  32.028  0.00  0.00    +0.021 C 
ATOM     33  C   UNL A   1     -25.336   0.684  33.544  0.00  0.00    +0.020 C 
ATOM     34  C   UNL A   1     -24.829  -0.715  33.905  0.00  0.00    +0.089 C 
ATOM     35  N   UNL A   1     -24.758  -1.481  32.646  0.00  0.00    -0.217 NA
ENDBRANCH  24  31
ENDBRANCH   6  24
BRANCH   6  36
ATOM     36  C   UNL A   1     -26.148   0.359  28.907  0.00  0.00    +0.130 C 
BRANCH  36  37
ATOM     37  C   UNL A   1     -27.435   1.243  29.348  0.00  0.00    +0.164 C 
BRANCH  37  38
ATOM     38  O   UNL A   1     -27.577   2.871  29.312  0.00  0.00    -0.352 OA
BRANCH  38  39
ATOM     39  C   UNL A   1     -28.669   3.690  29.058  0.00  0.00    +0.142 C 
ATOM     40  C   UNL A   1     -28.908   4.790  29.993  0.00  0.00    +0.035 C 
ENDBRANCH  38  39
ENDBRANCH  37  38
ENDBRANCH  36  37
ENDBRANCH   6  36
TORSDOF 13
