MODEL 4712
MODEL 1
REMARK VINA RESULT:    -6.807      0.000      0.000
REMARK INTER + INTRA:          -9.779
REMARK INTER:                  -8.797
REMARK INTRA:                  -0.982
REMARK UNBOUND:                -0.982
REMARK  Name = No_4712-gen_results/8p0m/2024-11-27-11-27-31/
REMARK  5 active torsions:
REMARK  status: ('A' for Active; 'I' for Inactive)
REMARK    1  A    between atoms: C_2  and  C_7
REMARK    2  A    between atoms: C_6  and  C_11
REMARK    3  A    between atoms: N_12  and  C_15
REMARK    4  A    between atoms: C_20  and  C_21
REMARK    5  A    between atoms: C_21  and  C_23
REMARK                            x       y       z     vdW  Elec       q    Type
REMARK                         _______ _______ _______ _____ _____    ______ ____
ROOT
ATOM      1  C   UNL A   1     -24.740   2.099  28.825  0.00  0.00    +0.253 C 
ATOM      2  N   UNL A   1     -24.903   2.500  27.725  0.00  0.00    -0.253 N 
ATOM      3  C   UNL A   1     -25.251   3.711  27.375  0.00  0.00    +0.120 C 
ATOM      4  O   UNL A   1     -24.595   2.891  29.762  0.00  0.00    -0.270 OA
ENDROOT
BRANCH   1  10
ATOM      5  C   UNL A   1     -24.707  -0.457  29.136  0.00  0.00    +0.008 A 
ATOM      6  C   UNL A   1     -24.105  -1.505  29.171  0.00  0.00    +0.072 A 
ATOM      7  C   UNL A   1     -22.715  -1.535  29.149  0.00  0.00    +0.004 A 
ATOM      8  C   UNL A   1     -21.949  -0.320  29.037  0.00  0.00    +0.000 A 
ATOM      9  C   UNL A   1     -22.727   0.844  28.978  0.00  0.00    +0.004 A 
ATOM     10  C   UNL A   1     -24.040   0.817  28.985  0.00  0.00    +0.054 A 
BRANCH   6  11
ATOM     11  C   UNL A   1     -24.730  -2.852  29.260  0.00  0.00    +0.419 C 
ATOM     12  F   UNL A   1     -25.373  -3.153  28.327  0.00  0.00    -0.166 F 
ATOM     13  F   UNL A   1     -25.549  -2.904  30.434  0.00  0.00    -0.166 F 
ATOM     14  F   UNL A   1     -23.796  -3.854  29.474  0.00  0.00    -0.166 F 
ENDBRANCH   6  11
ENDBRANCH   1  10
BRANCH   2  15
ATOM     15  C   UNL A   1     -25.109   1.529  26.537  0.00  0.00    +0.054 A 
ATOM     16  C   UNL A   1     -24.292   1.243  25.849  0.00  0.00    +0.015 A 
ATOM     17  C   UNL A   1     -24.573   0.393  24.694  0.00  0.00    +0.001 A 
ATOM     18  C   UNL A   1     -25.891   0.085  24.376  0.00  0.00    -0.004 A 
ATOM     19  C   UNL A   1     -26.521   1.184  26.159  0.00  0.00    +0.011 A 
ATOM     20  C   UNL A   1     -26.823   0.322  25.273  0.00  0.00    -0.017 A 
BRANCH  20  21
ATOM     21  C   UNL A   1     -28.256  -0.024  24.941  0.00  0.00    +0.044 C 
ATOM     22  C   UNL A   1     -29.282   0.367  25.651  0.00  0.00    +0.009 C 
BRANCH  21  23
ATOM     23  C   UNL A   1     -28.502  -0.774  23.681  0.00  0.00    -0.022 C 
ATOM     24  C   UNL A   1     -29.507  -1.430  23.463  0.00  0.00    -0.005 C 
ENDBRANCH  21  23
ENDBRANCH  20  21
ENDBRANCH   2  15
TORSDOF 5
ENDMDL
ENDMDL
