REMARK  Name = No_4712-gen_results/8p0m/2024-11-27-11-27-31/
REMARK  5 active torsions:
REMARK  status: ('A' for Active; 'I' for Inactive)
REMARK    1  A    between atoms: C_2  and  C_7
REMARK    2  A    between atoms: C_6  and  C_11
REMARK    3  A    between atoms: N_12  and  C_15
REMARK    4  A    between atoms: C_20  and  C_21
REMARK    5  A    between atoms: C_21  and  C_23
REMARK                            x       y       z     vdW  Elec       q    Type
REMARK                         _______ _______ _______ _____ _____    ______ ____
ROOT
ATOM      1  C   UNL A   1     -29.069  -2.754  30.205  0.00  0.00    +0.253 C 
ATOM      2  N   UNL A   1     -29.486  -2.558  31.293  0.00  0.00    -0.253 N 
ATOM      3  C   UNL A   1     -30.306  -3.321  31.968  0.00  0.00    +0.120 C 
ATOM      4  O   UNL A   1     -29.142  -3.880  29.703  0.00  0.00    -0.270 OA
ENDROOT
BRANCH   1  10
ATOM      5  C   UNL A   1     -28.016  -0.814  28.878  0.00  0.00    +0.008 A 
ATOM      6  C   UNL A   1     -27.064  -0.119  28.608  0.00  0.00    +0.072 A 
ATOM      7  C   UNL A   1     -25.792  -0.430  29.076  0.00  0.00    +0.004 A 
ATOM      8  C   UNL A   1     -25.576  -1.565  29.936  0.00  0.00    +0.000 A 
ATOM      9  C   UNL A   1     -26.735  -2.300  30.217  0.00  0.00    +0.004 A 
ATOM     10  C   UNL A   1     -27.918  -1.954  29.763  0.00  0.00    +0.054 A 
BRANCH   6  11
ATOM     11  C   UNL A   1     -27.106   1.102  27.759  0.00  0.00    +0.419 C 
ATOM     12  F   UNL A   1     -28.103   1.242  27.157  0.00  0.00    -0.166 F 
ATOM     13  F   UNL A   1     -26.004   1.066  26.844  0.00  0.00    -0.166 F 
ATOM     14  F   UNL A   1     -26.883   2.259  28.488  0.00  0.00    -0.166 F 
ENDBRANCH   6  11
ENDBRANCH   1  10
BRANCH   2  15
ATOM     15  C   UNL A   1     -29.426  -1.151  31.937  0.00  0.00    +0.054 A 
ATOM     16  C   UNL A   1     -30.328  -0.544  32.133  0.00  0.00    +0.015 A 
ATOM     17  C   UNL A   1     -30.196   0.813  32.661  0.00  0.00    +0.001 A 
ATOM     18  C   UNL A   1     -28.934   1.389  32.757  0.00  0.00    -0.004 A 
ATOM     19  C   UNL A   1     -28.079  -0.495  32.045  0.00  0.00    +0.011 A 
ATOM     20  C   UNL A   1     -27.880   0.610  32.645  0.00  0.00    -0.017 A 
BRANCH  20  21
ATOM     21  C   UNL A   1     -26.505   1.226  32.763  0.00  0.00    +0.044 C 
ATOM     22  C   UNL A   1     -25.413   0.535  32.961  0.00  0.00    +0.009 C 
BRANCH  21  23
ATOM     23  C   UNL A   1     -26.395   2.693  32.548  0.00  0.00    -0.022 C 
ATOM     24  C   UNL A   1     -26.922   3.528  33.264  0.00  0.00    -0.005 C 
ENDBRANCH  21  23
ENDBRANCH  20  21
ENDBRANCH   2  15
TORSDOF 5
