MODEL 4713
MODEL 1
REMARK VINA RESULT:    -7.646      0.000      0.000
REMARK INTER + INTRA:          -7.646
REMARK INTER:                  -7.646
REMARK INTRA:                   0.000
REMARK UNBOUND:                 0.000
REMARK  Name = No_4713-gen_results/8p0m/2024-11-27-11-27-31/
REMARK  0 active torsions:
REMARK  status: ('A' for Active; 'I' for Inactive)
REMARK                            x       y       z     vdW  Elec       q    Type
REMARK                         _______ _______ _______ _____ _____    ______ ____
ROOT
ATOM      1  C   UNL A   1     -22.108  -0.646  30.129  0.00  0.00    +0.065 C 
ATOM      2  C   UNL A   1     -23.127  -0.666  30.399  0.00  0.00    +0.158 C 
ATOM      3  C   UNL A   1     -21.766  -0.058  28.891  0.00  0.00    +0.139 C 
ATOM      4  C   UNL A   1     -22.721   0.467  28.043  0.00  0.00    +0.007 C 
ATOM      5  C   UNL A   1     -24.327  -0.179  29.690  0.00  0.00    +0.203 C 
ATOM      6  C   UNL A   1     -24.044   0.390  28.499  0.00  0.00    +0.072 C 
ATOM      7  F   UNL A   1     -20.490   0.052  28.487  0.00  0.00    -0.204 F 
ATOM      8  C   UNL A   1     -25.719  -0.276  30.210  0.00  0.00    -0.008 C 
ATOM      9  C   UNL A   1     -26.306  -1.409  30.297  0.00  0.00    -0.003 C 
ATOM     10  C   UNL A   1     -25.698  -2.612  29.828  0.00  0.00    +0.034 A 
ATOM     11  C   UNL A   1     -26.407  -3.867  29.958  0.00  0.00    +0.003 A 
ATOM     12  C   UNL A   1     -25.827  -4.994  29.422  0.00  0.00    +0.000 A 
ATOM     13  C   UNL A   1     -24.530  -4.898  28.837  0.00  0.00    +0.003 A 
ATOM     14  C   UNL A   1     -23.860  -3.701  28.752  0.00  0.00    +0.037 A 
ATOM     15  C   UNL A   1     -24.463  -2.540  29.251  0.00  0.00    +0.145 A 
ATOM     16  O   UNL A   1     -23.720  -1.738  29.119  0.00  0.00    -0.455 OA
ATOM     17  F   UNL A   1     -24.338   1.070  30.107  0.00  0.00    -0.228 F 
ATOM     18  C   UNL A   1     -25.918   0.547  31.549  0.00  0.00    +0.029 C 
ENDROOT
TORSDOF 0
ENDMDL
ENDMDL
