REMARK  Name = outputs/IAG933/test6/raw/output_4713_IAG933_linker_design_.xyz
REMARK  13 active torsions:
REMARK  status: ('A' for Active; 'I' for Inactive)
REMARK    1  A    between atoms: C_1  and  C_2
REMARK    2  A    between atoms: C_1  and  C_8
REMARK    3  A    between atoms: C_1  and  C_41
REMARK    4  A    between atoms: C_13  and  O_34
REMARK    5  A    between atoms: C_14  and  C_15
REMARK    6  A    between atoms: C_21  and  O_22
REMARK    7  A    between atoms: O_22  and  C_23
REMARK    8  A    between atoms: C_23  and  C_24
REMARK    9  A    between atoms: C_29  and  O_31
REMARK   10  A    between atoms: N_30  and  C_32
REMARK   11  A    between atoms: C_33  and  C_41
REMARK   12  A    between atoms: O_34  and  C_40
REMARK   13  A    between atoms: C_36  and  C_41
REMARK                            x       y       z     vdW  Elec       q    Type
REMARK                         _______ _______ _______ _____ _____    ______ ____
ROOT
ATOM      1  C   UNL A   1     -21.256   0.487  28.774  0.00  0.00    -0.021 C 
ATOM      2  C   UNL A   1     -23.041   1.628  26.630  0.00  0.00    +0.222 C 
ATOM      3  C   UNL A   1     -23.716   0.463  28.560  0.00  0.00    -0.002 C 
ATOM      4  C   UNL A   1     -22.534   0.159  29.189  0.00  0.00    +0.051 C 
ATOM      5  C   UNL A   1     -20.894   1.220  27.678  0.00  0.00    -0.001 C 
ATOM      6  C   UNL A   1     -23.841   1.187  27.448  0.00  0.00    +0.176 C 
ATOM      7  C   UNL A   1     -21.718   1.866  26.923  0.00  0.00    +0.044 C 
ENDROOT
BRANCH   2   8
ATOM      8  O   UNL A   1     -23.279   1.795  25.307  0.00  0.00    -0.289 OA
ATOM      9  F   UNL A   1     -22.715   3.013  25.175  0.00  0.00    +0.014 F 
ENDBRANCH   2   8
BRANCH   6  10
ATOM     10  O   UNL A   1     -24.655   1.427  27.076  0.00  0.00    -0.448 OA
BRANCH  10  11
ATOM     11  C   UNL A   1     -25.688   1.614  26.461  0.00  0.00    +0.183 C 
ATOM     12  C   UNL A   1     -26.250   2.920  26.395  0.00  0.00    +0.111 C 
ATOM     13  C   UNL A   1     -27.438   3.091  25.645  0.00  0.00    +0.110 C 
ATOM     14  N   UNL A   1     -28.075   2.089  25.003  0.00  0.00    -0.208 NA
ATOM     15  C   UNL A   1     -27.543   0.849  25.079  0.00  0.00    +0.256 C 
ATOM     16  C   UNL A   1     -26.354   0.576  25.777  0.00  0.00    +0.227 C 
ATOM     17  F   UNL A   1     -25.860  -0.681  25.795  0.00  0.00    -0.196 F 
BRANCH  12  18
ATOM     18  C   UNL A   1     -25.642   4.093  27.123  0.00  0.00    +0.269 C 
ATOM     19  N   UNL A   1     -25.614   5.252  26.449  0.00  0.00    -0.200 NA
ATOM     20  C   UNL A   1     -25.026   6.479  26.963  0.00  0.00    +0.139 C 
ATOM     21  O   UNL A   1     -25.143   3.966  28.243  0.00  0.00    -0.268 OA
ENDBRANCH  12  18
BRANCH  15  22
ATOM     22  O   UNL A   1     -28.193  -0.208  24.477  0.00  0.00    -0.456 OA
BRANCH  22  23
ATOM     23  C   UNL A   1     -29.460   0.005  23.866  0.00  0.00    +0.243 C 
BRANCH  23  24
ATOM     24  C   UNL A   1     -30.065  -1.377  23.573  0.00  0.00    +0.229 C 
ATOM     25  O   UNL A   1     -30.729  -1.878  24.721  0.00  0.00    -0.216 OA
ENDBRANCH  23  24
ENDBRANCH  22  23
ENDBRANCH  15  22
ENDBRANCH  10  11
ENDBRANCH   6  10
BRANCH   3  26
ATOM     26  C   UNL A   1     -25.021   0.006  29.124  0.00  0.00    +0.029 C 
BRANCH  26  28
ATOM     27  N   UNL A   1     -27.980   2.247  29.239  0.00  0.00    -0.273 NA
ATOM     28  C   UNL A   1     -26.446   0.492  29.047  0.00  0.00    +0.022 C 
ATOM     29  C   UNL A   1     -27.858  -0.036  29.009  0.00  0.00    +0.019 C 
ATOM     30  C   UNL A   1     -28.531   1.327  28.613  0.00  0.00    +0.072 C 
ATOM     31  C   UNL A   1     -26.894   1.837  29.570  0.00  0.00    +0.072 C 
BRANCH  27  32
ATOM     32  C   UNL A   1     -28.548   3.579  29.614  0.00  0.00    +0.072 C 
ATOM     33  C   UNL A   1     -30.075   3.428  29.648  0.00  0.00    +0.019 C 
ENDBRANCH  27  32
ENDBRANCH  26  28
BRANCH  26  34
ATOM     34  C   UNL A   1     -24.855  -1.012  30.143  0.00  0.00    +0.042 C 
BRANCH  34  35
ATOM     35  C   UNL A   1     -24.973  -2.505  29.788  0.00  0.00    -0.021 C 
ATOM     36  C   UNL A   1     -23.906  -3.173  29.146  0.00  0.00    -0.004 C 
ATOM     37  C   UNL A   1     -23.989  -4.549  28.853  0.00  0.00    -0.000 C 
ATOM     38  C   UNL A   1     -25.137  -5.280  29.205  0.00  0.00    -0.000 C 
ATOM     39  C   UNL A   1     -26.232  -4.611  29.784  0.00  0.00    -0.000 C 
ATOM     40  C   UNL A   1     -26.155  -3.232  30.065  0.00  0.00    -0.004 C 
ENDBRANCH  34  35
BRANCH  34  41
ATOM     41  C   UNL A   1     -25.387  -0.679  31.571  0.00  0.00    +0.077 C 
ATOM     42  C   UNL A   1     -25.189   0.773  32.028  0.00  0.00    +0.019 C 
ATOM     43  C   UNL A   1     -25.336   0.684  33.544  0.00  0.00    +0.020 C 
ATOM     44  C   UNL A   1     -24.829  -0.715  33.905  0.00  0.00    +0.089 C 
ATOM     45  N   UNL A   1     -24.758  -1.481  32.646  0.00  0.00    -0.219 NA
ENDBRANCH  34  41
ENDBRANCH  26  34
ENDBRANCH   3  26
TORSDOF 13
