MODEL 4714
MODEL 1
REMARK VINA RESULT:    -6.378      0.000      0.000
REMARK INTER + INTRA:          -7.765
REMARK INTER:                  -7.497
REMARK INTRA:                  -0.269
REMARK UNBOUND:                -0.269
REMARK  Name = No_4714-gen_results/8p0m/2024-11-27-11-27-31/
REMARK  3 active torsions:
REMARK  status: ('A' for Active; 'I' for Inactive)
REMARK    1  A    between atoms: C_1  and  C_8
REMARK    2  A    between atoms: C_2  and  C_3
REMARK    3  A    between atoms: C_4  and  C_5
REMARK                            x       y       z     vdW  Elec       q    Type
REMARK                         _______ _______ _______ _____ _____    ______ ____
ROOT
ATOM      1  C   UNL A   1     -28.749 -12.027  30.934  0.00  0.00    +0.174 C 
ATOM      2  C   UNL A   1     -28.840 -12.219  32.062  0.00  0.00    -0.000 C 
ATOM      3  F   UNL A   1     -27.477 -11.772  30.996  0.00  0.00    -0.196 F 
ATOM      4  C   UNL A   1     -29.689 -13.416  32.394  0.00  0.00    +0.030 C 
ENDROOT
BRANCH   2   5
ATOM      5  C   UNL A   1     -28.402 -11.369  33.069  0.00  0.00    +0.099 C 
ATOM      6  C   UNL A   1     -27.306 -11.669  33.900  0.00  0.00    +0.245 C 
ATOM      7  N   UNL A   1     -26.674 -10.626  34.530  0.00  0.00    -0.205 NA
ATOM      8  O   UNL A   1     -26.921 -12.820  33.971  0.00  0.00    -0.273 OA
ATOM      9  C   UNL A   1     -29.066  -9.984  33.308  0.00  0.00    +0.015 C 
ATOM     10  C   UNL A   1     -28.486  -9.079  34.187  0.00  0.00    +0.024 C 
ATOM     11  C   UNL A   1     -27.280  -9.478  34.853  0.00  0.00    +0.115 C 
ENDBRANCH   2   5
BRANCH   1  13
ATOM     12  C   UNL A   1     -29.160 -11.682  28.571  0.00  0.00    +0.027 C 
ATOM     13  C   UNL A   1     -28.848 -11.664  29.739  0.00  0.00    -0.025 C 
BRANCH  12  14
ATOM     14  C   UNL A   1     -29.119 -12.071  27.221  0.00  0.00    +0.430 C 
ATOM     15  O   UNL A   1     -29.620 -11.349  26.435  0.00  0.00    -0.231 OA
ATOM     16  O   UNL A   1     -29.015 -13.247  26.911  0.00  0.00    -0.231 OA
ENDBRANCH  12  14
ENDBRANCH   1  13
TORSDOF 3
ENDMDL
ENDMDL
