MODEL 4715
MODEL 1
REMARK VINA RESULT:    -8.793      0.000      0.000
REMARK INTER + INTRA:         -14.334
REMARK INTER:                 -11.877
REMARK INTRA:                  -2.457
REMARK UNBOUND:                -2.457
REMARK  Name = No_4715-gen_results/8p0m/2024-11-27-11-27-31/
REMARK  6 active torsions:
REMARK  status: ('A' for Active; 'I' for Inactive)
REMARK    1  A    between atoms: C_3  and  C_7
REMARK    2  A    between atoms: C_7  and  C_15
REMARK    3  A    between atoms: C_8  and  C_9
REMARK    4  A    between atoms: C_13  and  C_23
REMARK    5  A    between atoms: C_26  and  C_30
REMARK    6  A    between atoms: N_31  and  C_32
REMARK                            x       y       z     vdW  Elec       q    Type
REMARK                         _______ _______ _______ _____ _____    ______ ____
ROOT
ATOM      1  C   UNL A   1     -24.720   1.248  26.248  0.00  0.00    -0.004 A 
ATOM      2  C   UNL A   1     -23.459   1.879  25.841  0.00  0.00    -0.000 A 
ATOM      3  C   UNL A   1     -22.521   2.187  26.824  0.00  0.00    -0.000 A 
ATOM      4  C   UNL A   1     -22.722   1.785  28.150  0.00  0.00    +0.000 A 
ATOM      5  C   UNL A   1     -23.896   1.124  28.482  0.00  0.00    +0.000 A 
ATOM      6  C   UNL A   1     -24.821   0.819  27.580  0.00  0.00    -0.000 A 
ENDROOT
BRANCH   5   7
ATOM      7  C   UNL A   1     -24.060   0.770  29.960  0.00  0.00    +0.004 A 
ATOM      8  C   UNL A   1     -24.475   1.690  30.811  0.00  0.00    +0.001 A 
ATOM      9  C   UNL A   1     -24.848   1.352  32.117  0.00  0.00    +0.011 A 
ATOM     10  C   UNL A   1     -23.864  -0.602  30.330  0.00  0.00    +0.056 A 
ATOM     11  C   UNL A   1     -24.157  -0.958  31.681  0.00  0.00    +0.016 A 
ATOM     12  C   UNL A   1     -24.622   0.009  32.573  0.00  0.00    +0.058 A 
ATOM     13 CL   UNL A   1     -24.992  -0.400  34.205  0.00  0.00    -0.082 Cl
BRANCH  10  14
ATOM     14  C   UNL A   1     -23.381  -1.650  29.456  0.00  0.00    +0.269 C 
ATOM     15  N   UNL A   1     -24.111  -2.428  28.971  0.00  0.00    -0.174 NA
ATOM     16  O   UNL A   1     -22.170  -1.603  29.113  0.00  0.00    -0.268 OA
BRANCH  15  17
ATOM     17  C   UNL A   1     -23.953  -3.540  28.498  0.00  0.00    +0.084 C 
ATOM     18  C   UNL A   1     -24.295  -4.721  29.228  0.00  0.00    -0.008 C 
ATOM     19  C   UNL A   1     -25.115  -5.697  28.855  0.00  0.00    +0.032 C 
ENDBRANCH  15  17
ENDBRANCH  10  14
ENDBRANCH   5   7
BRANCH   1  21
ATOM     20  C   UNL A   1     -26.758   1.344  25.162  0.00  0.00    -0.004 C 
ATOM     21  C   UNL A   1     -25.631   0.898  25.203  0.00  0.00    -0.022 C 
ATOM     22  C   UNL A   1     -25.212  -0.219  24.415  0.00  0.00    +0.031 C 
BRANCH  20  25
ATOM     23  C   UNL A   1     -26.859   3.680  26.212  0.00  0.00    +0.007 A 
ATOM     24  C   UNL A   1     -27.296   4.307  26.938  0.00  0.00    +0.035 A 
ATOM     25  C   UNL A   1     -27.275   2.331  26.169  0.00  0.00    +0.000 A 
ATOM     26  C   UNL A   1     -28.212   1.827  27.050  0.00  0.00    +0.000 A 
ATOM     27  C   UNL A   1     -28.305   4.027  27.978  0.00  0.00    +0.007 A 
ATOM     28  C   UNL A   1     -28.730   2.745  27.973  0.00  0.00    +0.001 A 
ATOM     29 BR   UNL A   1     -26.804   6.236  27.073  0.00  0.00    -0.049 Br
ENDBRANCH  20  25
BRANCH  20  30
ATOM     30  C   UNL A   1     -27.761   1.119  24.130  0.00  0.00    -0.000 A 
ATOM     31  C   UNL A   1     -28.705   0.009  24.442  0.00  0.00    -0.000 A 
ATOM     32  C   UNL A   1     -30.109   0.195  24.197  0.00  0.00    -0.000 A 
ATOM     33  C   UNL A   1     -30.615   1.366  23.651  0.00  0.00    -0.000 A 
ATOM     34  C   UNL A   1     -29.644   2.336  23.303  0.00  0.00    -0.000 A 
ATOM     35  C   UNL A   1     -28.395   2.268  23.637  0.00  0.00    -0.000 A 
ENDBRANCH  20  30
ENDBRANCH   1  21
TORSDOF 6
ENDMDL
ENDMDL
