MODEL 4716
MODEL 1
REMARK VINA RESULT:    -8.704      0.000      0.000
REMARK INTER + INTRA:         -12.581
REMARK INTER:                 -11.249
REMARK INTRA:                  -1.332
REMARK UNBOUND:                -1.332
REMARK  Name = No_4716-gen_results/8p0m/2024-11-27-11-27-31/
REMARK  5 active torsions:
REMARK  status: ('A' for Active; 'I' for Inactive)
REMARK    1  A    between atoms: C_3  and  C_4
REMARK    2  A    between atoms: C_7  and  C_13
REMARK    3  A    between atoms: N_14  and  C_15
REMARK    4  A    between atoms: C_17  and  C_24
REMARK    5  A    between atoms: C_19  and  C_27
REMARK                            x       y       z     vdW  Elec       q    Type
REMARK                         _______ _______ _______ _____ _____    ______ ____
ROOT
ATOM      1  C   UNL A   1      -8.099  -0.254  35.666  0.00  0.00    +0.074 A 
ATOM      2  C   UNL A   1      -8.568   0.647  34.780  0.00  0.00    +0.025 A 
ATOM      3  C   UNL A   1      -9.959   1.048  34.893  0.00  0.00    +0.108 A 
ATOM      4  C   UNL A   1     -10.750   0.540  35.935  0.00  0.00    +0.146 A 
ATOM      5  C   UNL A   1     -10.247  -0.349  36.849  0.00  0.00    +0.029 A 
ATOM      6  C   UNL A   1      -8.903  -0.818  36.737  0.00  0.00    +0.019 A 
ATOM      7  F   UNL A   1     -11.994   0.993  36.051  0.00  0.00    -0.204 F 
ENDROOT
BRANCH   5   8
ATOM      8  C   UNL A   1     -11.010  -0.833  37.962  0.00  0.00    +0.003 A 
ATOM      9  C   UNL A   1     -11.505  -2.069  37.992  0.00  0.00    +0.000 A 
ATOM     10  C   UNL A   1     -12.183  -2.491  39.096  0.00  0.00    +0.001 A 
ATOM     11  C   UNL A   1     -12.399  -1.598  40.179  0.00  0.00    +0.011 A 
ATOM     12  C   UNL A   1     -11.839  -0.329  40.179  0.00  0.00    +0.058 A 
ATOM     13  C   UNL A   1     -11.144   0.080  39.044  0.00  0.00    +0.011 A 
ATOM     14 CL   UNL A   1     -12.039   0.737  41.492  0.00  0.00    -0.082 Cl
ENDBRANCH   5   8
BRANCH   1  16
ATOM     15  C   UNL A   1      -5.764  -0.124  35.360  0.00  0.00    +0.269 C 
ATOM     16  N   UNL A   1      -6.867  -0.848  35.465  0.00  0.00    -0.175 NA
ATOM     17  O   UNL A   1      -5.514   0.795  36.182  0.00  0.00    -0.268 OA
BRANCH  15  21
ATOM     18  C   UNL A   1      -4.447  -2.082  34.304  0.00  0.00    +0.005 A 
ATOM     19  C   UNL A   1      -3.528  -2.444  33.606  0.00  0.00    +0.000 A 
ATOM     20  C   UNL A   1      -2.527  -1.589  33.145  0.00  0.00    +0.000 A 
ATOM     21  C   UNL A   1      -4.618  -0.619  34.554  0.00  0.00    +0.055 A 
ATOM     22  C   UNL A   1      -3.653   0.289  34.218  0.00  0.00    +0.005 A 
ATOM     23  C   UNL A   1      -2.543  -0.136  33.438  0.00  0.00    +0.000 A 
BRANCH  20  24
ATOM     24  C   UNL A   1      -1.381  -1.941  32.284  0.00  0.00    +0.001 A 
ATOM     25  C   UNL A   1      -0.492  -3.056  32.481  0.00  0.00    +0.000 A 
ATOM     26  C   UNL A   1       0.565  -3.304  31.584  0.00  0.00    +0.001 A 
ATOM     27  C   UNL A   1       0.630  -2.656  30.311  0.00  0.00    +0.011 A 
ATOM     28  C   UNL A   1      -1.176  -1.286  30.993  0.00  0.00    +0.011 A 
ATOM     29  C   UNL A   1      -0.211  -1.637  30.095  0.00  0.00    +0.058 A 
ATOM     30 CL   UNL A   1      -0.181  -0.771  28.604  0.00  0.00    -0.082 Cl
ENDBRANCH  20  24
ENDBRANCH  15  21
ENDBRANCH   1  16
BRANCH   3  31
ATOM     31  C   UNL A   1     -10.497   1.982  33.901  0.00  0.00    +0.390 C 
ATOM     32  O   UNL A   1     -10.831   1.531  32.791  0.00  0.00    -0.240 OA
ATOM     33  O   UNL A   1     -10.650   3.191  34.173  0.00  0.00    -0.240 OA
ENDBRANCH   3  31
TORSDOF 5
ENDMDL
ENDMDL
