REMARK  Name = outputs/IAG933/test6/raw/output_4716_IAG933_linker_design_.xyz
REMARK  11 active torsions:
REMARK  status: ('A' for Active; 'I' for Inactive)
REMARK    1  A    between atoms: C_1  and  C_2
REMARK    2  A    between atoms: C_1  and  C_8
REMARK    3  A    between atoms: C_1  and  C_38
REMARK    4  A    between atoms: C_13  and  N_29
REMARK    5  A    between atoms: C_14  and  C_15
REMARK    6  A    between atoms: C_21  and  O_22
REMARK    7  A    between atoms: O_22  and  C_23
REMARK    8  A    between atoms: C_23  and  C_24
REMARK    9  A    between atoms: C_28  and  O_39
REMARK   10  A    between atoms: C_33  and  C_38
REMARK   11  A    between atoms: N_35  and  C_38
REMARK                            x       y       z     vdW  Elec       q    Type
REMARK                         _______ _______ _______ _____ _____    ______ ____
ROOT
ATOM      1  N   UNL A   1     -24.489   1.385  27.082  0.00  0.00    -0.283 N 
ATOM      2  C   UNL A   1     -21.920   1.677  27.376  0.00  0.00    +0.057 C 
ATOM      3  O   UNL A   1     -23.975   1.922  29.465  0.00  0.00    -0.333 OA
ATOM      4  C   UNL A   1     -23.325   2.166  26.582  0.00  0.00    +0.096 C 
ATOM      5  C   UNL A   1     -24.618   0.889  28.669  0.00  0.00    +0.213 C 
ATOM      6  O   UNL A   1     -22.038  -0.491  28.917  0.00  0.00    -0.220 OA
ATOM      7  C   UNL A   1     -22.819   1.643  29.874  0.00  0.00    +0.177 C 
ATOM      8  C   UNL A   1     -21.864   0.828  28.710  0.00  0.00    +0.183 C 
ENDROOT
BRANCH   1   9
ATOM      9  C   UNL A   1     -25.688   1.614  26.461  0.00  0.00    +0.088 C 
ATOM     10  C   UNL A   1     -26.250   2.920  26.395  0.00  0.00    +0.090 C 
ATOM     11  C   UNL A   1     -27.438   3.091  25.645  0.00  0.00    +0.108 C 
ATOM     12  N   UNL A   1     -28.075   2.089  25.003  0.00  0.00    -0.208 NA
ATOM     13  C   UNL A   1     -27.543   0.849  25.079  0.00  0.00    +0.255 C 
ATOM     14  C   UNL A   1     -26.354   0.576  25.777  0.00  0.00    +0.206 C 
ATOM     15  F   UNL A   1     -25.860  -0.681  25.795  0.00  0.00    -0.198 F 
BRANCH  10  16
ATOM     16  C   UNL A   1     -25.642   4.093  27.123  0.00  0.00    +0.268 C 
ATOM     17  N   UNL A   1     -25.614   5.252  26.449  0.00  0.00    -0.200 NA
ATOM     18  C   UNL A   1     -25.026   6.479  26.963  0.00  0.00    +0.139 C 
ATOM     19  O   UNL A   1     -25.143   3.966  28.243  0.00  0.00    -0.268 OA
ENDBRANCH  10  16
BRANCH  13  20
ATOM     20  O   UNL A   1     -28.193  -0.208  24.477  0.00  0.00    -0.456 OA
BRANCH  20  21
ATOM     21  C   UNL A   1     -29.460   0.005  23.866  0.00  0.00    +0.243 C 
BRANCH  21  22
ATOM     22  C   UNL A   1     -30.065  -1.377  23.573  0.00  0.00    +0.229 C 
ATOM     23  O   UNL A   1     -30.729  -1.878  24.721  0.00  0.00    -0.216 OA
ENDBRANCH  21  22
ENDBRANCH  20  21
ENDBRANCH  13  20
ENDBRANCH   1   9
BRANCH   5  24
ATOM     24  C   UNL A   1     -25.192  -0.236  28.900  0.00  0.00    +0.150 C 
BRANCH  24  26
ATOM     25  C   UNL A   1     -27.460   0.860  29.174  0.00  0.00    +0.421 C 
ATOM     26  N   UNL A   1     -26.696  -0.115  28.717  0.00  0.00    -0.166 NA
ATOM     27  O   UNL A   1     -27.025   2.010  29.479  0.00  0.00    -0.225 OA
BRANCH  25  28
ATOM     28  O   UNL A   1     -28.884   0.594  29.444  0.00  0.00    -0.429 OA
ATOM     29  C   UNL A   1     -29.461   1.084  30.515  0.00  0.00    +0.257 C 
ENDBRANCH  25  28
ENDBRANCH  24  26
BRANCH  24  30
ATOM     30  C   UNL A   1     -24.855  -1.012  30.143  0.00  0.00    +0.063 C 
BRANCH  30  31
ATOM     31  C   UNL A   1     -24.973  -2.505  29.788  0.00  0.00    -0.019 C 
ATOM     32  C   UNL A   1     -23.906  -3.173  29.146  0.00  0.00    -0.004 C 
ATOM     33  C   UNL A   1     -23.989  -4.549  28.853  0.00  0.00    -0.000 C 
ATOM     34  C   UNL A   1     -25.137  -5.280  29.205  0.00  0.00    -0.000 C 
ATOM     35  C   UNL A   1     -26.232  -4.611  29.784  0.00  0.00    -0.000 C 
ATOM     36  C   UNL A   1     -26.155  -3.232  30.065  0.00  0.00    -0.004 C 
ENDBRANCH  30  31
BRANCH  30  37
ATOM     37  C   UNL A   1     -25.387  -0.679  31.571  0.00  0.00    +0.079 C 
ATOM     38  C   UNL A   1     -25.189   0.773  32.028  0.00  0.00    +0.019 C 
ATOM     39  C   UNL A   1     -25.336   0.684  33.544  0.00  0.00    +0.020 C 
ATOM     40  C   UNL A   1     -24.829  -0.715  33.905  0.00  0.00    +0.089 C 
ATOM     41  N   UNL A   1     -24.758  -1.481  32.646  0.00  0.00    -0.219 NA
ENDBRANCH  30  37
ENDBRANCH  24  30
ENDBRANCH   5  24
TORSDOF 11
