MODEL 4717
MODEL 1
REMARK VINA RESULT:    -5.658      0.000      0.000
REMARK INTER + INTRA:          -6.223
REMARK INTER:                  -5.989
REMARK INTRA:                  -0.235
REMARK UNBOUND:                -0.235
REMARK  Name = No_4717-gen_results/8p0m/2024-11-27-11-27-31/
REMARK  1 active torsions:
REMARK  status: ('A' for Active; 'I' for Inactive)
REMARK    1  A    between atoms: C_4  and  C_7
REMARK                            x       y       z     vdW  Elec       q    Type
REMARK                         _______ _______ _______ _____ _____    ______ ____
ROOT
ATOM      1  C   UNL A   1     -24.726  -5.293  28.923  0.00  0.00    -0.000 A 
ATOM      2  C   UNL A   1     -25.675  -5.150  29.356  0.00  0.00    -0.000 A 
ATOM      3  C   UNL A   1     -23.951  -4.080  28.618  0.00  0.00    -0.000 A 
ATOM      4  C   UNL A   1     -24.420  -2.798  29.028  0.00  0.00    -0.004 A 
ATOM      5  C   UNL A   1     -25.649  -2.774  29.638  0.00  0.00    -0.000 A 
ATOM      6  C   UNL A   1     -26.330  -3.917  29.870  0.00  0.00    -0.000 A 
ENDROOT
BRANCH   4   7
ATOM      7  C   UNL A   1     -23.652  -1.599  28.747  0.00  0.00    -0.026 C 
ATOM      8  C   UNL A   1     -22.634  -1.200  29.331  0.00  0.00    -0.030 C 
ATOM      9  C   UNL A   1     -21.783  -0.092  28.884  0.00  0.00    +0.030 C 
ATOM     10  C   UNL A   1     -24.655  -0.474  28.480  0.00  0.00    +0.031 C 
ENDBRANCH   4   7
TORSDOF 1
ENDMDL
ENDMDL
