REMARK  Name = No_4718-gen_results/8p0m/2024-11-27-11-27-31/
REMARK  0 active torsions:
REMARK  status: ('A' for Active; 'I' for Inactive)
REMARK                            x       y       z     vdW  Elec       q    Type
REMARK                         _______ _______ _______ _____ _____    ______ ____
ROOT
ATOM      1  C   UNL A   1     -28.016  -0.814  28.878  0.00  0.00    +0.011 A 
ATOM      2  C   UNL A   1     -27.064  -0.119  28.608  0.00  0.00    +0.058 A 
ATOM      3 CL   UNL A   1     -26.902   0.613  27.238  0.00  0.00    -0.082 Cl
ATOM      4  C   UNL A   1     -27.986  -1.529  30.149  0.00  0.00    +0.001 A 
ATOM      5  C   UNL A   1     -26.834  -1.495  30.980  0.00  0.00    +0.000 A 
ATOM      6  C   UNL A   1     -25.717  -0.792  30.585  0.00  0.00    +0.001 A 
ATOM      7  C   UNL A   1     -25.799  -0.100  29.364  0.00  0.00    +0.011 A 
ENDROOT
TORSDOF 0
