MODEL 4719
MODEL 1
REMARK VINA RESULT:    -5.219      0.000      0.000
REMARK INTER + INTRA:          -5.219
REMARK INTER:                  -5.219
REMARK INTRA:                   0.000
REMARK UNBOUND:                 0.000
REMARK  Name = No_4719-gen_results/8p0m/2024-11-27-11-27-31/
REMARK  0 active torsions:
REMARK  status: ('A' for Active; 'I' for Inactive)
REMARK                            x       y       z     vdW  Elec       q    Type
REMARK                         _______ _______ _______ _____ _____    ______ ____
ROOT
ATOM      1  C   UNL A   1     -25.407  -2.478  30.069  0.00  0.00    +0.019 A 
ATOM      2  C   UNL A   1     -25.776  -1.492  30.089  0.00  0.00    +0.099 A 
ATOM      3  C   UNL A   1     -26.455  -3.493  29.904  0.00  0.00    +0.002 A 
ATOM      4  C   UNL A   1     -26.110  -4.905  29.653  0.00  0.00    +0.000 A 
ATOM      5  C   UNL A   1     -24.917  -5.173  28.944  0.00  0.00    +0.000 A 
ATOM      6  C   UNL A   1     -24.000  -4.094  28.717  0.00  0.00    +0.000 A 
ATOM      7  C   UNL A   1     -24.290  -2.853  29.110  0.00  0.00    +0.003 A 
ATOM      8  N   UNL A   1     -24.799  -0.409  30.284  0.00  0.00    -0.242 NA
ATOM      9  C   UNL A   1     -23.587  -0.579  29.661  0.00  0.00    +0.099 A 
ATOM     10  C   UNL A   1     -23.210  -1.837  29.058  0.00  0.00    +0.021 A 
ENDROOT
TORSDOF 0
ENDMDL
ENDMDL
