MODEL 471
MODEL 1
REMARK VINA RESULT:    -7.241      0.000      0.000
REMARK INTER + INTRA:          -8.712
REMARK INTER:                  -8.088
REMARK INTRA:                  -0.624
REMARK UNBOUND:                -0.624
REMARK  Name = No_471-gen_results/8p0m/2024-11-27-11-27-31/
REMARK  2 active torsions:
REMARK  status: ('A' for Active; 'I' for Inactive)
REMARK    1  A    between atoms: C_3  and  C_4
REMARK    2  A    between atoms: C_9  and  C_13
REMARK                            x       y       z     vdW  Elec       q    Type
REMARK                         _______ _______ _______ _____ _____    ______ ____
ROOT
ATOM      1  C   UNL A   1     -23.661  -1.350  28.814  0.00  0.00    -0.000 A 
ATOM      2  C   UNL A   1     -24.166  -0.498  27.813  0.00  0.00    +0.004 A 
ATOM      3  C   UNL A   1     -23.412   0.703  27.517  0.00  0.00    +0.071 A 
ATOM      4  C   UNL A   1     -22.255   1.001  28.190  0.00  0.00    +0.004 A 
ATOM      5  C   UNL A   1     -21.715  -0.023  28.969  0.00  0.00    -0.000 A 
ATOM      6  C   UNL A   1     -22.456  -1.110  29.369  0.00  0.00    -0.000 A 
ENDROOT
BRANCH   1   9
ATOM      7  C   UNL A   1     -25.847  -2.371  29.769  0.00  0.00    -0.000 A 
ATOM      8  C   UNL A   1     -26.352  -3.289  29.880  0.00  0.00    -0.000 A 
ATOM      9  C   UNL A   1     -24.520  -2.502  29.167  0.00  0.00    -0.000 A 
ATOM     10  C   UNL A   1     -26.043  -4.678  29.573  0.00  0.00    +0.000 A 
ATOM     11  C   UNL A   1     -24.793  -4.845  29.015  0.00  0.00    -0.000 A 
ATOM     12  C   UNL A   1     -24.031  -3.768  28.752  0.00  0.00    -0.000 A 
ENDBRANCH   1   9
BRANCH   3  13
ATOM     13  C   UNL A   1     -23.971   1.730  26.597  0.00  0.00    +0.419 C 
ATOM     14  F   UNL A   1     -24.565   2.539  27.189  0.00  0.00    -0.166 F 
ATOM     15  F   UNL A   1     -22.791   2.297  25.966  0.00  0.00    -0.166 F 
ATOM     16  F   UNL A   1     -24.701   1.173  25.639  0.00  0.00    -0.166 F 
ENDBRANCH   3  13
TORSDOF 2
ENDMDL
ENDMDL
