MODEL 4720
MODEL 1
REMARK VINA RESULT:    -4.447      0.000      0.000
REMARK INTER + INTRA:          -5.387
REMARK INTER:                  -5.227
REMARK INTRA:                  -0.160
REMARK UNBOUND:                -0.160
REMARK  Name = No_4720-gen_results/8p0m/2024-11-27-11-27-31/
REMARK  3 active torsions:
REMARK  status: ('A' for Active; 'I' for Inactive)
REMARK    1  A    between atoms: C_1  and  C_2
REMARK    2  A    between atoms: C_2  and  C_5
REMARK    3  A    between atoms: C_6  and  C_7
REMARK                            x       y       z     vdW  Elec       q    Type
REMARK                         _______ _______ _______ _____ _____    ______ ____
ROOT
ATOM      1  C   UNL A   1     -23.730  -2.780  28.919  0.00  0.00    +0.011 C 
ATOM      2  C   UNL A   1     -24.019  -2.145  29.872  0.00  0.00    -0.002 C 
ENDROOT
BRANCH   2   3
ATOM      3  C   UNL A   1     -23.503  -0.743  30.017  0.00  0.00    -0.005 C 
ATOM      4  C   UNL A   1     -23.081  -0.362  31.302  0.00  0.00    -0.026 C 
ATOM      5  C   UNL A   1     -23.106  -1.226  32.327  0.00  0.00    +0.031 C 
ENDBRANCH   2   3
BRANCH   1   6
ATOM      6  C   UNL A   1     -24.296  -4.119  28.698  0.00  0.00    +0.218 C 
ATOM      7  F   UNL A   1     -23.552  -4.874  28.065  0.00  0.00    -0.229 F 
BRANCH   6   8
ATOM      8  C   UNL A   1     -25.156  -4.701  29.317  0.00  0.00    +0.233 C 
ATOM      9  F   UNL A   1     -25.024  -6.087  28.847  0.00  0.00    -0.231 F 
ENDBRANCH   6   8
ENDBRANCH   1   6
TORSDOF 3
ENDMDL
ENDMDL
