MODEL 4721
MODEL 1
REMARK VINA RESULT:    -6.667      0.000      0.000
REMARK INTER + INTRA:          -7.793
REMARK INTER:                  -7.447
REMARK INTRA:                  -0.346
REMARK UNBOUND:                -0.346
REMARK  Name = No_4721-gen_results/8p0m/2024-11-27-11-27-31/
REMARK  2 active torsions:
REMARK  status: ('A' for Active; 'I' for Inactive)
REMARK    1  A    between atoms: C_1  and  C_2
REMARK    2  A    between atoms: N_8  and  C_10
REMARK                            x       y       z     vdW  Elec       q    Type
REMARK                         _______ _______ _______ _____ _____    ______ ____
ROOT
ATOM      1  C   UNL A   1     -28.441 -12.072  32.665  0.00  0.00    +0.055 A 
ATOM      2  C   UNL A   1     -28.435 -11.533  31.383  0.00  0.00    +0.005 A 
ATOM      3  C   UNL A   1     -29.103 -12.112  30.182  0.00  0.00    +0.000 A 
ATOM      4  C   UNL A   1     -29.662 -13.414  30.345  0.00  0.00    +0.000 A 
ATOM      5  C   UNL A   1     -29.604 -13.968  31.640  0.00  0.00    +0.000 A 
ATOM      6  C   UNL A   1     -29.033 -13.373  32.697  0.00  0.00    +0.005 A 
ATOM      7  C   UNL A   1     -30.282 -14.011  29.190  0.00  0.00    +0.000 A 
ATOM      8  C   UNL A   1     -30.061 -13.397  27.910  0.00  0.00    +0.000 A 
ATOM      9  C   UNL A   1     -29.485 -12.120  27.806  0.00  0.00    +0.000 A 
ATOM     10  C   UNL A   1     -28.917 -11.511  28.920  0.00  0.00    +0.000 A 
ENDROOT
BRANCH   1  11
ATOM     11  C   UNL A   1     -27.873 -11.518  33.577  0.00  0.00    +0.269 C 
ATOM     12  N   UNL A   1     -28.186 -10.179  33.920  0.00  0.00    -0.174 NA
ATOM     13  O   UNL A   1     -27.266 -12.142  34.494  0.00  0.00    -0.268 OA
BRANCH  12  14
ATOM     14  C   UNL A   1     -27.670  -9.424  35.055  0.00  0.00    +0.093 A 
ATOM     15  C   UNL A   1     -26.870  -8.579  34.921  0.00  0.00    +0.115 A 
ATOM     16  N   UNL A   1     -26.437  -8.072  35.777  0.00  0.00    -0.241 NA
ATOM     17  C   UNL A   1     -28.663  -8.874  35.948  0.00  0.00    +0.020 A 
ATOM     18  C   UNL A   1     -28.331  -8.225  37.090  0.00  0.00    +0.022 A 
ATOM     19  C   UNL A   1     -27.180  -7.451  36.803  0.00  0.00    +0.099 A 
ENDBRANCH  12  14
ENDBRANCH   1  11
TORSDOF 2
ENDMDL
ENDMDL
