MODEL 4722
MODEL 1
REMARK VINA RESULT:    -4.867      0.000      0.000
REMARK INTER + INTRA:          -4.867
REMARK INTER:                  -4.867
REMARK INTRA:                   0.000
REMARK UNBOUND:                 0.000
REMARK  Name = No_4722-gen_results/8p0m/2024-11-27-11-27-31/
REMARK  0 active torsions:
REMARK  status: ('A' for Active; 'I' for Inactive)
REMARK                            x       y       z     vdW  Elec       q    Type
REMARK                         _______ _______ _______ _____ _____    ______ ____
ROOT
ATOM      1  C   UNL A   1     -26.403  -3.818  29.663  0.00  0.00    +0.004 C 
ATOM      2  C   UNL A   1     -26.112  -4.824  29.776  0.00  0.00    +0.001 C 
ATOM      3  C   UNL A   1     -25.302  -2.869  29.820  0.00  0.00    +0.022 C 
ATOM      4  C   UNL A   1     -24.400  -2.806  28.986  0.00  0.00    -0.049 C 
ATOM      5  C   UNL A   1     -23.399  -1.785  28.922  0.00  0.00    -0.034 C 
ATOM      6  C   UNL A   1     -24.935  -5.350  28.886  0.00  0.00    +0.004 C 
ATOM      7  C   UNL A   1     -23.935  -4.282  28.763  0.00  0.00    +0.022 C 
ATOM      8  C   UNL A   1     -23.020  -1.078  29.755  0.00  0.00    +0.030 C 
ENDROOT
TORSDOF 0
ENDMDL
ENDMDL
