REMARK  Name = No_4723-gen_results/8p0m/2024-11-27-11-27-31/
REMARK  0 active torsions:
REMARK  status: ('A' for Active; 'I' for Inactive)
REMARK                            x       y       z     vdW  Elec       q    Type
REMARK                         _______ _______ _______ _____ _____    ______ ____
ROOT
ATOM      1  C   UNL A   1     -28.016  -0.814  28.878  0.00  0.00    +0.031 A 
ATOM      2  C   UNL A   1     -28.469  -0.785  29.829  0.00  0.00    +0.059 A 
ATOM      3  C   UNL A   1     -26.546  -0.876  28.850  0.00  0.00    +0.085 A 
ATOM      4  C   UNL A   1     -25.804  -1.032  30.057  0.00  0.00    +0.018 A 
ATOM      5  C   UNL A   1     -26.537  -1.039  31.217  0.00  0.00    +0.002 A 
ATOM      6  C   UNL A   1     -27.884  -0.953  31.186  0.00  0.00    +0.011 A 
ATOM      7  C   UNL A   1     -24.355  -1.112  30.035  0.00  0.00    +0.006 A 
ATOM      8  C   UNL A   1     -23.708  -1.192  30.883  0.00  0.00    +0.000 A 
ATOM      9  C   UNL A   1     -22.645  -0.449  31.227  0.00  0.00    +0.000 A 
ATOM     10  C   UNL A   1     -21.854  -0.082  30.070  0.00  0.00    +0.000 A 
ATOM     11  C   UNL A   1     -22.491  -0.110  28.792  0.00  0.00    +0.005 A 
ATOM     12  C   UNL A   1     -23.826  -0.598  28.737  0.00  0.00    +0.058 A 
ATOM     13  N   UNL A   1     -25.805  -0.805  27.717  0.00  0.00    -0.208 NA
ATOM     14  C   UNL A   1     -24.622  -0.470  27.653  0.00  0.00    +0.279 A 
ATOM     15 CL   UNL A   1     -30.292  -0.782  29.951  0.00  0.00    -0.082 Cl
ATOM     16  O   UNL A   1     -24.123   0.021  26.570  0.00  0.00    -0.265 OA
ENDROOT
TORSDOF 0
