MODEL 4723
MODEL 1
REMARK VINA RESULT:    -6.625      0.000      0.000
REMARK INTER + INTRA:          -6.625
REMARK INTER:                  -6.625
REMARK INTRA:                   0.000
REMARK UNBOUND:                 0.000
REMARK  Name = No_4723-gen_results/8p0m/2024-11-27-11-27-31/
REMARK  0 active torsions:
REMARK  status: ('A' for Active; 'I' for Inactive)
REMARK                            x       y       z     vdW  Elec       q    Type
REMARK                         _______ _______ _______ _____ _____    ______ ____
ROOT
ATOM      1  C   UNL A   1     -25.812   1.150  28.927  0.00  0.00    +0.031 A 
ATOM      2  C   UNL A   1     -25.035   1.481  28.297  0.00  0.00    +0.059 A 
ATOM      3  C   UNL A   1     -25.785  -0.269  29.317  0.00  0.00    +0.085 A 
ATOM      4  C   UNL A   1     -24.679  -1.096  28.966  0.00  0.00    +0.018 A 
ATOM      5  C   UNL A   1     -23.710  -0.508  28.192  0.00  0.00    +0.002 A 
ATOM      6  C   UNL A   1     -23.798   0.792  27.841  0.00  0.00    +0.011 A 
ATOM      7  C   UNL A   1     -24.638  -2.492  29.363  0.00  0.00    +0.006 A 
ATOM      8  C   UNL A   1     -23.875  -3.201  29.119  0.00  0.00    +0.000 A 
ATOM      9  C   UNL A   1     -23.979  -4.418  28.563  0.00  0.00    +0.000 A 
ATOM     10  C   UNL A   1     -25.140  -5.132  29.054  0.00  0.00    +0.000 A 
ATOM     11  C   UNL A   1     -26.205  -4.363  29.616  0.00  0.00    +0.005 A 
ATOM     12  C   UNL A   1     -26.001  -2.962  29.750  0.00  0.00    +0.058 A 
ATOM     13  N   UNL A   1     -26.766  -0.879  30.026  0.00  0.00    -0.208 NA
ATOM     14  C   UNL A   1     -26.989  -2.090  30.047  0.00  0.00    +0.279 A 
ATOM     15 CL   UNL A   1     -24.954   3.245  27.828  0.00  0.00    -0.082 Cl
ATOM     16  O   UNL A   1     -28.159  -2.551  30.332  0.00  0.00    -0.265 OA
ENDROOT
TORSDOF 0
ENDMDL
ENDMDL
