REMARK  Name = No_4724-gen_results/8p0m/2024-11-27-11-27-31/
REMARK  2 active torsions:
REMARK  status: ('A' for Active; 'I' for Inactive)
REMARK    1  A    between atoms: C_2  and  C_5
REMARK    2  A    between atoms: C_4  and  C_10
REMARK                            x       y       z     vdW  Elec       q    Type
REMARK                         _______ _______ _______ _____ _____    ______ ____
ROOT
ATOM      1  C   UNL A   1     -28.016  -0.814  28.878  0.00  0.00    +0.007 A 
ATOM      2  C   UNL A   1     -28.469  -0.785  29.829  0.00  0.00    +0.080 A 
ATOM      3  C   UNL A   1     -26.546  -0.876  28.850  0.00  0.00    +0.000 A 
ATOM      4  C   UNL A   1     -25.897  -0.827  29.889  0.00  0.00    +0.000 A 
ATOM      5  C   UNL A   1     -26.521  -0.818  31.157  0.00  0.00    +0.000 A 
ATOM      6  C   UNL A   1     -27.905  -0.807  31.160  0.00  0.00    +0.007 A 
ENDROOT
BRANCH   4   7
ATOM      7  C   UNL A   1     -24.360  -0.857  29.938  0.00  0.00    +0.000 A 
ATOM      8  C   UNL A   1     -23.646  -1.533  30.334  0.00  0.00    +0.000 A 
ATOM      9  C   UNL A   1     -23.774   0.325  29.159  0.00  0.00    +0.000 A 
ATOM     10  C   UNL A   1     -22.381   0.385  29.036  0.00  0.00    +0.000 A 
ATOM     11  C   UNL A   1     -22.196  -1.590  30.390  0.00  0.00    +0.000 A 
ATOM     12  C   UNL A   1     -21.602  -0.548  29.667  0.00  0.00    +0.000 A 
ENDBRANCH   4   7
BRANCH   2  13
ATOM     13  C   UNL A   1     -30.000  -0.769  29.928  0.00  0.00    +0.388 C 
ATOM     14  O   UNL A   1     -30.587   0.009  30.755  0.00  0.00    -0.241 OA
ATOM     15  O   UNL A   1     -30.631  -1.530  29.124  0.00  0.00    -0.241 OA
ENDBRANCH   2  13
TORSDOF 2
