MODEL 4724
MODEL 1
REMARK VINA RESULT:    -6.842      0.000      0.000
REMARK INTER + INTRA:          -8.106
REMARK INTER:                  -7.642
REMARK INTRA:                  -0.465
REMARK UNBOUND:                -0.465
REMARK  Name = No_4724-gen_results/8p0m/2024-11-27-11-27-31/
REMARK  2 active torsions:
REMARK  status: ('A' for Active; 'I' for Inactive)
REMARK    1  A    between atoms: C_2  and  C_5
REMARK    2  A    between atoms: C_4  and  C_10
REMARK                            x       y       z     vdW  Elec       q    Type
REMARK                         _______ _______ _______ _____ _____    ______ ____
ROOT
ATOM      1  C   UNL A   1     -29.076 -10.337  32.665  0.00  0.00    +0.007 A 
ATOM      2  C   UNL A   1     -28.338 -11.072  32.826  0.00  0.00    +0.080 A 
ATOM      3  C   UNL A   1     -29.660 -10.276  31.316  0.00  0.00    +0.000 A 
ATOM      4  C   UNL A   1     -29.249 -11.005  30.421  0.00  0.00    +0.000 A 
ATOM      5  C   UNL A   1     -28.279 -12.005  30.662  0.00  0.00    +0.000 A 
ATOM      6  C   UNL A   1     -27.777 -12.075  31.949  0.00  0.00    +0.007 A 
ENDROOT
BRANCH   4   7
ATOM      7  C   UNL A   1     -29.789 -10.978  28.981  0.00  0.00    +0.000 A 
ATOM      8  C   UNL A   1     -30.507 -10.388  28.472  0.00  0.00    +0.000 A 
ATOM      9  C   UNL A   1     -29.036 -11.985  28.105  0.00  0.00    +0.000 A 
ATOM     10  C   UNL A   1     -29.354 -12.014  26.743  0.00  0.00    +0.000 A 
ATOM     11  C   UNL A   1     -31.031 -10.336  27.119  0.00  0.00    +0.000 A 
ATOM     12  C   UNL A   1     -30.359 -11.216  26.262  0.00  0.00    +0.000 A 
ENDBRANCH   4   7
BRANCH   2  13
ATOM     13  C   UNL A   1     -27.723 -11.221  34.224  0.00  0.00    +0.388 C 
ATOM     14  O   UNL A   1     -27.585 -10.202  34.983  0.00  0.00    -0.241 OA
ATOM     15  O   UNL A   1     -27.408 -12.402  34.585  0.00  0.00    -0.241 OA
ENDBRANCH   2  13
TORSDOF 2
ENDMDL
ENDMDL
