MODEL 4725
MODEL 1
REMARK VINA RESULT:    -6.821      0.000      0.000
REMARK INTER + INTRA:          -9.124
REMARK INTER:                  -8.416
REMARK INTRA:                  -0.709
REMARK UNBOUND:                -0.709
REMARK  Name = No_4725-gen_results/8p0m/2024-11-27-11-27-31/
REMARK  4 active torsions:
REMARK  status: ('A' for Active; 'I' for Inactive)
REMARK    1  A    between atoms: C_2  and  C_3
REMARK    2  A    between atoms: C_3  and  C_5
REMARK    3  A    between atoms: N_4  and  C_11
REMARK    4  A    between atoms: C_7  and  C_12
REMARK                            x       y       z     vdW  Elec       q    Type
REMARK                         _______ _______ _______ _____ _____    ______ ____
ROOT
ATOM      1  C   UNL A   1     -26.685  -3.686  29.949  0.00  0.00    -0.013 A 
ATOM      2  C   UNL A   1     -25.969  -2.511  29.600  0.00  0.00    -0.004 A 
ATOM      3  C   UNL A   1     -24.623  -2.596  29.001  0.00  0.00    -0.000 A 
ATOM      4  C   UNL A   1     -24.101  -3.835  28.717  0.00  0.00    -0.000 A 
ATOM      5  C   UNL A   1     -24.799  -4.981  29.016  0.00  0.00    -0.000 A 
ATOM      6  C   UNL A   1     -26.028  -4.887  29.579  0.00  0.00    -0.004 A 
ENDROOT
BRANCH   3   7
ATOM      7  C   UNL A   1     -23.881  -1.373  28.669  0.00  0.00    -0.000 A 
ATOM      8  C   UNL A   1     -24.380  -0.412  27.878  0.00  0.00    -0.000 A 
ATOM      9  C   UNL A   1     -22.538  -1.219  29.201  0.00  0.00    -0.000 A 
ATOM     10  C   UNL A   1     -23.610   0.763  27.553  0.00  0.00    -0.000 A 
ATOM     11  C   UNL A   1     -21.797  -0.056  28.901  0.00  0.00    -0.000 A 
ATOM     12  C   UNL A   1     -22.373   0.915  28.042  0.00  0.00    +0.000 A 
ENDBRANCH   3   7
BRANCH   1  13
ATOM     13  C   UNL A   1     -27.896  -3.435  30.675  0.00  0.00    +0.112 C 
BRANCH  13  15
ATOM     14  O   UNL A   1     -29.283  -4.544  29.681  0.00  0.00    -0.274 OA
ATOM     15  C   UNL A   1     -28.712  -4.065  30.554  0.00  0.00    +0.234 C 
ATOM     16  N   UNL A   1     -29.385  -4.492  31.897  0.00  0.00    -0.256 N 
ATOM     17  C   UNL A   1     -29.543  -3.400  32.837  0.00  0.00    +0.120 C 
BRANCH  16  18
ATOM     18  C   UNL A   1     -30.582  -5.359  31.958  0.00  0.00    +0.063 C 
ATOM     19  C   UNL A   1     -30.514  -6.166  32.958  0.00  0.00    -0.010 C 
ATOM     20  C   UNL A   1     -29.568  -7.207  32.714  0.00  0.00    +0.032 C 
ENDBRANCH  16  18
ENDBRANCH  13  15
ENDBRANCH   1  13
TORSDOF 4
ENDMDL
ENDMDL
