MODEL 4726
MODEL 1
REMARK VINA RESULT:    -5.751      0.000      0.000
REMARK INTER + INTRA:          -6.115
REMARK INTER:                  -6.087
REMARK INTRA:                  -0.028
REMARK UNBOUND:                -0.028
REMARK  Name = No_4726-gen_results/8p0m/2024-11-27-11-27-31/
REMARK  1 active torsions:
REMARK  status: ('A' for Active; 'I' for Inactive)
REMARK    1  A    between atoms: C_5  and  C_11
REMARK                            x       y       z     vdW  Elec       q    Type
REMARK                         _______ _______ _______ _____ _____    ______ ____
ROOT
ATOM      1  C   UNL A   1     -30.691  -9.866  29.256  0.00  0.00    +0.000 A 
ATOM      2  C   UNL A   1     -29.964 -10.427  30.043  0.00  0.00    +0.000 A 
ATOM      3  C   UNL A   1     -29.013 -11.279  29.786  0.00  0.00    +0.001 A 
ATOM      4  C   UNL A   1     -28.137 -11.943  30.782  0.00  0.00    +0.010 A 
ATOM      5  C   UNL A   1     -28.331 -11.571  32.143  0.00  0.00    +0.068 A 
ATOM      6  C   UNL A   1     -29.291 -10.629  32.412  0.00  0.00    +0.010 A 
ATOM      7  C   UNL A   1     -29.976  -9.958  31.386  0.00  0.00    +0.001 A 
ATOM      8  C   UNL A   1     -30.858 -10.556  28.034  0.00  0.00    +0.000 A 
ATOM      9  C   UNL A   1     -29.995 -11.530  27.642  0.00  0.00    +0.000 A 
ATOM     10  C   UNL A   1     -29.112 -12.030  28.573  0.00  0.00    +0.000 A 
ENDROOT
BRANCH   5  11
ATOM     11  C   UNL A   1     -27.497 -12.018  33.233  0.00  0.00    +0.100 C 
ATOM     12  N   UNL A   1     -27.366 -12.281  34.473  0.00  0.00    -0.191 NA
ENDBRANCH   5  11
TORSDOF 1
ENDMDL
ENDMDL
