REMARK  Name = No_4727-gen_results/8p0m/2024-11-27-11-27-31/
REMARK  4 active torsions:
REMARK  status: ('A' for Active; 'I' for Inactive)
REMARK    1  A    between atoms: C_1  and  C_2
REMARK    2  A    between atoms: C_1  and  N_8
REMARK    3  A    between atoms: C_5  and  C_14
REMARK    4  A    between atoms: C_9  and  C_10
REMARK                            x       y       z     vdW  Elec       q    Type
REMARK                         _______ _______ _______ _____ _____    ______ ____
ROOT
ATOM      1  C   UNL A   1     -27.064  -0.119  28.608  0.00  0.00    +0.055 A 
ATOM      2  C   UNL A   1     -27.001   0.691  27.491  0.00  0.00    +0.005 A 
ATOM      3  C   UNL A   1     -25.855   1.482  27.083  0.00  0.00    +0.007 A 
ATOM      4  C   UNL A   1     -24.690   1.453  27.881  0.00  0.00    +0.080 A 
ATOM      5  C   UNL A   1     -24.738   0.601  29.042  0.00  0.00    +0.007 A 
ATOM      6  C   UNL A   1     -25.823  -0.169  29.389  0.00  0.00    +0.005 A 
ENDROOT
BRANCH   4   7
ATOM      7  C   UNL A   1     -23.517   2.205  27.575  0.00  0.00    +0.388 C 
ATOM      8  O   UNL A   1     -22.409   1.987  28.128  0.00  0.00    -0.241 OA
ATOM      9  O   UNL A   1     -23.431   2.752  26.322  0.00  0.00    -0.241 OA
ENDBRANCH   4   7
BRANCH   1  10
ATOM     10  C   UNL A   1     -28.016  -0.814  28.878  0.00  0.00    +0.269 C 
ATOM     11  O   UNL A   1     -29.141  -0.704  28.438  0.00  0.00    -0.268 OA
BRANCH  10  12
ATOM     12  N   UNL A   1     -27.952  -1.629  30.064  0.00  0.00    -0.170 NA
ATOM     13  C   UNL A   1     -29.036  -2.369  30.486  0.00  0.00    +0.164 C 
BRANCH  13  14
ATOM     14  C   UNL A   1     -28.728  -3.634  31.233  0.00  0.00    +0.434 C 
ATOM     15  F   UNL A   1     -29.614  -4.568  30.648  0.00  0.00    -0.165 F 
ATOM     16  F   UNL A   1     -27.502  -4.060  30.858  0.00  0.00    -0.165 F 
ATOM     17  F   UNL A   1     -28.891  -3.528  32.464  0.00  0.00    -0.165 F 
ENDBRANCH  13  14
ENDBRANCH  10  12
ENDBRANCH   1  10
TORSDOF 4
