MODEL 4727
MODEL 1
REMARK VINA RESULT:    -6.219      0.000      0.000
REMARK INTER + INTRA:          -8.078
REMARK INTER:                  -7.673
REMARK INTRA:                  -0.405
REMARK UNBOUND:                -0.405
REMARK  Name = No_4727-gen_results/8p0m/2024-11-27-11-27-31/
REMARK  4 active torsions:
REMARK  status: ('A' for Active; 'I' for Inactive)
REMARK    1  A    between atoms: C_1  and  C_2
REMARK    2  A    between atoms: C_1  and  N_8
REMARK    3  A    between atoms: C_5  and  C_14
REMARK    4  A    between atoms: C_9  and  C_10
REMARK                            x       y       z     vdW  Elec       q    Type
REMARK                         _______ _______ _______ _____ _____    ______ ____
ROOT
ATOM      1  C   UNL A   1     -23.756   0.241  29.012  0.00  0.00    +0.055 A 
ATOM      2  C   UNL A   1     -25.035  -0.214  28.757  0.00  0.00    +0.005 A 
ATOM      3  C   UNL A   1     -25.440  -1.605  28.685  0.00  0.00    +0.007 A 
ATOM      4  C   UNL A   1     -24.463  -2.608  28.876  0.00  0.00    +0.080 A 
ATOM      5  C   UNL A   1     -23.128  -2.147  29.157  0.00  0.00    +0.007 A 
ATOM      6  C   UNL A   1     -22.775  -0.822  29.258  0.00  0.00    +0.005 A 
ENDROOT
BRANCH   4   7
ATOM      7  C   UNL A   1     -24.756  -4.003  28.811  0.00  0.00    +0.388 C 
ATOM      8  O   UNL A   1     -23.863  -4.876  28.662  0.00  0.00    -0.241 OA
ATOM      9  O   UNL A   1     -25.878  -4.440  29.463  0.00  0.00    -0.241 OA
ENDBRANCH   4   7
BRANCH   1  10
ATOM     10  C   UNL A   1     -23.472   1.411  29.129  0.00  0.00    +0.269 C 
ATOM     11  O   UNL A   1     -23.497   2.063  30.152  0.00  0.00    -0.268 OA
BRANCH  10  12
ATOM     12  N   UNL A   1     -23.430   2.225  27.942  0.00  0.00    -0.170 NA
ATOM     13  C   UNL A   1     -22.646   1.879  26.862  0.00  0.00    +0.164 C 
BRANCH  13  14
ATOM     14  C   UNL A   1     -23.140   2.317  25.514  0.00  0.00    +0.434 C 
ATOM     15  F   UNL A   1     -23.939   1.226  25.102  0.00  0.00    -0.165 F 
ATOM     16  F   UNL A   1     -24.022   3.325  25.693  0.00  0.00    -0.165 F 
ATOM     17  F   UNL A   1     -22.219   2.565  24.711  0.00  0.00    -0.165 F 
ENDBRANCH  13  14
ENDBRANCH  10  12
ENDBRANCH   1  10
TORSDOF 4
ENDMDL
ENDMDL
