REMARK  Name = outputs/IAG933/test6/raw/output_4729_IAG933_linker_design_.xyz
REMARK  17 active torsions:
REMARK  status: ('A' for Active; 'I' for Inactive)
REMARK    1  A    between atoms: C_1  and  C_2
REMARK    2  A    between atoms: C_1  and  C_8
REMARK    3  A    between atoms: C_1  and  C_43
REMARK    4  A    between atoms: C_13  and  C_28
REMARK    5  A    between atoms: C_14  and  C_15
REMARK    6  A    between atoms: C_21  and  O_22
REMARK    7  A    between atoms: O_22  and  C_23
REMARK    8  A    between atoms: C_23  and  C_24
REMARK    9  A    between atoms: C_31  and  C_43
REMARK   10  A    between atoms: N_32  and  C_38
REMARK   11  A    between atoms: N_32  and  C_41
REMARK   12  A    between atoms: N_32  and  C_44
REMARK   13  A    between atoms: N_34  and  C_43
REMARK   14  A    between atoms: C_36  and  C_42
REMARK   15  A    between atoms: C_37  and  N_47
REMARK   16  A    between atoms: C_39  and  C_41
REMARK   17  A    between atoms: C_39  and  N_47
REMARK                            x       y       z     vdW  Elec       q    Type
REMARK                         _______ _______ _______ _____ _____    ______ ____
ROOT
ATOM      1  C   UNL A   1     -25.255   0.067  29.034  0.00  0.00    +0.109 C 
ENDROOT
BRANCH   1   4
ATOM      2  C   UNL A   1     -24.448   1.243  27.039  0.00  0.00    -0.001 C 
ATOM      3  C   UNL A   1     -23.251   1.398  26.425  0.00  0.00    +0.081 C 
ATOM      4  C   UNL A   1     -24.172   0.607  28.322  0.00  0.00    +0.068 C 
ATOM      5  C   UNL A   1     -22.233   1.085  27.313  0.00  0.00    +0.146 C 
ATOM      6 CL   UNL A   1     -23.059   1.784  24.723  0.00  0.00    -0.080 Cl
ATOM      7  F   UNL A   1     -20.957   1.386  27.038  0.00  0.00    -0.204 F 
ATOM      8  C   UNL A   1     -22.771   0.508  28.449  0.00  0.00    +0.010 C 
BRANCH   2   9
ATOM      9  C   UNL A   1     -25.688   1.614  26.461  0.00  0.00    +0.035 C 
ATOM     10  C   UNL A   1     -26.250   2.920  26.395  0.00  0.00    +0.076 C 
ATOM     11  C   UNL A   1     -27.438   3.091  25.645  0.00  0.00    +0.107 C 
ATOM     12  N   UNL A   1     -28.075   2.089  25.003  0.00  0.00    -0.208 NA
ATOM     13  C   UNL A   1     -27.543   0.849  25.079  0.00  0.00    +0.253 C 
ATOM     14  C   UNL A   1     -26.354   0.576  25.777  0.00  0.00    +0.193 C 
ATOM     15  F   UNL A   1     -25.860  -0.681  25.795  0.00  0.00    -0.199 F 
BRANCH  10  16
ATOM     16  C   UNL A   1     -25.642   4.093  27.123  0.00  0.00    +0.266 C 
ATOM     17  N   UNL A   1     -25.614   5.252  26.449  0.00  0.00    -0.200 NA
ATOM     18  C   UNL A   1     -25.026   6.479  26.963  0.00  0.00    +0.139 C 
ATOM     19  O   UNL A   1     -25.143   3.966  28.243  0.00  0.00    -0.268 OA
ENDBRANCH  10  16
BRANCH  13  20
ATOM     20  O   UNL A   1     -28.193  -0.208  24.477  0.00  0.00    -0.456 OA
BRANCH  20  21
ATOM     21  C   UNL A   1     -29.460   0.005  23.866  0.00  0.00    +0.243 C 
BRANCH  21  22
ATOM     22  C   UNL A   1     -30.065  -1.377  23.573  0.00  0.00    +0.229 C 
ATOM     23  O   UNL A   1     -30.729  -1.878  24.721  0.00  0.00    -0.216 OA
ENDBRANCH  21  22
ENDBRANCH  20  21
ENDBRANCH  13  20
ENDBRANCH   2   9
ENDBRANCH   1   4
BRANCH   1  25
ATOM     24  O   UNL A   1     -27.819   1.754  30.687  0.00  0.00    -0.273 OA
ATOM     25  N   UNL A   1     -26.078   1.298  29.303  0.00  0.00    -0.206 NA
ATOM     26  C   UNL A   1     -27.362   1.002  29.840  0.00  0.00    +0.242 C 
BRANCH  26  28
ATOM     27  C   UNL A   1     -29.360  -0.693  28.970  0.00  0.00    +0.069 C 
ATOM     28  C   UNL A   1     -28.095  -0.635  29.548  0.00  0.00    +0.094 C 
ATOM     29  C   UNL A   1     -29.284  -0.264  30.276  0.00  0.00    +0.027 C 
BRANCH  27  30
ATOM     30  N   UNL A   1     -30.821  -0.406  28.518  0.00  0.00    -0.244 NA
BRANCH  30  32
ATOM     31  O   UNL A   1     -31.656  -2.180  29.649  0.00  0.00    -0.201 OA
ATOM     32  C   UNL A   1     -31.756  -0.915  29.358  0.00  0.00    +0.259 C 
ENDBRANCH  30  32
BRANCH  30  33
ATOM     33  C   UNL A   1     -30.722   0.508  27.345  0.00  0.00    +0.092 C 
BRANCH  33  34
ATOM     34  C   UNL A   1     -32.063   1.069  26.970  0.00  0.00    +0.090 C 
BRANCH  34  36
ATOM     35  C   UNL A   1     -32.858   0.598  24.638  0.00  0.00    +0.090 C 
ATOM     36  N   UNL A   1     -32.317   1.515  25.616  0.00  0.00    -0.270 NA
BRANCH  36  37
ATOM     37  C   UNL A   1     -32.009   2.879  25.158  0.00  0.00    +0.072 C 
ATOM     38  C   UNL A   1     -32.485   3.174  23.722  0.00  0.00    +0.019 C 
ENDBRANCH  36  37
ENDBRANCH  34  36
ENDBRANCH  33  34
ENDBRANCH  30  33
ENDBRANCH  27  30
ENDBRANCH  26  28
ENDBRANCH   1  25
BRANCH   1  39
ATOM     39  C   UNL A   1     -24.855  -1.012  30.143  0.00  0.00    +0.059 C 
BRANCH  39  40
ATOM     40  C   UNL A   1     -24.973  -2.505  29.788  0.00  0.00    -0.019 C 
ATOM     41  C   UNL A   1     -23.906  -3.173  29.146  0.00  0.00    -0.004 C 
ATOM     42  C   UNL A   1     -23.989  -4.549  28.853  0.00  0.00    -0.000 C 
ATOM     43  C   UNL A   1     -25.137  -5.280  29.205  0.00  0.00    -0.000 C 
ATOM     44  C   UNL A   1     -26.232  -4.611  29.784  0.00  0.00    -0.000 C 
ATOM     45  C   UNL A   1     -26.155  -3.232  30.065  0.00  0.00    -0.004 C 
ENDBRANCH  39  40
BRANCH  39  46
ATOM     46  C   UNL A   1     -25.387  -0.679  31.571  0.00  0.00    +0.079 C 
ATOM     47  C   UNL A   1     -25.189   0.773  32.028  0.00  0.00    +0.019 C 
ATOM     48  C   UNL A   1     -25.336   0.684  33.544  0.00  0.00    +0.020 C 
ATOM     49  C   UNL A   1     -24.829  -0.715  33.905  0.00  0.00    +0.089 C 
ATOM     50  N   UNL A   1     -24.758  -1.481  32.646  0.00  0.00    -0.219 NA
ENDBRANCH  39  46
ENDBRANCH   1  39
TORSDOF 17
