MODEL 4729
MODEL 1
REMARK VINA RESULT:    -6.365      0.000      0.000
REMARK INTER + INTRA:          -7.239
REMARK INTER:                  -7.110
REMARK INTRA:                  -0.129
REMARK UNBOUND:                -0.129
REMARK  Name = No_4729-gen_results/8p0m/2024-11-27-11-27-31/
REMARK  2 active torsions:
REMARK  status: ('A' for Active; 'I' for Inactive)
REMARK    1  A    between atoms: C_3  and  C_11
REMARK    2  A    between atoms: C_6  and  C_14
REMARK                            x       y       z     vdW  Elec       q    Type
REMARK                         _______ _______ _______ _____ _____    ______ ____
ROOT
ATOM      1  C   UNL A   1     -26.439  -4.377  29.614  0.00  0.00    -0.004 A 
ATOM      2  C   UNL A   1     -26.135  -3.245  29.914  0.00  0.00    -0.015 A 
ATOM      3  C   UNL A   1     -26.983  -2.321  30.500  0.00  0.00    +0.125 C 
ATOM      4  C   UNL A   1     -26.673  -0.943  30.794  0.00  0.00    +0.016 C 
ATOM      5  C   UNL A   1     -25.764  -0.483  30.413  0.00  0.00    +0.014 C 
ATOM      6  C   UNL A   1     -24.649  -1.198  29.755  0.00  0.00    +0.117 C 
ATOM      7  C   UNL A   1     -24.946  -2.515  29.509  0.00  0.00    -0.018 A 
ATOM      8  C   UNL A   1     -25.255  -5.268  29.265  0.00  0.00    -0.000 A 
ATOM      9  C   UNL A   1     -24.168  -4.716  28.579  0.00  0.00    -0.000 A 
ATOM     10  C   UNL A   1     -23.895  -3.371  28.856  0.00  0.00    -0.004 A 
ENDROOT
BRANCH   6  11
ATOM     11  C   UNL A   1     -23.353  -0.580  29.353  0.00  0.00    +0.401 C 
ATOM     12  F   UNL A   1     -22.376  -1.163  29.733  0.00  0.00    -0.170 F 
ATOM     13  F   UNL A   1     -23.259   0.694  29.897  0.00  0.00    -0.170 F 
ATOM     14  F   UNL A   1     -23.372  -0.371  28.050  0.00  0.00    -0.170 F 
ENDBRANCH   6  11
BRANCH   3  15
ATOM     15  C   UNL A   1     -28.378  -2.814  30.899  0.00  0.00    +0.368 C 
ATOM     16  O   UNL A   1     -28.653  -3.262  31.966  0.00  0.00    -0.245 OA
ATOM     17  O   UNL A   1     -29.309  -2.655  30.052  0.00  0.00    -0.245 OA
ENDBRANCH   3  15
TORSDOF 2
ENDMDL
ENDMDL
