MODEL 472
MODEL 1
REMARK VINA RESULT:    -7.683      0.000      0.000
REMARK INTER + INTRA:         -11.179
REMARK INTER:                 -10.378
REMARK INTRA:                  -0.802
REMARK UNBOUND:                -0.802
REMARK  Name = No_472-gen_results/8p0m/2024-11-27-11-27-31/
REMARK  6 active torsions:
REMARK  status: ('A' for Active; 'I' for Inactive)
REMARK    1  A    between atoms: C_3  and  C_4
REMARK    2  A    between atoms: C_6  and  C_21
REMARK    3  A    between atoms: N_9  and  C_10
REMARK    4  A    between atoms: C_10  and  C_11
REMARK    5  A    between atoms: C_10  and  C_17
REMARK    6  A    between atoms: C_17  and  O_20
REMARK                            x       y       z     vdW  Elec       q    Type
REMARK                         _______ _______ _______ _____ _____    ______ ____
ROOT
ATOM      1  C   UNL A   1     -22.662   1.433  27.608  0.00  0.00    +0.250 C 
ATOM      2  O   UNL A   1     -21.647   1.506  27.259  0.00  0.00    -0.270 OA
ATOM      3  N   UNL A   1     -23.624   2.019  26.731  0.00  0.00    -0.263 N 
ATOM      4  C   UNL A   1     -23.140   2.664  25.567  0.00  0.00    +0.116 C 
ENDROOT
BRANCH   1   7
ATOM      5  C   UNL A   1     -23.325   1.386  30.116  0.00  0.00    +0.004 A 
ATOM      6  C   UNL A   1     -23.765   0.765  30.845  0.00  0.00    +0.000 A 
ATOM      7  C   UNL A   1     -23.158   0.737  28.816  0.00  0.00    +0.054 A 
ATOM      8  C   UNL A   1     -24.254  -0.607  30.869  0.00  0.00    +0.000 A 
ATOM      9  C   UNL A   1     -24.102  -1.258  29.662  0.00  0.00    +0.000 A 
ATOM     10  C   UNL A   1     -23.604  -0.593  28.604  0.00  0.00    +0.004 A 
BRANCH   9  11
ATOM     11  C   UNL A   1     -24.534  -2.704  29.578  0.00  0.00    +0.000 A 
ATOM     12  C   UNL A   1     -23.843  -3.601  28.838  0.00  0.00    +0.000 A 
ATOM     13  C   UNL A   1     -24.311  -4.933  28.763  0.00  0.00    +0.000 A 
ATOM     14  C   UNL A   1     -25.281  -5.259  28.971  0.00  0.00    +0.000 A 
ATOM     15  C   UNL A   1     -26.300  -4.378  29.734  0.00  0.00    +0.000 A 
ATOM     16  C   UNL A   1     -25.843  -3.091  29.948  0.00  0.00    +0.000 A 
ENDBRANCH   9  11
ENDBRANCH   1   7
BRANCH   3  17
ATOM     17  C   UNL A   1     -24.992   2.225  26.989  0.00  0.00    +0.198 C 
BRANCH  17  18
ATOM     18  C   UNL A   1     -25.391   3.454  27.381  0.00  0.00    +0.006 A 
ATOM     19  C   UNL A   1     -25.726   3.713  28.649  0.00  0.00    -0.002 A 
ATOM     20  C   UNL A   1     -26.295   5.033  29.019  0.00  0.00    -0.000 A 
ATOM     21  C   UNL A   1     -25.816   6.090  28.284  0.00  0.00    -0.000 A 
ATOM     22  C   UNL A   1     -24.972   5.918  27.163  0.00  0.00    -0.000 A 
ATOM     23  C   UNL A   1     -24.814   4.536  26.605  0.00  0.00    -0.002 A 
ENDBRANCH  17  18
BRANCH  17  24
ATOM     24  C   UNL A   1     -25.837   1.536  25.880  0.00  0.00    +0.340 C 
ATOM     25  O   UNL A   1     -26.806   2.148  25.358  0.00  0.00    -0.248 OA
BRANCH  24  26
ATOM     26  O   UNL A   1     -25.733   0.246  25.693  0.00  0.00    -0.443 OA
ATOM     27  C   UNL A   1     -25.733  -0.451  24.528  0.00  0.00    +0.256 C 
ENDBRANCH  24  26
ENDBRANCH  17  24
ENDBRANCH   3  17
TORSDOF 6
ENDMDL
ENDMDL
