MODEL 4730
MODEL 1
REMARK VINA RESULT:    -5.098      0.000      0.000
REMARK INTER + INTRA:          -5.605
REMARK INTER:                  -5.396
REMARK INTRA:                  -0.209
REMARK UNBOUND:                -0.209
REMARK  Name = No_4730-gen_results/8p0m/2024-11-27-11-27-31/
REMARK  1 active torsions:
REMARK  status: ('A' for Active; 'I' for Inactive)
REMARK    1  A    between atoms: C_4  and  C_5
REMARK                            x       y       z     vdW  Elec       q    Type
REMARK                         _______ _______ _______ _____ _____    ______ ____
ROOT
ATOM      1  F   UNL A   1     -25.788  -1.610  30.618  0.00  0.00    -0.204 F 
ATOM      2  C   UNL A   1     -25.624  -2.650  30.166  0.00  0.00    +0.140 A 
ATOM      3  C   UNL A   1     -26.514  -3.524  30.018  0.00  0.00    +0.030 A 
ATOM      4  C   UNL A   1     -24.343  -2.738  29.383  0.00  0.00    +0.027 A 
ATOM      5  C   UNL A   1     -26.216  -4.833  29.679  0.00  0.00    +0.002 A 
ATOM      6  C   UNL A   1     -24.947  -5.085  28.916  0.00  0.00    +0.000 A 
ATOM      7  C   UNL A   1     -24.010  -4.059  28.784  0.00  0.00    +0.002 A 
ENDROOT
BRANCH   4   8
ATOM      8  C   UNL A   1     -23.367  -1.777  29.254  0.00  0.00    -0.002 C 
ATOM      9  C   UNL A   1     -23.658  -0.537  28.510  0.00  0.00    -0.026 C 
ATOM     10  C   UNL A   1     -24.597  -0.589  27.654  0.00  0.00    +0.031 C 
ENDBRANCH   4   8
TORSDOF 1
ENDMDL
ENDMDL
