REMARK  Name = No_4731-gen_results/8p0m/2024-11-27-11-27-31/
REMARK  1 active torsions:
REMARK  status: ('A' for Active; 'I' for Inactive)
REMARK    1  A    between atoms: C_3  and  C_4
REMARK                            x       y       z     vdW  Elec       q    Type
REMARK                         _______ _______ _______ _____ _____    ______ ____
ROOT
ATOM      1  C   UNL A   1     -26.252   0.411  27.422  0.00  0.00    +0.050 C 
ATOM      2  C   UNL A   1     -25.733   1.689  27.155  0.00  0.00    +0.079 C 
ATOM      3  C   UNL A   1     -24.674   1.780  26.331  0.00  0.00    +0.036 C 
ATOM      4  C   UNL A   1     -23.893   0.747  25.946  0.00  0.00    +0.090 C 
ATOM      5  C   UNL A   1     -25.087  -0.565  27.333  0.00  0.00    +0.094 C 
ATOM      6  N   UNL A   1     -24.121  -0.388  26.453  0.00  0.00    -0.218 NA
ATOM      7  C   UNL A   1     -27.078   0.225  26.159  0.00  0.00    +0.008 C 
ATOM      8  C   UNL A   1     -27.627   1.332  25.593  0.00  0.00    +0.019 C 
ATOM      9  N   UNL A   1     -26.696   2.670  26.896  0.00  0.00    -0.219 NA
ATOM     10  C   UNL A   1     -27.495   2.549  25.826  0.00  0.00    +0.089 C 
ENDROOT
BRANCH   1  13
ATOM     11  C   UNL A   1     -28.016  -0.814  28.878  0.00  0.00    -0.004 A 
ATOM     12  C   UNL A   1     -28.469  -0.785  29.829  0.00  0.00    -0.000 A 
ATOM     13  C   UNL A   1     -27.087   0.290  28.638  0.00  0.00    -0.020 A 
ATOM     14  C   UNL A   1     -28.391   0.104  30.980  0.00  0.00    -0.000 A 
ATOM     15  C   UNL A   1     -27.533   1.167  30.787  0.00  0.00    -0.000 A 
ATOM     16  C   UNL A   1     -26.828   1.256  29.645  0.00  0.00    -0.004 A 
ENDBRANCH   1  13
TORSDOF 1
