MODEL 4731
MODEL 1
REMARK VINA RESULT:    -6.932      0.000      0.000
REMARK INTER + INTRA:          -7.777
REMARK INTER:                  -7.338
REMARK INTRA:                  -0.439
REMARK UNBOUND:                -0.439
REMARK  Name = No_4731-gen_results/8p0m/2024-11-27-11-27-31/
REMARK  1 active torsions:
REMARK  status: ('A' for Active; 'I' for Inactive)
REMARK    1  A    between atoms: C_3  and  C_4
REMARK                            x       y       z     vdW  Elec       q    Type
REMARK                         _______ _______ _______ _____ _____    ______ ____
ROOT
ATOM      1  C   UNL A   1     -24.562  -1.185  28.812  0.00  0.00    +0.050 C 
ATOM      2  C   UNL A   1     -23.221  -0.807  28.996  0.00  0.00    +0.079 C 
ATOM      3  C   UNL A   1     -22.800   0.329  28.411  0.00  0.00    +0.036 C 
ATOM      4  C   UNL A   1     -23.463   1.001  27.445  0.00  0.00    +0.090 C 
ATOM      5  C   UNL A   1     -24.984  -0.660  27.447  0.00  0.00    +0.094 C 
ATOM      6  N   UNL A   1     -24.529   0.493  26.995  0.00  0.00    -0.218 NA
ATOM      7  C   UNL A   1     -25.206  -0.280  29.849  0.00  0.00    +0.008 C 
ATOM      8  C   UNL A   1     -24.488   0.016  30.965  0.00  0.00    +0.019 C 
ATOM      9  N   UNL A   1     -22.751  -0.937  30.307  0.00  0.00    -0.219 NA
ATOM     10  C   UNL A   1     -23.304  -0.206  31.286  0.00  0.00    +0.089 C 
ENDROOT
BRANCH   1  13
ATOM     11  C   UNL A   1     -26.106  -3.067  29.710  0.00  0.00    -0.004 A 
ATOM     12  C   UNL A   1     -26.203  -4.116  29.738  0.00  0.00    -0.000 A 
ATOM     13  C   UNL A   1     -24.875  -2.609  29.065  0.00  0.00    -0.020 A 
ATOM     14  C   UNL A   1     -25.393  -5.237  29.282  0.00  0.00    -0.000 A 
ATOM     15  C   UNL A   1     -24.215  -4.846  28.679  0.00  0.00    -0.000 A 
ATOM     16  C   UNL A   1     -23.955  -3.537  28.511  0.00  0.00    -0.004 A 
ENDBRANCH   1  13
TORSDOF 1
ENDMDL
ENDMDL
