MODEL 4732
MODEL 1
REMARK VINA RESULT:    -8.318      0.000      0.000
REMARK INTER + INTRA:         -12.165
REMARK INTER:                 -10.750
REMARK INTRA:                  -1.415
REMARK UNBOUND:                -1.415
REMARK  Name = No_4732-gen_results/8p0m/2024-11-27-11-27-31/
REMARK  5 active torsions:
REMARK  status: ('A' for Active; 'I' for Inactive)
REMARK    1  A    between atoms: C_1  and  O_17
REMARK    2  A    between atoms: C_3  and  C_7
REMARK    3  A    between atoms: C_16  and  C_24
REMARK    4  A    between atoms: O_17  and  C_18
REMARK    5  A    between atoms: C_23  and  C_26
REMARK                            x       y       z     vdW  Elec       q    Type
REMARK                         _______ _______ _______ _____ _____    ______ ____
ROOT
ATOM      1  C   UNL A   1     -23.759   0.554  27.482  0.00  0.00    +0.156 A 
ATOM      2  C   UNL A   1     -24.403  -0.448  27.690  0.00  0.00    +0.038 A 
ATOM      3  C   UNL A   1     -23.981  -1.475  28.534  0.00  0.00    +0.003 A 
ATOM      4  C   UNL A   1     -22.676  -1.383  29.159  0.00  0.00    +0.001 A 
ATOM      5  C   UNL A   1     -21.978  -0.191  28.862  0.00  0.00    +0.015 A 
ATOM      6  C   UNL A   1     -22.455   0.718  28.050  0.00  0.00    +0.092 A 
ATOM      7 CL   UNL A   1     -21.484   2.093  27.692  0.00  0.00    -0.079 Cl
ENDROOT
BRANCH   3   8
ATOM      8  C   UNL A   1     -24.723  -2.725  28.846  0.00  0.00    -0.001 A 
ATOM      9  C   UNL A   1     -25.853  -2.709  29.503  0.00  0.00    +0.015 A 
ATOM     10  C   UNL A   1     -26.518  -3.931  29.854  0.00  0.00    +0.135 A 
ATOM     11  C   UNL A   1     -25.963  -5.156  29.666  0.00  0.00    +0.037 A 
ATOM     12  C   UNL A   1     -24.102  -4.018  28.632  0.00  0.00    -0.000 A 
ATOM     13  C   UNL A   1     -24.745  -5.215  29.048  0.00  0.00    +0.003 A 
ATOM     14  O   UNL A   1     -27.752  -3.814  30.455  0.00  0.00    -0.475 OA
ATOM     15  C   UNL A   1     -27.968  -2.528  30.895  0.00  0.00    +0.210 C 
ATOM     16  C   UNL A   1     -26.734  -1.885  30.280  0.00  0.00    +0.069 C 
BRANCH  16  17
ATOM     17  C   UNL A   1     -26.512  -0.428  30.479  0.00  0.00    +0.008 C 
ATOM     18  C   UNL A   1     -27.461   0.348  29.669  0.00  0.00    +0.001 C 
ENDBRANCH  16  17
ENDBRANCH   3   8
BRANCH   1  19
ATOM     19  O   UNL A   1     -24.151   1.561  26.647  0.00  0.00    -0.453 OA
BRANCH  19  20
ATOM     20  C   UNL A   1     -25.109   1.261  25.703  0.00  0.00    +0.145 A 
ATOM     21  C   UNL A   1     -26.261   1.948  25.943  0.00  0.00    +0.038 A 
ATOM     22  C   UNL A   1     -27.264   1.602  25.820  0.00  0.00    +0.008 A 
ATOM     23  C   UNL A   1     -25.004   0.242  24.835  0.00  0.00    +0.038 A 
ATOM     24  C   UNL A   1     -26.177  -0.227  24.264  0.00  0.00    +0.008 A 
ATOM     25  C   UNL A   1     -27.427   0.424  24.694  0.00  0.00    +0.057 A 
BRANCH  25  26
ATOM     26  C   UNL A   1     -28.700  -0.038  24.148  0.00  0.00    +0.284 C 
ATOM     27  N   UNL A   1     -28.779  -1.126  23.613  0.00  0.00    -0.084 NA
ATOM     28  O   UNL A   1     -29.562   0.824  23.954  0.00  0.00    -0.267 OA
ENDBRANCH  25  26
ENDBRANCH  19  20
ENDBRANCH   1  19
TORSDOF 5
ENDMDL
ENDMDL
