REMARK  Name = No_4732-gen_results/8p0m/2024-11-27-11-27-31/
REMARK  5 active torsions:
REMARK  status: ('A' for Active; 'I' for Inactive)
REMARK    1  A    between atoms: C_1  and  O_17
REMARK    2  A    between atoms: C_3  and  C_7
REMARK    3  A    between atoms: C_16  and  C_24
REMARK    4  A    between atoms: O_17  and  C_18
REMARK    5  A    between atoms: C_23  and  C_26
REMARK                            x       y       z     vdW  Elec       q    Type
REMARK                         _______ _______ _______ _____ _____    ______ ____
ROOT
ATOM      1  C   UNL A   1     -28.016  -0.814  28.878  0.00  0.00    +0.156 A 
ATOM      2  C   UNL A   1     -27.064  -0.119  28.608  0.00  0.00    +0.038 A 
ATOM      3  C   UNL A   1     -25.765  -0.390  29.036  0.00  0.00    +0.003 A 
ATOM      4  C   UNL A   1     -25.530  -1.530  29.901  0.00  0.00    +0.001 A 
ATOM      5  C   UNL A   1     -26.689  -2.289  30.181  0.00  0.00    +0.015 A 
ATOM      6  C   UNL A   1     -27.873  -1.951  29.737  0.00  0.00    +0.092 A 
ATOM      7 CL   UNL A   1     -29.230  -2.899  30.208  0.00  0.00    -0.079 Cl
ENDROOT
BRANCH   3   8
ATOM      8  C   UNL A   1     -24.549   0.410  28.734  0.00  0.00    -0.001 A 
ATOM      9  C   UNL A   1     -24.479   1.187  27.684  0.00  0.00    +0.015 A 
ATOM     10  C   UNL A   1     -23.272   1.897  27.373  0.00  0.00    +0.135 A 
ATOM     11  C   UNL A   1     -22.106   1.703  28.041  0.00  0.00    +0.037 A 
ATOM     12  C   UNL A   1     -23.319   0.179  29.467  0.00  0.00    -0.000 A 
ATOM     13  C   UNL A   1     -22.116   0.840  29.101  0.00  0.00    +0.003 A 
ATOM     14  O   UNL A   1     -23.324   2.769  26.308  0.00  0.00    -0.475 OA
ATOM     15  C   UNL A   1     -24.447   2.550  25.543  0.00  0.00    +0.210 C 
ATOM     16  C   UNL A   1     -25.125   1.535  26.451  0.00  0.00    +0.069 C 
BRANCH  16  17
ATOM     17  C   UNL A   1     -26.441   0.975  26.042  0.00  0.00    +0.008 C 
ATOM     18  C   UNL A   1     -26.309   0.231  24.782  0.00  0.00    +0.001 C 
ENDBRANCH  16  17
ENDBRANCH   3   8
BRANCH   1  19
ATOM     19  O   UNL A   1     -29.296  -0.554  28.480  0.00  0.00    -0.453 OA
BRANCH  19  20
ATOM     20  C   UNL A   1     -29.476   0.435  27.538  0.00  0.00    +0.145 A 
ATOM     21  C   UNL A   1     -29.868   1.601  28.125  0.00  0.00    +0.038 A 
ATOM     22  C   UNL A   1     -30.573   2.312  27.754  0.00  0.00    +0.008 A 
ATOM     23  C   UNL A   1     -29.517   0.203  26.216  0.00  0.00    +0.038 A 
ATOM     24  C   UNL A   1     -30.134   1.160  25.424  0.00  0.00    +0.008 A 
ATOM     25  C   UNL A   1     -30.711   2.322  26.122  0.00  0.00    +0.057 A 
BRANCH  25  26
ATOM     26  C   UNL A   1     -31.396   3.355  25.349  0.00  0.00    +0.284 C 
ATOM     27  N   UNL A   1     -31.188   4.530  25.578  0.00  0.00    -0.084 NA
ATOM     28  O   UNL A   1     -32.401   3.002  24.726  0.00  0.00    -0.267 OA
ENDBRANCH  25  26
ENDBRANCH  19  20
ENDBRANCH   1  19
TORSDOF 5
