MODEL 4733
MODEL 1
REMARK VINA RESULT:    -6.215      0.000      0.000
REMARK INTER + INTRA:          -9.882
REMARK INTER:                  -8.032
REMARK INTRA:                  -1.850
REMARK UNBOUND:                -1.850
REMARK  Name = No_4733-gen_results/8p0m/2024-11-27-11-27-31/
REMARK  5 active torsions:
REMARK  status: ('A' for Active; 'I' for Inactive)
REMARK    1  A    between atoms: C_2  and  O_18
REMARK    2  A    between atoms: C_3  and  C_4
REMARK    3  A    between atoms: C_6  and  C_13
REMARK    4  A    between atoms: O_18  and  C_19
REMARK    5  A    between atoms: C_20  and  C_21
REMARK                            x       y       z     vdW  Elec       q    Type
REMARK                         _______ _______ _______ _____ _____    ______ ____
ROOT
ATOM      1  C   UNL A   1     -31.300 -10.272  10.932  0.00  0.00    +0.041 A 
ATOM      2  C   UNL A   1     -30.839  -9.395  10.239  0.00  0.00    +0.145 A 
ATOM      3  C   UNL A   1     -29.547  -9.484   9.732  0.00  0.00    +0.035 A 
ATOM      4  C   UNL A   1     -30.438 -11.365  11.409  0.00  0.00    +0.074 A 
ATOM      5  C   UNL A   1     -29.179 -11.564  10.899  0.00  0.00    +0.004 A 
ATOM      6  C   UNL A   1     -28.627 -10.590  10.049  0.00  0.00    +0.003 A 
ENDROOT
BRANCH   3   7
ATOM      7  C   UNL A   1     -28.864  -8.469   8.879  0.00  0.00    +0.004 A 
ATOM      8  C   UNL A   1     -27.791  -7.611   9.303  0.00  0.00    +0.000 A 
ATOM      9  C   UNL A   1     -27.196  -6.773   8.384  0.00  0.00    +0.001 A 
ATOM     10  C   UNL A   1     -27.379  -6.773   7.034  0.00  0.00    +0.011 A 
ATOM     11  C   UNL A   1     -29.063  -8.467   7.441  0.00  0.00    +0.011 A 
ATOM     12  C   UNL A   1     -28.342  -7.623   6.585  0.00  0.00    +0.058 A 
ATOM     13 CL   UNL A   1     -28.720  -7.760   4.902  0.00  0.00    -0.082 Cl
ENDBRANCH   3   7
BRANCH   4  14
ATOM     14  C   UNL A   1     -30.939 -12.424  12.334  0.00  0.00    +0.419 C 
ATOM     15  F   UNL A   1     -30.977 -12.015  13.529  0.00  0.00    -0.166 F 
ATOM     16  F   UNL A   1     -30.135 -13.492  12.374  0.00  0.00    -0.166 F 
ATOM     17  F   UNL A   1     -32.112 -12.870  12.012  0.00  0.00    -0.166 F 
ENDBRANCH   4  14
BRANCH   2  18
ATOM     18  O   UNL A   1     -31.596  -8.392   9.843  0.00  0.00    -0.450 OA
BRANCH  18  19
ATOM     19  C   UNL A   1     -32.288  -7.723  10.809  0.00  0.00    +0.179 C 
ATOM     20  C   UNL A   1     -31.785  -6.433  11.026  0.00  0.00    +0.040 C 
BRANCH  20  21
ATOM     21  C   UNL A   1     -30.890  -5.904  10.273  0.00  0.00    -0.001 C 
ATOM     22  C   UNL A   1     -31.119  -4.954   9.412  0.00  0.00    -0.026 C 
ATOM     23  C   UNL A   1     -30.134  -4.528   8.409  0.00  0.00    +0.031 C 
ENDBRANCH  20  21
ENDBRANCH  18  19
ENDBRANCH   2  18
TORSDOF 5
ENDMDL
ENDMDL
