MODEL 4734
MODEL 1
REMARK VINA RESULT:    -6.317      0.000      0.000
REMARK INTER + INTRA:          -6.862
REMARK INTER:                  -6.686
REMARK INTRA:                  -0.176
REMARK UNBOUND:                -0.176
REMARK  Name = No_4734-gen_results/8p0m/2024-11-27-11-27-31/
REMARK  1 active torsions:
REMARK  status: ('A' for Active; 'I' for Inactive)
REMARK    1  A    between atoms: C_5  and  C_11
REMARK                            x       y       z     vdW  Elec       q    Type
REMARK                         _______ _______ _______ _____ _____    ______ ____
ROOT
ATOM      1  C   UNL A   1     -26.376  -3.471  30.035  0.00  0.00    -0.000 A 
ATOM      2  C   UNL A   1     -25.544  -2.681  29.653  0.00  0.00    -0.000 A 
ATOM      3  C   UNL A   1     -24.320  -2.926  29.282  0.00  0.00    -0.000 A 
ATOM      4  C   UNL A   1     -23.328  -1.926  28.814  0.00  0.00    +0.004 A 
ATOM      5  C   UNL A   1     -23.783  -0.580  28.721  0.00  0.00    +0.071 A 
ATOM      6  C   UNL A   1     -25.089  -0.327  29.054  0.00  0.00    +0.004 A 
ATOM      7  C   UNL A   1     -25.968  -1.272  29.463  0.00  0.00    -0.000 A 
ATOM      8  C   UNL A   1     -26.305  -4.831  29.342  0.00  0.00    -0.000 A 
ATOM      9  C   UNL A   1     -25.045  -5.381  29.278  0.00  0.00    -0.000 A 
ATOM     10  C   UNL A   1     -24.023  -4.342  28.868  0.00  0.00    -0.000 A 
ENDROOT
BRANCH   5  11
ATOM     11  C   UNL A   1     -22.902   0.521  28.397  0.00  0.00    +0.419 C 
ATOM     12  F   UNL A   1     -22.833   1.485  29.098  0.00  0.00    -0.166 F 
ATOM     13  F   UNL A   1     -22.995   0.935  27.025  0.00  0.00    -0.166 F 
ATOM     14  F   UNL A   1     -21.536   0.007  28.389  0.00  0.00    -0.166 F 
ENDBRANCH   5  11
TORSDOF 1
ENDMDL
ENDMDL
