MODEL 4735
MODEL 1
REMARK VINA RESULT:    -7.756      0.000      0.000
REMARK INTER + INTRA:          -9.617
REMARK INTER:                  -9.116
REMARK INTRA:                  -0.501
REMARK UNBOUND:                -0.501
REMARK  Name = No_4735-gen_results/8p0m/2024-11-27-11-27-31/
REMARK  3 active torsions:
REMARK  status: ('A' for Active; 'I' for Inactive)
REMARK    1  A    between atoms: C_1  and  C_2
REMARK    2  A    between atoms: C_1  and  C_8
REMARK    3  A    between atoms: C_8  and  C_9
REMARK                            x       y       z     vdW  Elec       q    Type
REMARK                         _______ _______ _______ _____ _____    ______ ____
ROOT
ATOM      1  C   UNL A   1     -24.285  -1.875  29.174  0.00  0.00    +0.065 C 
ATOM      2  C   UNL A   1     -23.165  -1.047  29.235  0.00  0.00    +0.172 C 
ATOM      3  C   UNL A   1     -22.928   0.193  28.470  0.00  0.00    +0.031 A 
ATOM      4  C   UNL A   1     -23.854   0.457  27.415  0.00  0.00    -0.020 A 
ATOM      5  C   UNL A   1     -24.970  -0.376  27.288  0.00  0.00    +0.023 C 
ATOM      6  C   UNL A   1     -25.181  -1.456  28.073  0.00  0.00    +0.012 C 
ATOM      7  C   UNL A   1     -23.595   1.645  26.628  0.00  0.00    -0.004 A 
ATOM      8  C   UNL A   1     -22.443   2.016  26.400  0.00  0.00    -0.000 A 
ATOM      9  C   UNL A   1     -21.430   1.857  27.477  0.00  0.00    +0.000 A 
ATOM     10  C   UNL A   1     -21.519   0.617  28.123  0.00  0.00    +0.003 A 
ATOM     11  O   UNL A   1     -22.398  -1.054  30.314  0.00  0.00    -0.291 OA
ATOM     12  C   UNL A   1     -25.968  -0.053  26.268  0.00  0.00    +0.005 C 
ENDROOT
BRANCH   1  13
ATOM     13  C   UNL A   1     -24.415  -2.875  29.841  0.00  0.00    +0.049 C 
BRANCH  13  14
ATOM     14  C   UNL A   1     -24.556  -4.131  29.058  0.00  0.00    +0.228 C 
ATOM     15  F   UNL A   1     -23.469  -4.257  28.202  0.00  0.00    -0.231 F 
BRANCH  14  16
ATOM     16  C   UNL A   1     -25.252  -4.976  29.261  0.00  0.00    +0.350 C 
ATOM     17  F   UNL A   1     -26.105  -4.975  29.865  0.00  0.00    -0.195 F 
ATOM     18  F   UNL A   1     -24.992  -6.172  28.682  0.00  0.00    -0.195 F 
ENDBRANCH  14  16
ENDBRANCH  13  14
ENDBRANCH   1  13
TORSDOF 3
ENDMDL
ENDMDL
