REMARK  Name = No_4737-gen_results/8p0m/2024-11-27-11-27-31/
REMARK  1 active torsions:
REMARK  status: ('A' for Active; 'I' for Inactive)
REMARK    1  A    between atoms: C_5  and  C_11
REMARK                            x       y       z     vdW  Elec       q    Type
REMARK                         _______ _______ _______ _____ _____    ______ ____
ROOT
ATOM      1  C   UNL A   1     -28.016  -0.814  28.878  0.00  0.00    -0.000 A 
ATOM      2  C   UNL A   1     -27.064  -0.119  28.608  0.00  0.00    -0.000 A 
ATOM      3  C   UNL A   1     -26.876   1.133  28.913  0.00  0.00    -0.000 A 
ATOM      4  C   UNL A   1     -25.688   1.952  28.567  0.00  0.00    +0.004 A 
ATOM      5  C   UNL A   1     -24.639   1.283  27.875  0.00  0.00    +0.071 A 
ATOM      6  C   UNL A   1     -24.807  -0.051  27.604  0.00  0.00    +0.004 A 
ATOM      7  C   UNL A   1     -25.902  -0.767  27.951  0.00  0.00    -0.000 A 
ATOM      8  C   UNL A   1     -29.212  -0.115  29.122  0.00  0.00    -0.000 A 
ATOM      9  C   UNL A   1     -29.193   1.221  29.415  0.00  0.00    -0.000 A 
ATOM     10  C   UNL A   1     -28.033   1.926  29.179  0.00  0.00    -0.000 A 
ENDROOT
BRANCH   5  11
ATOM     11  C   UNL A   1     -23.354   1.890  27.589  0.00  0.00    +0.419 C 
ATOM     12  F   UNL A   1     -22.409   1.380  27.610  0.00  0.00    -0.166 F 
ATOM     13  F   UNL A   1     -23.251   3.052  28.510  0.00  0.00    -0.166 F 
ATOM     14  F   UNL A   1     -23.529   2.641  26.392  0.00  0.00    -0.166 F 
ENDBRANCH   5  11
TORSDOF 1
