MODEL 4737
MODEL 1
REMARK VINA RESULT:    -6.543      0.000      0.000
REMARK INTER + INTRA:          -7.118
REMARK INTER:                  -6.926
REMARK INTRA:                  -0.192
REMARK UNBOUND:                -0.192
REMARK  Name = No_4737-gen_results/8p0m/2024-11-27-11-27-31/
REMARK  1 active torsions:
REMARK  status: ('A' for Active; 'I' for Inactive)
REMARK    1  A    between atoms: C_5  and  C_11
REMARK                            x       y       z     vdW  Elec       q    Type
REMARK                         _______ _______ _______ _____ _____    ______ ____
ROOT
ATOM      1  C   UNL A   1     -26.506  -3.664  29.917  0.00  0.00    -0.000 A 
ATOM      2  C   UNL A   1     -25.612  -2.856  29.813  0.00  0.00    -0.000 A 
ATOM      3  C   UNL A   1     -24.527  -2.952  29.099  0.00  0.00    -0.000 A 
ATOM      4  C   UNL A   1     -23.452  -1.934  28.994  0.00  0.00    +0.004 A 
ATOM      5  C   UNL A   1     -23.659  -0.721  29.710  0.00  0.00    +0.071 A 
ATOM      6  C   UNL A   1     -24.828  -0.592  30.415  0.00  0.00    +0.004 A 
ATOM      7  C   UNL A   1     -25.792  -1.540  30.473  0.00  0.00    -0.000 A 
ATOM      8  C   UNL A   1     -26.143  -4.993  29.631  0.00  0.00    -0.000 A 
ATOM      9  C   UNL A   1     -25.005  -5.270  28.926  0.00  0.00    -0.000 A 
ATOM     10  C   UNL A   1     -24.078  -4.264  28.758  0.00  0.00    -0.000 A 
ENDROOT
BRANCH   5  11
ATOM     11  C   UNL A   1     -22.785   0.430  29.603  0.00  0.00    +0.419 C 
ATOM     12  F   UNL A   1     -22.935   1.371  30.099  0.00  0.00    -0.166 F 
ATOM     13  F   UNL A   1     -22.673   0.709  28.147  0.00  0.00    -0.166 F 
ATOM     14  F   UNL A   1     -21.460  -0.061  29.781  0.00  0.00    -0.166 F 
ENDBRANCH   5  11
TORSDOF 1
ENDMDL
ENDMDL
