MODEL 4738
MODEL 1
REMARK VINA RESULT:    -5.767      0.000      0.000
REMARK INTER + INTRA:          -6.869
REMARK INTER:                  -6.441
REMARK INTRA:                  -0.428
REMARK UNBOUND:                -0.428
REMARK  Name = No_4738-gen_results/8p0m/2024-11-27-11-27-31/
REMARK  2 active torsions:
REMARK  status: ('A' for Active; 'I' for Inactive)
REMARK    1  A    between atoms: C_2  and  C_4
REMARK    2  A    between atoms: C_4  and  C_6
REMARK                            x       y       z     vdW  Elec       q    Type
REMARK                         _______ _______ _______ _____ _____    ______ ____
ROOT
ATOM      1  C   UNL A   1     -24.346  -1.198  29.443  0.00  0.00    +0.368 C 
ATOM      2  F   UNL A   1     -23.758  -0.863  28.214  0.00  0.00    -0.190 F 
ATOM      3  F   UNL A   1     -25.418  -0.384  29.576  0.00  0.00    -0.190 F 
ENDROOT
BRANCH   1   4
ATOM      4  C   UNL A   1     -24.703  -2.517  29.344  0.00  0.00    +0.046 A 
ATOM      5  C   UNL A   1     -23.853  -3.438  28.810  0.00  0.00    +0.001 A 
ATOM      6  C   UNL A   1     -24.238  -4.892  28.621  0.00  0.00    -0.000 A 
ATOM      7  C   UNL A   1     -25.227  -5.248  29.140  0.00  0.00    -0.000 A 
ATOM      8  C   UNL A   1     -26.226  -4.338  29.731  0.00  0.00    -0.000 A 
ATOM      9  C   UNL A   1     -25.984  -3.012  29.810  0.00  0.00    +0.001 A 
ENDBRANCH   1   4
BRANCH   1  11
ATOM     10  F   UNL A   1     -23.615   0.174  31.031  0.00  0.00    -0.165 F 
ATOM     11  C   UNL A   1     -23.355  -0.802  30.493  0.00  0.00    +0.459 C 
ATOM     12  F   UNL A   1     -22.301  -0.857  30.041  0.00  0.00    -0.165 F 
ATOM     13  F   UNL A   1     -23.524  -1.803  31.522  0.00  0.00    -0.165 F 
ENDBRANCH   1  11
TORSDOF 2
ENDMDL
ENDMDL
