REMARK  Name = No_4739-gen_results/8p0m/2024-11-27-11-27-31/
REMARK  7 active torsions:
REMARK  status: ('A' for Active; 'I' for Inactive)
REMARK    1  A    between atoms: C_1  and  C_2
REMARK    2  A    between atoms: C_1  and  C_8
REMARK    3  A    between atoms: C_5  and  C_10
REMARK    4  A    between atoms: C_8  and  N_9
REMARK    5  A    between atoms: N_9  and  C_13
REMARK    6  A    between atoms: C_14  and  C_15
REMARK    7  A    between atoms: C_16  and  C_17
REMARK                            x       y       z     vdW  Elec       q    Type
REMARK                         _______ _______ _______ _____ _____    ______ ____
ROOT
ATOM      1  C   UNL A   1     -28.016  -0.814  28.878  0.00  0.00    +0.050 C 
ENDROOT
BRANCH   1   2
ATOM      2  C   UNL A   1     -27.064  -0.119  28.608  0.00  0.00    -0.020 A 
ATOM      3  C   UNL A   1     -25.765  -0.390  29.036  0.00  0.00    -0.004 A 
ATOM      4  C   UNL A   1     -24.552   0.406  28.765  0.00  0.00    +0.006 A 
ATOM      5  C   UNL A   1     -24.696   1.448  27.799  0.00  0.00    +0.080 A 
ATOM      6  C   UNL A   1     -25.976   1.725  27.308  0.00  0.00    +0.006 A 
ATOM      7  C   UNL A   1     -27.072   1.013  27.654  0.00  0.00    -0.004 A 
BRANCH   5   8
ATOM      8  C   UNL A   1     -23.487   2.187  27.485  0.00  0.00    +0.388 C 
ATOM      9  O   UNL A   1     -22.341   1.853  27.847  0.00  0.00    -0.241 OA
ATOM     10  O   UNL A   1     -23.597   3.089  26.494  0.00  0.00    -0.241 OA
ENDBRANCH   5   8
ENDBRANCH   1   2
BRANCH   1  11
ATOM     11  C   UNL A   1     -29.226  -0.068  29.315  0.00  0.00    +0.117 C 
BRANCH  11  12
ATOM     12  N   UNL A   1     -30.417  -0.702  29.142  0.00  0.00    -0.236 NA
BRANCH  12  13
ATOM     13  C   UNL A   1     -31.212  -0.306  28.066  0.00  0.00    +0.080 C 
ATOM     14  C   UNL A   1     -30.760   0.475  27.165  0.00  0.00    +0.017 C 
BRANCH  14  15
ATOM     15  C   UNL A   1     -30.673   0.163  25.886  0.00  0.00    +0.001 C 
ATOM     16  C   UNL A   1     -29.931   0.867  24.868  0.00  0.00    +0.000 C 
BRANCH  16  17
ATOM     17  C   UNL A   1     -29.534   2.189  25.163  0.00  0.00    +0.000 C 
ATOM     18  C   UNL A   1     -29.888   2.719  26.459  0.00  0.00    +0.000 C 
ENDBRANCH  16  17
ENDBRANCH  14  15
ENDBRANCH  12  13
ENDBRANCH  11  12
ENDBRANCH   1  11
TORSDOF 7
