MODEL 4739
MODEL 1
REMARK VINA RESULT:    -5.307      0.000      0.000
REMARK INTER + INTRA:          -8.765
REMARK INTER:                  -7.478
REMARK INTRA:                  -1.287
REMARK UNBOUND:                -1.287
REMARK  Name = No_4739-gen_results/8p0m/2024-11-27-11-27-31/
REMARK  7 active torsions:
REMARK  status: ('A' for Active; 'I' for Inactive)
REMARK    1  A    between atoms: C_1  and  C_2
REMARK    2  A    between atoms: C_1  and  C_8
REMARK    3  A    between atoms: C_5  and  C_10
REMARK    4  A    between atoms: C_8  and  N_9
REMARK    5  A    between atoms: N_9  and  C_13
REMARK    6  A    between atoms: C_14  and  C_15
REMARK    7  A    between atoms: C_16  and  C_17
REMARK                            x       y       z     vdW  Elec       q    Type
REMARK                         _______ _______ _______ _____ _____    ______ ____
ROOT
ATOM      1  C   UNL A   1     -30.493 -10.341  29.289  0.00  0.00    +0.050 C 
ENDROOT
BRANCH   1   2
ATOM      2  C   UNL A   1     -29.768 -10.627  30.214  0.00  0.00    -0.020 A 
ATOM      3  C   UNL A   1     -29.949 -10.151  31.511  0.00  0.00    -0.004 A 
ATOM      4  C   UNL A   1     -29.111 -10.437  32.692  0.00  0.00    +0.006 A 
ATOM      5  C   UNL A   1     -28.135 -11.467  32.526  0.00  0.00    +0.080 A 
ATOM      6  C   UNL A   1     -27.951 -12.006  31.249  0.00  0.00    +0.006 A 
ATOM      7  C   UNL A   1     -28.695 -11.646  30.179  0.00  0.00    -0.004 A 
BRANCH   5   8
ATOM      8  C   UNL A   1     -27.357 -11.793  33.707  0.00  0.00    +0.388 C 
ATOM      9  O   UNL A   1     -26.587 -12.770  33.797  0.00  0.00    -0.241 OA
ATOM     10  O   UNL A   1     -27.235 -10.808  34.614  0.00  0.00    -0.241 OA
ENDBRANCH   5   8
ENDBRANCH   1   2
BRANCH   1  11
ATOM     11  C   UNL A   1     -30.171 -11.030  28.011  0.00  0.00    +0.117 C 
BRANCH  11  12
ATOM     12  N   UNL A   1     -31.093 -11.924  27.562  0.00  0.00    -0.236 NA
BRANCH  12  13
ATOM     13  C   UNL A   1     -30.671 -13.235  27.342  0.00  0.00    +0.080 C 
ATOM     14  C   UNL A   1     -30.256 -13.964  28.303  0.00  0.00    +0.017 C 
BRANCH  14  15
ATOM     15  C   UNL A   1     -30.811 -15.105  28.664  0.00  0.00    +0.001 C 
ATOM     16  C   UNL A   1     -30.855 -15.669  29.992  0.00  0.00    +0.000 C 
BRANCH  16  17
ATOM     17  C   UNL A   1     -29.947 -15.150  30.939  0.00  0.00    +0.000 C 
ATOM     18  C   UNL A   1     -30.497 -14.463  32.085  0.00  0.00    +0.000 C 
ENDBRANCH  16  17
ENDBRANCH  14  15
ENDBRANCH  12  13
ENDBRANCH  11  12
ENDBRANCH   1  11
TORSDOF 7
ENDMDL
ENDMDL
