REMARK  Name = No_474-gen_results/8p0m/2024-11-27-11-27-31/
REMARK  6 active torsions:
REMARK  status: ('A' for Active; 'I' for Inactive)
REMARK    1  A    between atoms: C_1  and  C_2
REMARK    2  A    between atoms: C_1  and  C_8
REMARK    3  A    between atoms: C_3  and  C_18
REMARK    4  A    between atoms: C_5  and  C_11
REMARK    5  A    between atoms: C_7  and  C_21
REMARK    6  A    between atoms: C_18  and  C_20
REMARK                            x       y       z     vdW  Elec       q    Type
REMARK                         _______ _______ _______ _____ _____    ______ ____
ROOT
ATOM      1  C   UNL A   1     -27.064  -0.119  28.608  0.00  0.00    -0.018 A 
ATOM      2  C   UNL A   1     -25.765  -0.390  29.036  0.00  0.00    -0.022 A 
ATOM      3  C   UNL A   1     -24.552   0.406  28.765  0.00  0.00    +0.000 A 
ATOM      4  C   UNL A   1     -24.696   1.448  27.799  0.00  0.00    +0.057 A 
ATOM      5  C   UNL A   1     -25.976   1.725  27.308  0.00  0.00    +0.011 A 
ATOM      6  C   UNL A   1     -27.072   1.013  27.654  0.00  0.00    +0.076 A 
ENDROOT
BRANCH   4   7
ATOM      7  C   UNL A   1     -23.487   2.214  27.501  0.00  0.00    +0.284 C 
ATOM      8  N   UNL A   1     -23.585   3.148  26.630  0.00  0.00    -0.084 NA
ATOM      9  O   UNL A   1     -22.325   1.899  27.904  0.00  0.00    -0.267 OA
ENDBRANCH   4   7
BRANCH   6  10
ATOM     10  C   UNL A   1     -28.348   1.412  27.030  0.00  0.00    +0.387 C 
ATOM     11  O   UNL A   1     -28.469   1.830  26.015  0.00  0.00    -0.241 OA
ATOM     12  O   UNL A   1     -29.361   1.210  27.791  0.00  0.00    -0.241 OA
ENDBRANCH   6  10
BRANCH   2  13
ATOM     13  C   UNL A   1     -25.460  -1.433  30.075  0.00  0.00    +0.045 C 
ATOM     14  C   UNL A   1     -24.987  -1.333  30.984  0.00  0.00    +0.009 C 
BRANCH  13  15
ATOM     15  C   UNL A   1     -25.317  -2.789  29.377  0.00  0.00    -0.003 C 
ATOM     16  C   UNL A   1     -24.154  -3.298  28.910  0.00  0.00    +0.102 C 
ATOM     17  N   UNL A   1     -24.112  -4.515  28.469  0.00  0.00    -0.127 NA
ENDBRANCH  13  15
ENDBRANCH   2  13
BRANCH   1  18
ATOM     18  C   UNL A   1     -28.016  -0.814  28.878  0.00  0.00    +0.048 C 
BRANCH  18  19
ATOM     19  C   UNL A   1     -28.618  -0.469  30.221  0.00  0.00    +0.100 C 
ATOM     20  N   UNL A   1     -28.338   0.450  30.825  0.00  0.00    -0.207 NA
ATOM     21  C   UNL A   1     -29.662  -1.521  30.713  0.00  0.00    +0.022 C 
ATOM     22  C   UNL A   1     -28.882   0.819  32.127  0.00  0.00    +0.241 C 
ATOM     23  C   UNL A   1     -30.253  -1.177  31.978  0.00  0.00    +0.011 C 
ATOM     24  C   UNL A   1     -29.845  -0.018  32.675  0.00  0.00    +0.087 C 
ATOM     25  O   UNL A   1     -28.507   1.869  32.728  0.00  0.00    -0.273 OA
ENDBRANCH  18  19
ENDBRANCH   1  18
TORSDOF 6
