REMARK  Name = outputs/IAG933/test6/raw/output_4740_IAG933_linker_design_.xyz
REMARK  12 active torsions:
REMARK  status: ('A' for Active; 'I' for Inactive)
REMARK    1  A    between atoms: C_1  and  C_2
REMARK    2  A    between atoms: C_1  and  C_8
REMARK    3  A    between atoms: C_1  and  N_38
REMARK    4  A    between atoms: C_13  and  C_43
REMARK    5  A    between atoms: C_14  and  C_15
REMARK    6  A    between atoms: C_21  and  O_22
REMARK    7  A    between atoms: O_22  and  C_23
REMARK    8  A    between atoms: C_23  and  C_24
REMARK    9  A    between atoms: C_28  and  C_34
REMARK   10  A    between atoms: C_28  and  N_41
REMARK   11  A    between atoms: C_30  and  C_43
REMARK   12  A    between atoms: C_36  and  C_42
REMARK                            x       y       z     vdW  Elec       q    Type
REMARK                         _______ _______ _______ _____ _____    ______ ____
ROOT
ATOM      1  C   UNL A   1     -25.707   0.866  28.836  0.00  0.00    +0.158 C 
ATOM      2  N   UNL A   1     -24.709  -0.132  28.902  0.00  0.00    -0.256 NA
ATOM      3  C   UNL A   1     -24.746   1.135  27.586  0.00  0.00    +0.134 C 
ENDROOT
BRANCH   3   4
ATOM      4  C   UNL A   1     -25.688   1.614  26.461  0.00  0.00    +0.092 C 
ATOM      5  C   UNL A   1     -26.250   2.920  26.395  0.00  0.00    +0.057 C 
ATOM      6  C   UNL A   1     -27.438   3.091  25.645  0.00  0.00    +0.102 C 
ATOM      7  N   UNL A   1     -28.075   2.089  25.003  0.00  0.00    -0.212 NA
ATOM      8  C   UNL A   1     -27.543   0.849  25.079  0.00  0.00    +0.234 C 
ATOM      9  C   UNL A   1     -26.354   0.576  25.777  0.00  0.00    +0.242 C 
ATOM     10  F   UNL A   1     -25.860  -0.681  25.795  0.00  0.00    -0.227 F 
BRANCH   5  11
ATOM     11  C   UNL A   1     -25.642   4.093  27.123  0.00  0.00    +0.263 C 
ATOM     12  N   UNL A   1     -25.614   5.252  26.449  0.00  0.00    -0.200 NA
ATOM     13  C   UNL A   1     -25.026   6.479  26.963  0.00  0.00    +0.139 C 
ATOM     14  O   UNL A   1     -25.143   3.966  28.243  0.00  0.00    -0.269 OA
ENDBRANCH   5  11
BRANCH   8  15
ATOM     15  O   UNL A   1     -28.193  -0.208  24.477  0.00  0.00    -0.459 OA
BRANCH  15  16
ATOM     16  C   UNL A   1     -29.460   0.005  23.866  0.00  0.00    +0.242 C 
BRANCH  16  17
ATOM     17  C   UNL A   1     -30.065  -1.377  23.573  0.00  0.00    +0.229 C 
ATOM     18  O   UNL A   1     -30.729  -1.878  24.721  0.00  0.00    -0.216 OA
ENDBRANCH  16  17
ENDBRANCH  15  16
ENDBRANCH   8  15
ENDBRANCH   3   4
BRANCH   3  19
ATOM     19  C   UNL A   1     -23.339   1.368  27.142  0.00  0.00    +0.222 C 
ATOM     20  C   UNL A   1     -22.265   0.889  27.961  0.00  0.00    +0.209 C 
ATOM     21  O   UNL A   1     -23.029   1.972  26.036  0.00  0.00    -0.287 OA
ATOM     22  O   UNL A   1     -22.338   0.167  29.107  0.00  0.00    -0.288 OA
ATOM     23  C   UNL A   1     -20.930   1.301  27.652  0.00  0.00    +0.081 C 
ENDBRANCH   3  19
BRANCH   1  24
ATOM     24  C   UNL A   1     -27.159   0.786  28.976  0.00  0.00    +0.262 C 
ATOM     25  O   UNL A   1     -27.894  -0.185  28.767  0.00  0.00    -0.272 OA
BRANCH  24  27
ATOM     26  C   UNL A   1     -28.366   2.781  29.889  0.00  0.00    +0.051 C 
ATOM     27  N   UNL A   1     -27.436   1.957  29.406  0.00  0.00    -0.182 NA
ATOM     28  C   UNL A   1     -29.624   2.304  30.341  0.00  0.00    +0.049 C 
BRANCH  26  33
ATOM     29  C   UNL A   1     -26.909   4.664  30.746  0.00  0.00    +0.001 C 
ATOM     30  C   UNL A   1     -27.933   6.359  28.749  0.00  0.00    +0.000 C 
ATOM     31  C   UNL A   1     -26.457   5.989  30.637  0.00  0.00    +0.000 C 
ATOM     32  C   UNL A   1     -26.979   6.859  29.645  0.00  0.00    +0.000 C 
ATOM     33  C   UNL A   1     -27.900   4.178  29.876  0.00  0.00    +0.011 C 
ATOM     34  C   UNL A   1     -28.386   5.045  28.892  0.00  0.00    +0.001 C 
ENDBRANCH  26  33
ENDBRANCH  24  27
ENDBRANCH   1  24
BRANCH   2  35
ATOM     35  C   UNL A   1     -24.855  -1.012  30.143  0.00  0.00    +0.097 C 
BRANCH  35  36
ATOM     36  C   UNL A   1     -24.973  -2.505  29.788  0.00  0.00    -0.006 C 
ATOM     37  C   UNL A   1     -23.906  -3.173  29.146  0.00  0.00    -0.003 C 
ATOM     38  C   UNL A   1     -23.989  -4.549  28.853  0.00  0.00    -0.000 C 
ATOM     39  C   UNL A   1     -25.137  -5.280  29.205  0.00  0.00    -0.000 C 
ATOM     40  C   UNL A   1     -26.232  -4.611  29.784  0.00  0.00    -0.000 C 
ATOM     41  C   UNL A   1     -26.155  -3.232  30.065  0.00  0.00    -0.003 C 
ENDBRANCH  35  36
BRANCH  35  42
ATOM     42  C   UNL A   1     -25.387  -0.679  31.571  0.00  0.00    +0.092 C 
ATOM     43  C   UNL A   1     -25.189   0.773  32.028  0.00  0.00    +0.021 C 
ATOM     44  C   UNL A   1     -25.336   0.684  33.544  0.00  0.00    +0.020 C 
ATOM     45  C   UNL A   1     -24.829  -0.715  33.905  0.00  0.00    +0.089 C 
ATOM     46  N   UNL A   1     -24.758  -1.481  32.646  0.00  0.00    -0.218 NA
ENDBRANCH  35  42
ENDBRANCH   2  35
TORSDOF 12
