MODEL 4740
MODEL 1
REMARK VINA RESULT:    -6.599      0.000      0.000
REMARK INTER + INTRA:          -7.853
REMARK INTER:                  -7.370
REMARK INTRA:                  -0.483
REMARK UNBOUND:                -0.483
REMARK  Name = No_4740-gen_results/8p0m/2024-11-27-11-27-31/
REMARK  2 active torsions:
REMARK  status: ('A' for Active; 'I' for Inactive)
REMARK    1  A    between atoms: C_2  and  N_3
REMARK    2  A    between atoms: N_3  and  C_4
REMARK                            x       y       z     vdW  Elec       q    Type
REMARK                         _______ _______ _______ _____ _____    ______ ____
ROOT
ATOM      1  N   UNL A   1     -24.475  -1.268  29.240  0.00  0.00    -0.213 NA
ENDROOT
BRANCH   1   2
ATOM      2  C   UNL A   1     -23.970  -0.346  28.339  0.00  0.00    +0.067 A 
ATOM      3  C   UNL A   1     -24.756   0.152  27.295  0.00  0.00    +0.016 A 
ATOM      4  C   UNL A   1     -24.317   1.111  26.376  0.00  0.00    +0.001 A 
ATOM      5  C   UNL A   1     -23.111   1.776  26.587  0.00  0.00    -0.000 A 
ATOM      6  C   UNL A   1     -22.296   1.317  27.627  0.00  0.00    -0.003 A 
ATOM      7  C   UNL A   1     -22.747   0.328  28.550  0.00  0.00    -0.007 A 
ATOM      8  C   UNL A   1     -21.873  -0.395  29.512  0.00  0.00    +0.032 C 
ENDBRANCH   1   2
BRANCH   1  10
ATOM      9  C   UNL A   1     -24.148  -3.311  28.343  0.00  0.00    +0.017 A 
ATOM     10  C   UNL A   1     -24.814  -2.543  28.998  0.00  0.00    +0.070 A 
ATOM     11  C   UNL A   1     -24.116  -4.678  28.771  0.00  0.00    +0.001 A 
ATOM     12  C   UNL A   1     -25.312  -5.220  29.168  0.00  0.00    +0.000 A 
ATOM     13  C   UNL A   1     -26.269  -4.338  29.690  0.00  0.00    +0.001 A 
ATOM     14  C   UNL A   1     -26.030  -2.979  29.735  0.00  0.00    +0.017 A 
ENDBRANCH   1  10
TORSDOF 2
ENDMDL
ENDMDL
