MODEL 4741
MODEL 1
REMARK VINA RESULT:    -5.029      0.000      0.000
REMARK INTER + INTRA:          -5.356
REMARK INTER:                  -5.323
REMARK INTRA:                  -0.033
REMARK UNBOUND:                -0.033
REMARK  Name = No_4741-gen_results/8p0m/2024-11-27-11-27-31/
REMARK  1 active torsions:
REMARK  status: ('A' for Active; 'I' for Inactive)
REMARK    1  A    between atoms: C_1  and  C_7
REMARK                            x       y       z     vdW  Elec       q    Type
REMARK                         _______ _______ _______ _____ _____    ______ ____
ROOT
ATOM      1  C   UNL A   1     -28.037 -11.315  32.548  0.00  0.00    +0.080 A 
ATOM      2  C   UNL A   1     -28.940 -10.517  32.647  0.00  0.00    +0.007 A 
ATOM      3  C   UNL A   1     -29.761 -10.156  31.597  0.00  0.00    +0.000 A 
ATOM      4  C   UNL A   1     -29.553 -10.790  30.340  0.00  0.00    +0.000 A 
ATOM      5  C   UNL A   1     -28.647 -11.795  30.323  0.00  0.00    +0.000 A 
ATOM      6  C   UNL A   1     -27.934 -12.100  31.390  0.00  0.00    +0.007 A 
ENDROOT
BRANCH   1   7
ATOM      7  C   UNL A   1     -27.197 -11.659  33.752  0.00  0.00    +0.388 C 
ATOM      8  O   UNL A   1     -26.792 -12.809  33.864  0.00  0.00    -0.241 OA
ATOM      9  O   UNL A   1     -27.022 -10.821  34.717  0.00  0.00    -0.241 OA
ENDBRANCH   1   7
TORSDOF 1
ENDMDL
ENDMDL
