REMARK  Name = outputs/IAG933/test6/raw/output_4743_IAG933_linker_design_.xyz
REMARK  12 active torsions:
REMARK  status: ('A' for Active; 'I' for Inactive)
REMARK    1  A    between atoms: C_1  and  C_2
REMARK    2  A    between atoms: C_1  and  C_8
REMARK    3  A    between atoms: C_1  and  O_39
REMARK    4  A    between atoms: C_13  and  C_31
REMARK    5  A    between atoms: C_14  and  C_15
REMARK    6  A    between atoms: C_21  and  O_22
REMARK    7  A    between atoms: O_22  and  C_23
REMARK    8  A    between atoms: C_23  and  C_24
REMARK    9  A    between atoms: N_28  and  C_34
REMARK   10  A    between atoms: C_32  and  C_37
REMARK   11  A    between atoms: C_34  and  O_39
REMARK   12  A    between atoms: C_34  and  C_43
REMARK                            x       y       z     vdW  Elec       q    Type
REMARK                         _______ _______ _______ _____ _____    ______ ____
ROOT
ATOM      1  F   UNL A   1     -21.067   2.384  26.662  0.00  0.00    -0.235 F 
ATOM      2  C   UNL A   1     -24.410   1.404  27.053  0.00  0.00    +0.062 C 
ATOM      3  C   UNL A   1     -22.118   1.651  27.037  0.00  0.00    +0.191 C 
ATOM      4  C   UNL A   1     -23.029   0.579  28.864  0.00  0.00    +0.007 C 
ATOM      5  C   UNL A   1     -21.897   0.927  28.180  0.00  0.00    +0.038 C 
ATOM      6  O   UNL A   1     -23.300   1.904  24.927  0.00  0.00    -0.220 OA
ATOM      7  C   UNL A   1     -23.289   1.701  26.321  0.00  0.00    +0.188 C 
ATOM      8  C   UNL A   1     -24.278   1.062  28.397  0.00  0.00    +0.055 C 
ENDROOT
BRANCH   2   9
ATOM      9  C   UNL A   1     -25.688   1.614  26.461  0.00  0.00    +0.018 C 
ATOM     10  C   UNL A   1     -26.250   2.920  26.395  0.00  0.00    +0.073 C 
ATOM     11  C   UNL A   1     -27.438   3.091  25.645  0.00  0.00    +0.106 C 
ATOM     12  N   UNL A   1     -28.075   2.089  25.003  0.00  0.00    -0.208 NA
ATOM     13  C   UNL A   1     -27.543   0.849  25.079  0.00  0.00    +0.253 C 
ATOM     14  C   UNL A   1     -26.354   0.576  25.777  0.00  0.00    +0.189 C 
ATOM     15  F   UNL A   1     -25.860  -0.681  25.795  0.00  0.00    -0.200 F 
BRANCH  10  16
ATOM     16  C   UNL A   1     -25.642   4.093  27.123  0.00  0.00    +0.266 C 
ATOM     17  N   UNL A   1     -25.614   5.252  26.449  0.00  0.00    -0.200 NA
ATOM     18  C   UNL A   1     -25.026   6.479  26.963  0.00  0.00    +0.139 C 
ATOM     19  O   UNL A   1     -25.143   3.966  28.243  0.00  0.00    -0.268 OA
ENDBRANCH  10  16
BRANCH  13  20
ATOM     20  O   UNL A   1     -28.193  -0.208  24.477  0.00  0.00    -0.456 OA
BRANCH  20  21
ATOM     21  C   UNL A   1     -29.460   0.005  23.866  0.00  0.00    +0.243 C 
BRANCH  21  22
ATOM     22  C   UNL A   1     -30.065  -1.377  23.573  0.00  0.00    +0.229 C 
ATOM     23  O   UNL A   1     -30.729  -1.878  24.721  0.00  0.00    -0.216 OA
ENDBRANCH  21  22
ENDBRANCH  20  21
ENDBRANCH  13  20
ENDBRANCH   2   9
BRANCH   8  24
ATOM     24  C   UNL A   1     -25.473   1.115  29.263  0.00  0.00    +0.212 C 
BRANCH  24  25
ATOM     25  N   UNL A   1     -25.707   2.216  30.266  0.00  0.00    -0.176 NA
ATOM     26  C   UNL A   1     -25.280   3.179  30.990  0.00  0.00    +0.274 C 
ATOM     27  O   UNL A   1     -24.202   3.260  31.499  0.00  0.00    -0.271 OA
BRANCH  26  29
ATOM     28  O   UNL A   1     -25.677   5.397  31.904  0.00  0.00    -0.213 OA
ATOM     29  C   UNL A   1     -26.292   4.422  31.052  0.00  0.00    +0.229 C 
ATOM     30  C   UNL A   1     -27.621   3.738  31.445  0.00  0.00    +0.046 C 
ENDBRANCH  26  29
ENDBRANCH  24  25
BRANCH  24  31
ATOM     31  O   UNL A   1     -25.758  -0.318  29.268  0.00  0.00    -0.333 OA
BRANCH  31  32
ATOM     32  C   UNL A   1     -24.855  -1.012  30.143  0.00  0.00    +0.155 C 
BRANCH  32  33
ATOM     33  C   UNL A   1     -24.973  -2.505  29.788  0.00  0.00    +0.006 C 
ATOM     34  C   UNL A   1     -23.906  -3.173  29.146  0.00  0.00    -0.002 C 
ATOM     35  C   UNL A   1     -23.989  -4.549  28.853  0.00  0.00    -0.000 C 
ATOM     36  C   UNL A   1     -25.137  -5.280  29.205  0.00  0.00    -0.000 C 
ATOM     37  C   UNL A   1     -26.232  -4.611  29.784  0.00  0.00    -0.000 C 
ATOM     38  C   UNL A   1     -26.155  -3.232  30.065  0.00  0.00    -0.002 C 
ENDBRANCH  32  33
BRANCH  32  39
ATOM     39  C   UNL A   1     -25.387  -0.679  31.571  0.00  0.00    +0.104 C 
ATOM     40  C   UNL A   1     -25.189   0.773  32.028  0.00  0.00    +0.022 C 
ATOM     41  C   UNL A   1     -25.336   0.684  33.544  0.00  0.00    +0.020 C 
ATOM     42  C   UNL A   1     -24.829  -0.715  33.905  0.00  0.00    +0.089 C 
ATOM     43  N   UNL A   1     -24.758  -1.481  32.646  0.00  0.00    -0.217 NA
ENDBRANCH  32  39
ENDBRANCH  31  32
ENDBRANCH  24  31
ENDBRANCH   8  24
TORSDOF 12
