MODEL 4743
MODEL 1
REMARK VINA RESULT:    -6.589      0.000      0.000
REMARK INTER + INTRA:          -7.328
REMARK INTER:                  -6.974
REMARK INTRA:                  -0.354
REMARK UNBOUND:                -0.354
REMARK  Name = No_4743-gen_results/8p0m/2024-11-27-11-27-31/
REMARK  1 active torsions:
REMARK  status: ('A' for Active; 'I' for Inactive)
REMARK    1  A    between atoms: C_2  and  C_7
REMARK                            x       y       z     vdW  Elec       q    Type
REMARK                         _______ _______ _______ _____ _____    ______ ____
ROOT
ATOM      1  C   UNL A   1     -25.640  -2.499  29.612  0.00  0.00    +0.000 A 
ATOM      2  C   UNL A   1     -24.546  -2.639  29.116  0.00  0.00    +0.000 A 
ATOM      3  C   UNL A   1     -24.080  -3.896  28.748  0.00  0.00    +0.000 A 
ATOM      4  C   UNL A   1     -24.867  -5.078  28.988  0.00  0.00    +0.000 A 
ATOM      5  C   UNL A   1     -26.109  -4.828  29.586  0.00  0.00    +0.000 A 
ATOM      6  C   UNL A   1     -26.496  -3.621  29.931  0.00  0.00    +0.000 A 
ENDROOT
BRANCH   2   7
ATOM      7  C   UNL A   1     -23.591  -1.537  28.822  0.00  0.00    +0.000 A 
ATOM      8  C   UNL A   1     -22.662  -1.322  29.191  0.00  0.00    +0.000 A 
ATOM      9  C   UNL A   1     -21.755  -0.140  28.940  0.00  0.00    +0.000 A 
ATOM     10  C   UNL A   1     -22.244   0.868  28.132  0.00  0.00    +0.000 A 
ATOM     11  C   UNL A   1     -23.537   0.748  27.617  0.00  0.00    +0.000 A 
ATOM     12  C   UNL A   1     -24.255  -0.380  27.884  0.00  0.00    +0.000 A 
ENDBRANCH   2   7
TORSDOF 1
ENDMDL
ENDMDL
