REMARK  Name = outputs/IAG933/test6/raw/output_4745_IAG933_linker_design_.xyz
REMARK  17 active torsions:
REMARK  status: ('A' for Active; 'I' for Inactive)
REMARK    1  A    between atoms: C_1  and  C_2
REMARK    2  A    between atoms: C_1  and  C_8
REMARK    3  A    between atoms: C_1  and  C_36
REMARK    4  A    between atoms: C_13  and  C_28
REMARK    5  A    between atoms: C_14  and  C_15
REMARK    6  A    between atoms: C_21  and  O_22
REMARK    7  A    between atoms: O_22  and  C_23
REMARK    8  A    between atoms: C_23  and  C_24
REMARK    9  A    between atoms: N_30  and  C_31
REMARK   10  A    between atoms: N_30  and  C_33
REMARK   11  A    between atoms: C_33  and  C_41
REMARK   12  A    between atoms: C_35  and  N_37
REMARK   13  A    between atoms: N_37  and  C_39
REMARK   14  A    between atoms: C_38  and  C_39
REMARK   15  A    between atoms: C_39  and  C_42
REMARK   16  A    between atoms: C_41  and  C_42
REMARK   17  A    between atoms: O_43  and  C_44
REMARK                            x       y       z     vdW  Elec       q    Type
REMARK                         _______ _______ _______ _____ _____    ______ ____
ROOT
ATOM      1  C   UNL A   1     -24.499   1.294  27.438  0.00  0.00    +0.051 C 
ATOM      2  C   UNL A   1     -22.177   0.919  28.345  0.00  0.00    +0.037 C 
ATOM      3  C   UNL A   1     -25.004   0.807  28.613  0.00  0.00    +0.065 C 
ATOM      4  C   UNL A   1     -24.180  -0.012  29.377  0.00  0.00    -0.002 C 
ATOM      5  C   UNL A   1     -22.759   0.111  29.330  0.00  0.00    +0.001 C 
ATOM      6  C   UNL A   1     -23.053   1.497  27.398  0.00  0.00    +0.140 C 
ENDROOT
BRANCH   1   7
ATOM      7  C   UNL A   1     -25.688   1.614  26.461  0.00  0.00    +0.042 C 
ATOM      8  C   UNL A   1     -26.250   2.920  26.395  0.00  0.00    +0.077 C 
ATOM      9  C   UNL A   1     -27.438   3.091  25.645  0.00  0.00    +0.107 C 
ATOM     10  N   UNL A   1     -28.075   2.089  25.003  0.00  0.00    -0.208 NA
ATOM     11  C   UNL A   1     -27.543   0.849  25.079  0.00  0.00    +0.253 C 
ATOM     12  C   UNL A   1     -26.354   0.576  25.777  0.00  0.00    +0.193 C 
ATOM     13  F   UNL A   1     -25.860  -0.681  25.795  0.00  0.00    -0.199 F 
BRANCH   8  14
ATOM     14  C   UNL A   1     -25.642   4.093  27.123  0.00  0.00    +0.266 C 
ATOM     15  N   UNL A   1     -25.614   5.252  26.449  0.00  0.00    -0.200 NA
ATOM     16  C   UNL A   1     -25.026   6.479  26.963  0.00  0.00    +0.139 C 
ATOM     17  O   UNL A   1     -25.143   3.966  28.243  0.00  0.00    -0.268 OA
ENDBRANCH   8  14
BRANCH  11  18
ATOM     18  O   UNL A   1     -28.193  -0.208  24.477  0.00  0.00    -0.456 OA
BRANCH  18  19
ATOM     19  C   UNL A   1     -29.460   0.005  23.866  0.00  0.00    +0.243 C 
BRANCH  19  20
ATOM     20  C   UNL A   1     -30.065  -1.377  23.573  0.00  0.00    +0.229 C 
ATOM     21  O   UNL A   1     -30.729  -1.878  24.721  0.00  0.00    -0.216 OA
ENDBRANCH  19  20
ENDBRANCH  18  19
ENDBRANCH  11  18
ENDBRANCH   1   7
BRANCH   6  23
ATOM     22  C   UNL A   1     -22.882   2.079  25.084  0.00  0.00    +0.253 C 
ATOM     23  O   UNL A   1     -22.430   2.327  26.470  0.00  0.00    -0.471 OA
ENDBRANCH   6  23
BRANCH   4  24
ATOM     24  C   UNL A   1     -24.855  -1.012  30.143  0.00  0.00    +0.062 C 
BRANCH  24  25
ATOM     25  C   UNL A   1     -24.973  -2.505  29.788  0.00  0.00    -0.017 C 
ATOM     26  C   UNL A   1     -23.906  -3.173  29.146  0.00  0.00    -0.004 C 
ATOM     27  C   UNL A   1     -23.989  -4.549  28.853  0.00  0.00    -0.000 C 
ATOM     28  C   UNL A   1     -25.137  -5.280  29.205  0.00  0.00    -0.000 C 
ATOM     29  C   UNL A   1     -26.232  -4.611  29.784  0.00  0.00    -0.000 C 
ATOM     30  C   UNL A   1     -26.155  -3.232  30.065  0.00  0.00    -0.004 C 
ENDBRANCH  24  25
BRANCH  24  31
ATOM     31  C   UNL A   1     -25.387  -0.679  31.571  0.00  0.00    +0.081 C 
ATOM     32  C   UNL A   1     -25.189   0.773  32.028  0.00  0.00    +0.019 C 
ATOM     33  C   UNL A   1     -25.336   0.684  33.544  0.00  0.00    +0.020 C 
ATOM     34  C   UNL A   1     -24.829  -0.715  33.905  0.00  0.00    +0.089 C 
ATOM     35  N   UNL A   1     -24.758  -1.481  32.646  0.00  0.00    -0.219 NA
ENDBRANCH  24  31
ENDBRANCH   4  24
BRANCH   3  36
ATOM     36  N   UNL A   1     -26.269   1.336  29.012  0.00  0.00    -0.239 NA
BRANCH  36  37
ATOM     37  C   UNL A   1     -27.375   0.390  29.096  0.00  0.00    +0.104 C 
BRANCH  37  38
ATOM     38  C   UNL A   1     -28.288   0.239  27.930  0.00  0.00    +0.090 C 
ATOM     39  S   UNL A   1     -29.877  -0.327  27.917  0.00  0.00    -0.080 S 
ENDBRANCH  37  38
BRANCH  37  40
ATOM     40  C   UNL A   1     -28.194   0.930  30.334  0.00  0.00    +0.024 C 
BRANCH  40  41
ATOM     41  C   UNL A   1     -29.086  -0.307  30.981  0.00  0.00    +0.021 C 
BRANCH  41  42
ATOM     42  C   UNL A   1     -29.312  -1.337  30.352  0.00  0.00    +0.089 C 
BRANCH  42  43
ATOM     43  N   UNL A   1     -30.634  -1.059  30.348  0.00  0.00    -0.218 NA
BRANCH  43  44
ATOM     44  C   UNL A   1     -31.600  -0.528  29.747  0.00  0.00    +0.089 C 
ATOM     45  C   UNL A   1     -32.850  -1.258  29.396  0.00  0.00    +0.020 C 
ENDBRANCH  43  44
ENDBRANCH  42  43
ENDBRANCH  41  42
ENDBRANCH  40  41
ENDBRANCH  37  40
ENDBRANCH  36  37
ENDBRANCH   3  36
TORSDOF 17
