MODEL 4746
MODEL 1
REMARK VINA RESULT:    -5.346      0.000      0.000
REMARK INTER + INTRA:          -5.811
REMARK INTER:                  -5.658
REMARK INTRA:                  -0.153
REMARK UNBOUND:                -0.153
REMARK  Name = No_4746-gen_results/8p0m/2024-11-27-11-27-31/
REMARK  1 active torsions:
REMARK  status: ('A' for Active; 'I' for Inactive)
REMARK    1  A    between atoms: C_4  and  C_7
REMARK                            x       y       z     vdW  Elec       q    Type
REMARK                         _______ _______ _______ _____ _____    ______ ____
ROOT
ATOM      1  C   UNL A   1     -26.544  -3.975  29.861  0.00  0.00    -0.000 A 
ATOM      2  C   UNL A   1     -26.061  -4.873  29.596  0.00  0.00    -0.000 A 
ATOM      3  C   UNL A   1     -25.756  -2.739  29.731  0.00  0.00    +0.004 A 
ATOM      4  C   UNL A   1     -24.459  -2.765  29.141  0.00  0.00    +0.071 A 
ATOM      5  C   UNL A   1     -24.769  -5.165  28.917  0.00  0.00    -0.000 A 
ATOM      6  C   UNL A   1     -24.005  -4.044  28.788  0.00  0.00    +0.004 A 
ENDROOT
BRANCH   4   7
ATOM      7  C   UNL A   1     -23.658  -1.597  28.982  0.00  0.00    +0.419 C 
ATOM      8  F   UNL A   1     -22.563  -1.832  28.875  0.00  0.00    -0.166 F 
ATOM      9  F   UNL A   1     -24.064  -0.828  27.898  0.00  0.00    -0.166 F 
ATOM     10  F   UNL A   1     -23.831  -0.778  30.055  0.00  0.00    -0.166 F 
ENDBRANCH   4   7
TORSDOF 1
ENDMDL
ENDMDL
