MODEL 4747
MODEL 1
REMARK VINA RESULT:    -6.634      0.000      0.000
REMARK INTER + INTRA:          -7.398
REMARK INTER:                  -7.022
REMARK INTRA:                  -0.376
REMARK UNBOUND:                -0.376
REMARK  Name = No_4747-gen_results/8p0m/2024-11-27-11-27-31/
REMARK  1 active torsions:
REMARK  status: ('A' for Active; 'I' for Inactive)
REMARK    1  A    between atoms: C_4  and  C_7
REMARK                            x       y       z     vdW  Elec       q    Type
REMARK                         _______ _______ _______ _____ _____    ______ ____
ROOT
ATOM      1  C   UNL A   1     -24.577  -5.237  28.884  0.00  0.00    +0.000 A 
ATOM      2  C   UNL A   1     -25.537  -5.227  29.319  0.00  0.00    +0.000 A 
ATOM      3  C   UNL A   1     -23.991  -3.928  28.553  0.00  0.00    +0.000 A 
ATOM      4  C   UNL A   1     -24.645  -2.722  28.940  0.00  0.00    +0.000 A 
ATOM      5  C   UNL A   1     -25.864  -2.869  29.554  0.00  0.00    +0.000 A 
ATOM      6  C   UNL A   1     -26.367  -4.095  29.811  0.00  0.00    +0.000 A 
ENDROOT
BRANCH   4   7
ATOM      7  C   UNL A   1     -24.078  -1.432  28.641  0.00  0.00    +0.000 A 
ATOM      8  C   UNL A   1     -24.447  -0.709  28.027  0.00  0.00    +0.000 A 
ATOM      9  C   UNL A   1     -23.737   0.574  27.548  0.00  0.00    +0.000 A 
ATOM     10  C   UNL A   1     -22.494   0.726  28.133  0.00  0.00    +0.000 A 
ATOM     11  C   UNL A   1     -22.703  -1.224  29.209  0.00  0.00    +0.000 A 
ATOM     12  C   UNL A   1     -21.970  -0.175  28.906  0.00  0.00    +0.000 A 
ENDBRANCH   4   7
TORSDOF 1
ENDMDL
ENDMDL
