MODEL 4748
MODEL 1
REMARK VINA RESULT:    -7.219      0.000      0.000
REMARK INTER + INTRA:         -10.009
REMARK INTER:                  -9.329
REMARK INTRA:                  -0.681
REMARK UNBOUND:                -0.681
REMARK  Name = No_4748-gen_results/8p0m/2024-11-27-11-27-31/
REMARK  5 active torsions:
REMARK  status: ('A' for Active; 'I' for Inactive)
REMARK    1  A    between atoms: C_5  and  C_11
REMARK    2  A    between atoms: C_7  and  C_24
REMARK    3  A    between atoms: C_8  and  C_15
REMARK    4  A    between atoms: N_16  and  C_18
REMARK    5  A    between atoms: C_24  and  O_26
REMARK                            x       y       z     vdW  Elec       q    Type
REMARK                         _______ _______ _______ _____ _____    ______ ____
ROOT
ATOM      1  C   UNL A   1      -7.004   0.998   8.943  0.00  0.00    +0.005 A 
ATOM      2  C   UNL A   1      -7.819   1.509   9.676  0.00  0.00    +0.006 A 
ATOM      3  C   UNL A   1      -7.936   1.116  11.005  0.00  0.00    +0.000 A 
ATOM      4  C   UNL A   1      -8.904   1.659  12.001  0.00  0.00    +0.004 A 
ATOM      5  C   UNL A   1      -9.665   2.790  11.579  0.00  0.00    +0.072 A 
ATOM      6  C   UNL A   1      -9.486   3.210  10.246  0.00  0.00    +0.010 A 
ATOM      7  C   UNL A   1      -8.635   2.644   9.378  0.00  0.00    +0.076 A 
ATOM      8  C   UNL A   1      -6.513  -0.397   9.201  0.00  0.00    +0.055 A 
ATOM      9  C   UNL A   1      -6.514  -0.802  10.585  0.00  0.00    +0.005 A 
ATOM     10  C   UNL A   1      -7.319  -0.119  11.493  0.00  0.00    +0.000 A 
ENDROOT
BRANCH   5  11
ATOM     11  C   UNL A   1     -10.567   3.430  12.544  0.00  0.00    +0.419 C 
ATOM     12  F   UNL A   1     -11.333   2.875  13.189  0.00  0.00    -0.166 F 
ATOM     13  F   UNL A   1      -9.689   4.135  13.453  0.00  0.00    -0.166 F 
ATOM     14  F   UNL A   1     -11.088   4.630  11.938  0.00  0.00    -0.166 F 
ENDBRANCH   5  11
BRANCH   8  15
ATOM     15  C   UNL A   1      -5.566  -1.078   8.318  0.00  0.00    +0.269 C 
ATOM     16  N   UNL A   1      -4.364  -1.219   8.490  0.00  0.00    -0.175 NA
ATOM     17  O   UNL A   1      -6.094  -1.592   7.259  0.00  0.00    -0.268 OA
BRANCH  16  18
ATOM     18  C   UNL A   1      -3.378  -1.848   7.618  0.00  0.00    +0.074 A 
ATOM     19  C   UNL A   1      -2.790  -2.766   8.083  0.00  0.00    +0.017 A 
ATOM     20  C   UNL A   1      -1.478  -2.986   7.611  0.00  0.00    +0.001 A 
ATOM     21  C   UNL A   1      -0.945  -2.286   6.532  0.00  0.00    +0.000 A 
ATOM     22  C   UNL A   1      -1.702  -1.220   6.069  0.00  0.00    +0.001 A 
ATOM     23  C   UNL A   1      -2.859  -0.902   6.725  0.00  0.00    +0.017 A 
ENDBRANCH  16  18
ENDBRANCH   8  15
BRANCH   7  24
ATOM     24  C   UNL A   1      -8.562   3.251   8.011  0.00  0.00    +0.341 C 
ATOM     25  O   UNL A   1      -9.350   3.038   7.206  0.00  0.00    -0.245 OA
BRANCH  24  26
ATOM     26  O   UNL A   1      -7.414   3.927   7.831  0.00  0.00    -0.441 OA
ATOM     27  C   UNL A   1      -7.404   5.277   7.875  0.00  0.00    +0.256 C 
ENDBRANCH  24  26
ENDBRANCH   7  24
TORSDOF 5
ENDMDL
ENDMDL
