MODEL 4749
MODEL 1
REMARK VINA RESULT:    -4.392      0.000      0.000
REMARK INTER + INTRA:          -4.392
REMARK INTER:                  -4.392
REMARK INTRA:                   0.000
REMARK UNBOUND:                 0.000
REMARK  Name = No_4749-gen_results/8p0m/2024-11-27-11-27-31/
REMARK  0 active torsions:
REMARK  status: ('A' for Active; 'I' for Inactive)
REMARK                            x       y       z     vdW  Elec       q    Type
REMARK                         _______ _______ _______ _____ _____    ______ ____
ROOT
ATOM      1  C   UNL A   1     -10.296  -9.071  19.543  0.00  0.00    +0.001 A 
ATOM      2  C   UNL A   1      -9.375  -9.141  20.324  0.00  0.00    +0.011 A 
ATOM      3  C   UNL A   1      -8.205  -9.857  20.076  0.00  0.00    +0.058 A 
ATOM      4  C   UNL A   1      -8.089 -10.615  18.845  0.00  0.00    +0.011 A 
ATOM      5  C   UNL A   1      -9.206 -10.494  17.987  0.00  0.00    +0.001 A 
ATOM      6  C   UNL A   1     -10.268  -9.800  18.311  0.00  0.00    +0.000 A 
ATOM      7 CL   UNL A   1      -6.871  -9.984  21.145  0.00  0.00    -0.082 Cl
ENDROOT
TORSDOF 0
ENDMDL
ENDMDL
