REMARK  Name = outputs/IAG933/test6/raw/output_4750_IAG933_linker_design_.xyz
REMARK  12 active torsions:
REMARK  status: ('A' for Active; 'I' for Inactive)
REMARK    1  A    between atoms: C_1  and  C_2
REMARK    2  A    between atoms: C_1  and  C_8
REMARK    3  A    between atoms: C_1  and  N_39
REMARK    4  A    between atoms: C_13  and  C_31
REMARK    5  A    between atoms: C_14  and  C_15
REMARK    6  A    between atoms: C_21  and  O_22
REMARK    7  A    between atoms: O_22  and  C_23
REMARK    8  A    between atoms: C_23  and  C_24
REMARK    9  A    between atoms: C_28  and  C_43
REMARK   10  A    between atoms: C_30  and  C_40
REMARK   11  A    between atoms: C_34  and  C_38
REMARK   12  A    between atoms: C_34  and  C_43
REMARK                            x       y       z     vdW  Elec       q    Type
REMARK                         _______ _______ _______ _____ _____    ______ ____
ROOT
ATOM      1  C   UNL A   1     -25.210   0.787  28.597  0.00  0.00    +0.216 C 
ATOM      2  C   UNL A   1     -24.692   1.426  27.425  0.00  0.00    +0.067 C 
ATOM      3  C   UNL A   1     -22.463   0.958  28.223  0.00  0.00    +0.180 C 
ATOM      4  N   UNL A   1     -22.244  -0.430  30.198  0.00  0.00    +0.211 NA
ATOM      5 CL   UNL A   1     -20.776   1.221  28.080  0.00  0.00    -0.071 Cl
ATOM      6  C   UNL A   1     -23.019   0.145  29.273  0.00  0.00    +0.379 C 
ATOM      7  N   UNL A   1     -24.360   0.023  29.348  0.00  0.00    -0.182 N 
ATOM      8  C   UNL A   1     -23.267   1.547  27.252  0.00  0.00    +0.213 C 
ATOM      9  O   UNL A   1     -22.703   2.240  26.238  0.00  0.00    -0.286 OA
ENDROOT
BRANCH   2  10
ATOM     10  C   UNL A   1     -25.688   1.614  26.461  0.00  0.00    +0.041 C 
ATOM     11  C   UNL A   1     -26.250   2.920  26.395  0.00  0.00    +0.076 C 
ATOM     12  C   UNL A   1     -27.438   3.091  25.645  0.00  0.00    +0.107 C 
ATOM     13  N   UNL A   1     -28.075   2.089  25.003  0.00  0.00    -0.208 NA
ATOM     14  C   UNL A   1     -27.543   0.849  25.079  0.00  0.00    +0.253 C 
ATOM     15  C   UNL A   1     -26.354   0.576  25.777  0.00  0.00    +0.193 C 
ATOM     16  F   UNL A   1     -25.860  -0.681  25.795  0.00  0.00    -0.199 F 
BRANCH  11  17
ATOM     17  C   UNL A   1     -25.642   4.093  27.123  0.00  0.00    +0.266 C 
ATOM     18  N   UNL A   1     -25.614   5.252  26.449  0.00  0.00    -0.200 NA
ATOM     19  C   UNL A   1     -25.026   6.479  26.963  0.00  0.00    +0.139 C 
ATOM     20  O   UNL A   1     -25.143   3.966  28.243  0.00  0.00    -0.268 OA
ENDBRANCH  11  17
BRANCH  14  21
ATOM     21  O   UNL A   1     -28.193  -0.208  24.477  0.00  0.00    -0.456 OA
BRANCH  21  22
ATOM     22  C   UNL A   1     -29.460   0.005  23.866  0.00  0.00    +0.243 C 
BRANCH  22  23
ATOM     23  C   UNL A   1     -30.065  -1.377  23.573  0.00  0.00    +0.229 C 
ATOM     24  O   UNL A   1     -30.729  -1.878  24.721  0.00  0.00    -0.216 OA
ENDBRANCH  22  23
ENDBRANCH  21  22
ENDBRANCH  14  21
ENDBRANCH   2  10
BRANCH   1  27
ATOM     25  C   UNL A   1     -27.735   1.786  29.539  0.00  0.00    -0.105 C 
ATOM     26  C   UNL A   1     -28.826   2.773  29.870  0.00  0.00    +0.015 C 
ATOM     27  C   UNL A   1     -26.643   0.994  29.101  0.00  0.00    +0.066 C 
BRANCH  26  28
ATOM     28  C   UNL A   1     -29.113   3.557  31.271  0.00  0.00    +0.037 C 
BRANCH  28  29
ATOM     29  C   UNL A   1     -27.869   3.671  32.201  0.00  0.00    +0.041 C 
BRANCH  29  30
ATOM     30  C   UNL A   1     -26.980   4.825  31.756  0.00  0.00    +0.182 C 
ATOM     31  O   UNL A   1     -27.052   5.206  30.400  0.00  0.00    -0.220 OA
ENDBRANCH  29  30
ENDBRANCH  28  29
ENDBRANCH  26  28
ENDBRANCH   1  27
BRANCH   7  32
ATOM     32  C   UNL A   1     -24.855  -1.012  30.143  0.00  0.00    +0.199 C 
BRANCH  32  33
ATOM     33  C   UNL A   1     -24.973  -2.505  29.788  0.00  0.00    +0.021 C 
ATOM     34  C   UNL A   1     -23.906  -3.173  29.146  0.00  0.00    -0.000 C 
ATOM     35  C   UNL A   1     -23.989  -4.549  28.853  0.00  0.00    -0.000 C 
ATOM     36  C   UNL A   1     -25.137  -5.280  29.205  0.00  0.00    -0.000 C 
ATOM     37  C   UNL A   1     -26.232  -4.611  29.784  0.00  0.00    -0.000 C 
ATOM     38  C   UNL A   1     -26.155  -3.232  30.065  0.00  0.00    -0.000 C 
ENDBRANCH  32  33
BRANCH  32  39
ATOM     39  C   UNL A   1     -25.387  -0.679  31.571  0.00  0.00    +0.120 C 
ATOM     40  C   UNL A   1     -25.189   0.773  32.028  0.00  0.00    +0.023 C 
ATOM     41  C   UNL A   1     -25.336   0.684  33.544  0.00  0.00    +0.020 C 
ATOM     42  C   UNL A   1     -24.829  -0.715  33.905  0.00  0.00    +0.089 C 
ATOM     43  N   UNL A   1     -24.758  -1.481  32.646  0.00  0.00    -0.215 NA
ENDBRANCH  32  39
ENDBRANCH   7  32
TORSDOF 12
