REMARK  Name = No_4751-gen_results/8p0m/2024-11-27-11-27-31/
REMARK  3 active torsions:
REMARK  status: ('A' for Active; 'I' for Inactive)
REMARK    1  A    between atoms: C_2  and  N_12
REMARK    2  A    between atoms: C_3  and  C_8
REMARK    3  A    between atoms: C_14  and  C_16
REMARK                            x       y       z     vdW  Elec       q    Type
REMARK                         _______ _______ _______ _____ _____    ______ ____
ROOT
ATOM      1  C   UNL A   1     -28.016  -0.814  28.878  0.00  0.00    +0.026 A 
ATOM      2  C   UNL A   1     -27.064  -0.119  28.608  0.00  0.00    +0.053 A 
ATOM      3  C   UNL A   1     -25.765  -0.390  29.036  0.00  0.00    +0.085 A 
ATOM      4  C   UNL A   1     -25.530  -1.530  29.901  0.00  0.00    +0.006 A 
ATOM      5  C   UNL A   1     -26.689  -2.289  30.181  0.00  0.00    +0.011 A 
ATOM      6  C   UNL A   1     -27.873  -1.951  29.737  0.00  0.00    +0.059 A 
ATOM      7 CL   UNL A   1     -29.194  -2.923  30.219  0.00  0.00    -0.082 Cl
ENDROOT
BRANCH   2   8
ATOM      8  N   UNL A   1     -27.393   0.921  27.785  0.00  0.00    -0.305 N 
ATOM      9  C   UNL A   1     -27.752   1.965  28.248  0.00  0.00    +0.091 C 
ATOM     10  C   UNL A   1     -27.255   0.727  26.330  0.00  0.00    +0.095 C 
ATOM     11  C   UNL A   1     -27.980   3.098  27.503  0.00  0.00    +0.021 C 
ATOM     12  C   UNL A   1     -27.515   1.885  25.541  0.00  0.00    +0.024 C 
ATOM     13  C   UNL A   1     -27.876   3.110  26.133  0.00  0.00    +0.004 C 
BRANCH  10  14
ATOM     14  C   UNL A   1     -26.903  -0.328  25.691  0.00  0.00    -0.007 C 
ATOM     15  C   UNL A   1     -26.321  -0.222  24.530  0.00  0.00    -0.003 C 
ENDBRANCH  10  14
ENDBRANCH   2   8
BRANCH   3  16
ATOM     16  C   UNL A   1     -24.533   0.419  28.725  0.00  0.00    +0.420 C 
ATOM     17  F   UNL A   1     -24.574   0.936  27.579  0.00  0.00    -0.166 F 
ATOM     18  F   UNL A   1     -23.379  -0.378  28.711  0.00  0.00    -0.166 F 
ATOM     19  F   UNL A   1     -24.311   1.344  29.644  0.00  0.00    -0.166 F 
ENDBRANCH   3  16
TORSDOF 3
