MODEL 4752
MODEL 1
REMARK VINA RESULT:    -6.445      0.000      0.000
REMARK INTER + INTRA:          -7.969
REMARK INTER:                  -7.576
REMARK INTRA:                  -0.393
REMARK UNBOUND:                -0.393
REMARK  Name = No_4752-gen_results/8p0m/2024-11-27-11-27-31/
REMARK  3 active torsions:
REMARK  status: ('A' for Active; 'I' for Inactive)
REMARK    1  A    between atoms: C_4  and  O_9
REMARK    2  A    between atoms: O_9  and  C_10
REMARK    3  A    between atoms: C_15  and  O_17
REMARK                            x       y       z     vdW  Elec       q    Type
REMARK                         _______ _______ _______ _____ _____    ______ ____
ROOT
ATOM      1  O   UNL A   1     -24.971  -0.789  29.398  0.00  0.00    -0.449 OA
ENDROOT
BRANCH   1   5
ATOM      2  C   UNL A   1     -22.851   1.296  27.243  0.00  0.00    +0.026 A 
ATOM      3  C   UNL A   1     -23.579   1.574  26.533  0.00  0.00    +0.060 A 
ATOM      4  C   UNL A   1     -23.379   0.475  28.332  0.00  0.00    +0.094 A 
ATOM      5  C   UNL A   1     -24.454   0.046  28.323  0.00  0.00    +0.166 A 
ATOM      6  C   UNL A   1     -24.965   1.210  26.313  0.00  0.00    +0.026 A 
ATOM      7  C   UNL A   1     -25.421   0.372  27.366  0.00  0.00    +0.094 A 
ATOM      8 CL   UNL A   1     -22.200  -0.028  29.547  0.00  0.00    -0.079 Cl
ATOM      9 CL   UNL A   1     -22.874   2.585  25.183  0.00  0.00    -0.082 Cl
ATOM     10 CL   UNL A   1     -27.080  -0.140  27.315  0.00  0.00    -0.079 Cl
ENDBRANCH   1   5
BRANCH   1  11
ATOM     11  C   UNL A   1     -24.986  -2.087  29.226  0.00  0.00    +0.179 A 
ATOM     12  C   UNL A   1     -24.026  -2.797  28.659  0.00  0.00    +0.043 A 
ATOM     13  C   UNL A   1     -23.975  -4.168  28.632  0.00  0.00    +0.033 A 
ATOM     14  C   UNL A   1     -24.960  -4.901  29.304  0.00  0.00    +0.143 A 
ATOM     15  C   UNL A   1     -26.079  -4.180  29.831  0.00  0.00    +0.070 A 
ATOM     16  C   UNL A   1     -26.093  -2.765  29.825  0.00  0.00    +0.175 A 
ATOM     17  F   UNL A   1     -24.931  -6.162  29.311  0.00  0.00    -0.204 F 
BRANCH  16  18
ATOM     18  O   UNL A   1     -27.132  -2.161  30.327  0.00  0.00    -0.468 OA
ATOM     19  C   UNL A   1     -28.113  -3.000  30.949  0.00  0.00    +0.253 C 
ENDBRANCH  16  18
ENDBRANCH   1  11
TORSDOF 3
ENDMDL
ENDMDL
