MODEL 4753
MODEL 1
REMARK VINA RESULT:    -4.961      0.000      0.000
REMARK INTER + INTRA:          -5.685
REMARK INTER:                  -5.541
REMARK INTRA:                  -0.144
REMARK UNBOUND:                -0.144
REMARK  Name = No_4753-gen_results/8p0m/2024-11-27-11-27-31/
REMARK  2 active torsions:
REMARK  status: ('A' for Active; 'I' for Inactive)
REMARK    1  A    between atoms: C_2  and  C_3
REMARK    2  A    between atoms: C_3  and  C_7
REMARK                            x       y       z     vdW  Elec       q    Type
REMARK                         _______ _______ _______ _____ _____    ______ ____
ROOT
ATOM      1  F   UNL A   1      -8.886 -11.460  17.966  0.00  0.00    -0.168 F 
ATOM      2  C   UNL A   1      -9.214 -10.392  17.716  0.00  0.00    +0.417 C 
ATOM      3  F   UNL A   1     -10.354 -10.514  16.885  0.00  0.00    -0.168 F 
ATOM      4  F   UNL A   1      -8.351  -9.804  16.836  0.00  0.00    -0.168 F 
ENDROOT
BRANCH   2   5
ATOM      5  C   UNL A   1      -9.493  -9.595  18.744  0.00  0.00    +0.208 C 
ATOM      6  N   UNL A   1     -10.572  -8.904  18.925  0.00  0.00    -0.119 NA
BRANCH   5   7
ATOM      7  C   UNL A   1      -8.555  -9.397  19.974  0.00  0.00    +0.001 C 
ATOM      8  C   UNL A   1      -7.419  -8.629  19.857  0.00  0.00    -0.003 C 
ENDBRANCH   5   7
ENDBRANCH   2   5
TORSDOF 2
ENDMDL
ENDMDL
