MODEL 4754
MODEL 1
REMARK VINA RESULT:    -6.884      0.000      0.000
REMARK INTER + INTRA:          -8.640
REMARK INTER:                  -8.091
REMARK INTRA:                  -0.548
REMARK UNBOUND:                -0.548
REMARK  Name = No_4754-gen_results/8p0m/2024-11-27-11-27-31/
REMARK  3 active torsions:
REMARK  status: ('A' for Active; 'I' for Inactive)
REMARK    1  A    between atoms: C_2  and  C_7
REMARK    2  A    between atoms: C_6  and  C_13
REMARK    3  A    between atoms: C_13  and  N_14
REMARK                            x       y       z     vdW  Elec       q    Type
REMARK                         _______ _______ _______ _____ _____    ______ ____
ROOT
ATOM      1  C   UNL A   1     -25.666  -2.531  29.570  0.00  0.00    -0.002 A 
ATOM      2  C   UNL A   1     -24.544  -2.586  29.123  0.00  0.00    -0.000 A 
ATOM      3  C   UNL A   1     -23.974  -3.802  28.761  0.00  0.00    -0.000 A 
ATOM      4  C   UNL A   1     -24.686  -5.039  28.950  0.00  0.00    -0.000 A 
ATOM      5  C   UNL A   1     -25.968  -4.886  29.495  0.00  0.00    -0.002 A 
ATOM      6  C   UNL A   1     -26.454  -3.714  29.837  0.00  0.00    +0.002 A 
ENDROOT
BRANCH   2   7
ATOM      7  C   UNL A   1     -23.656  -1.416  28.885  0.00  0.00    -0.000 A 
ATOM      8  C   UNL A   1     -22.506  -1.218  29.244  0.00  0.00    -0.000 A 
ATOM      9  C   UNL A   1     -21.673  -0.075  28.849  0.00  0.00    -0.000 A 
ATOM     10  C   UNL A   1     -22.275   0.886  28.009  0.00  0.00    +0.000 A 
ATOM     11  C   UNL A   1     -24.204  -0.385  27.972  0.00  0.00    -0.000 A 
ATOM     12  C   UNL A   1     -23.524   0.680  27.596  0.00  0.00    -0.000 A 
ENDBRANCH   2   7
BRANCH   6  13
ATOM     13  C   UNL A   1     -27.788  -3.724  30.480  0.00  0.00    +0.151 C 
BRANCH  13  14
ATOM     14  N   UNL A   1     -28.603  -4.338  29.998  0.00  0.00    -0.269 NA
ATOM     15  C   UNL A   1     -29.691  -4.735  30.298  0.00  0.00    +0.068 C 
ATOM     16  C   UNL A   1     -30.627  -5.517  29.470  0.00  0.00    +0.053 C 
ENDBRANCH  13  14
ENDBRANCH   6  13
TORSDOF 3
ENDMDL
ENDMDL
