MODEL 4755
MODEL 1
REMARK VINA RESULT:    -5.432      0.000      0.000
REMARK INTER + INTRA:          -9.539
REMARK INTER:                  -7.654
REMARK INTRA:                  -1.884
REMARK UNBOUND:                -1.884
REMARK  Name = No_4755-gen_results/8p0m/2024-11-27-11-27-31/
REMARK  7 active torsions:
REMARK  status: ('A' for Active; 'I' for Inactive)
REMARK    1  A    between atoms: C_4  and  C_5
REMARK    2  A    between atoms: C_5  and  C_8
REMARK    3  A    between atoms: C_8  and  C_9
REMARK    4  A    between atoms: C_9  and  C_10
REMARK    5  A    between atoms: C_10  and  C_11
REMARK    6  A    between atoms: C_12  and  C_13
REMARK    7  A    between atoms: C_14  and  C_16
REMARK                            x       y       z     vdW  Elec       q    Type
REMARK                         _______ _______ _______ _____ _____    ______ ____
ROOT
ATOM      1  C   UNL A   1     -23.684   2.221  28.093  0.00  0.00    +0.005 C 
ENDROOT
BRANCH   1   2
ATOM      2  C   UNL A   1     -23.533   1.410  29.255  0.00  0.00    +0.027 C 
BRANCH   2   6
ATOM      3  C   UNL A   1     -23.654  -2.414  28.845  0.00  0.00    +0.011 A 
ATOM      4  C   UNL A   1     -24.694  -2.502  28.699  0.00  0.00    +0.001 A 
ATOM      5  C   UNL A   1     -23.125  -1.050  29.004  0.00  0.00    +0.054 A 
ATOM      6  C   UNL A   1     -24.009   0.064  29.096  0.00  0.00    -0.012 A 
ATOM      7  C   UNL A   1     -25.837  -1.575  28.822  0.00  0.00    -0.000 A 
ATOM      8  C   UNL A   1     -25.404  -0.225  29.041  0.00  0.00    -0.003 A 
ATOM      9 CL   UNL A   1     -21.454  -0.681  29.063  0.00  0.00    -0.083 Cl
ENDBRANCH   2   6
ENDBRANCH   1   2
BRANCH   1  10
ATOM     10  C   UNL A   1     -22.820   2.180  27.027  0.00  0.00    +0.005 C 
BRANCH  10  11
ATOM     11  C   UNL A   1     -23.216   1.887  25.727  0.00  0.00    +0.026 C 
BRANCH  11  12
ATOM     12  C   UNL A   1     -24.477   1.456  25.532  0.00  0.00    -0.026 C 
ATOM     13  C   UNL A   1     -24.728   0.072  25.332  0.00  0.00    -0.005 C 
BRANCH  13  14
ATOM     14  C   UNL A   1     -26.005  -0.354  24.933  0.00  0.00    -0.000 C 
ATOM     15  C   UNL A   1     -26.975   0.433  24.617  0.00  0.00    -0.000 C 
BRANCH  15  16
ATOM     16  C   UNL A   1     -28.275  -0.019  24.240  0.00  0.00    -0.005 C 
ATOM     17  C   UNL A   1     -29.134   0.939  23.718  0.00  0.00    -0.026 C 
ATOM     18  C   UNL A   1     -28.719   2.212  23.437  0.00  0.00    +0.031 C 
ENDBRANCH  15  16
ENDBRANCH  13  14
ENDBRANCH  11  12
ENDBRANCH  10  11
ENDBRANCH   1  10
TORSDOF 7
ENDMDL
ENDMDL
