REMARK  Name = No_4755-gen_results/8p0m/2024-11-27-11-27-31/
REMARK  7 active torsions:
REMARK  status: ('A' for Active; 'I' for Inactive)
REMARK    1  A    between atoms: C_4  and  C_5
REMARK    2  A    between atoms: C_5  and  C_8
REMARK    3  A    between atoms: C_8  and  C_9
REMARK    4  A    between atoms: C_9  and  C_10
REMARK    5  A    between atoms: C_10  and  C_11
REMARK    6  A    between atoms: C_12  and  C_13
REMARK    7  A    between atoms: C_14  and  C_16
REMARK                            x       y       z     vdW  Elec       q    Type
REMARK                         _______ _______ _______ _____ _____    ______ ____
ROOT
ATOM      1  C   UNL A   1     -23.727   0.171  30.026  0.00  0.00    +0.005 C 
ENDROOT
BRANCH   1   2
ATOM      2  C   UNL A   1     -24.370  -1.100  30.072  0.00  0.00    +0.027 C 
BRANCH   2   6
ATOM      3  C   UNL A   1     -28.016  -0.814  28.878  0.00  0.00    +0.011 A 
ATOM      4  C   UNL A   1     -28.469  -0.785  29.829  0.00  0.00    +0.001 A 
ATOM      5  C   UNL A   1     -26.546  -0.876  28.850  0.00  0.00    +0.054 A 
ATOM      6  C   UNL A   1     -25.804  -1.032  30.057  0.00  0.00    -0.012 A 
ATOM      7  C   UNL A   1     -27.990  -1.005  31.209  0.00  0.00    -0.000 A 
ATOM      8  C   UNL A   1     -26.562  -1.137  31.260  0.00  0.00    -0.003 A 
ATOM      9 CL   UNL A   1     -25.617  -0.742  27.418  0.00  0.00    -0.083 Cl
ENDBRANCH   2   6
ENDBRANCH   1   2
BRANCH   1  10
ATOM     10  C   UNL A   1     -23.245   0.731  28.869  0.00  0.00    +0.005 C 
BRANCH  10  11
ATOM     11  C   UNL A   1     -23.663   1.963  28.378  0.00  0.00    +0.026 C 
BRANCH  11  12
ATOM     12  C   UNL A   1     -24.794   2.494  28.883  0.00  0.00    -0.026 C 
ATOM     13  C   UNL A   1     -25.342   3.670  28.305  0.00  0.00    -0.005 C 
BRANCH  13  14
ATOM     14  C   UNL A   1     -26.399   4.334  28.948  0.00  0.00    -0.000 C 
ATOM     15  C   UNL A   1     -27.010   5.367  28.480  0.00  0.00    -0.000 C 
BRANCH  15  16
ATOM     16  C   UNL A   1     -28.064   6.045  29.162  0.00  0.00    -0.005 C 
ATOM     17  C   UNL A   1     -28.562   5.425  30.300  0.00  0.00    -0.026 C 
ATOM     18  C   UNL A   1     -27.983   4.305  30.830  0.00  0.00    +0.031 C 
ENDBRANCH  15  16
ENDBRANCH  13  14
ENDBRANCH  11  12
ENDBRANCH  10  11
ENDBRANCH   1  10
TORSDOF 7
