REMARK  Name = No_4756-gen_results/8p0m/2024-11-27-11-27-31/
REMARK  4 active torsions:
REMARK  status: ('A' for Active; 'I' for Inactive)
REMARK    1  A    between atoms: C_4  and  C_13
REMARK    2  A    between atoms: C_13  and  C_14
REMARK    3  A    between atoms: C_21  and  C_23
REMARK    4  A    between atoms: C_23  and  N_24
REMARK                            x       y       z     vdW  Elec       q    Type
REMARK                         _______ _______ _______ _____ _____    ______ ____
ROOT
ATOM      1  C   UNL A   1     -28.016  -0.814  28.878  0.00  0.00    +0.000 C 
ATOM      2  C   UNL A   1     -28.469  -0.785  29.829  0.00  0.00    +0.000 C 
ATOM      3  C   UNL A   1     -27.136   0.236  28.535  0.00  0.00    +0.002 C 
ATOM      4  C   UNL A   1     -26.335   0.290  27.284  0.00  0.00    +0.004 C 
ATOM      5  C   UNL A   1     -28.369   0.196  30.924  0.00  0.00    +0.000 C 
ATOM      6  C   UNL A   1     -27.516   1.266  30.654  0.00  0.00    +0.000 C 
ATOM      7  C   UNL A   1     -26.841   1.294  29.476  0.00  0.00    +0.000 C 
ATOM      8  C   UNL A   1     -25.677   1.520  26.977  0.00  0.00    +0.000 C 
ATOM      9  C   UNL A   1     -24.651   1.554  26.210  0.00  0.00    +0.000 C 
ATOM     10  C   UNL A   1     -23.855   0.522  25.762  0.00  0.00    +0.000 C 
ATOM     11  C   UNL A   1     -25.225  -0.723  27.178  0.00  0.00    +0.000 C 
ATOM     12  C   UNL A   1     -24.204  -0.634  26.274  0.00  0.00    +0.000 C 
ATOM     13  C   UNL A   1     -26.068  -0.224  29.023  0.00  0.00    +0.017 C 
ATOM     14  C   UNL A   1     -24.726  -0.596  28.652  0.00  0.00    +0.001 C 
ENDROOT
BRANCH   4  15
ATOM     15  C   UNL A   1     -27.296   0.085  26.038  0.00  0.00    +0.029 C 
BRANCH  15  16
ATOM     16  C   UNL A   1     -28.481   0.817  26.176  0.00  0.00    +0.005 A 
ATOM     17  C   UNL A   1     -28.980   1.112  25.220  0.00  0.00    -0.002 A 
ATOM     18  C   UNL A   1     -30.193   1.981  25.202  0.00  0.00    -0.000 A 
ATOM     19  C   UNL A   1     -30.701   2.506  26.385  0.00  0.00    +0.002 A 
ATOM     20  C   UNL A   1     -30.025   2.114  27.564  0.00  0.00    +0.029 A 
ATOM     21  C   UNL A   1     -28.907   1.355  27.490  0.00  0.00    +0.136 A 
ATOM     22  F   UNL A   1     -29.057   0.696  28.460  0.00  0.00    -0.204 F 
ENDBRANCH  15  16
ENDBRANCH   4  15
BRANCH  13  23
ATOM     23  C   UNL A   1     -26.014  -0.752  30.487  0.00  0.00    +0.089 C 
BRANCH  23  24
ATOM     24  N   UNL A   1     -25.875  -0.836  29.793  0.00  0.00    -0.216 NA
ATOM     25  C   UNL A   1     -25.894  -2.319  29.277  0.00  0.00    +0.107 C 
ENDBRANCH  23  24
ENDBRANCH  13  23
TORSDOF 4
