MODEL 4756
MODEL 1
REMARK VINA RESULT:    -6.856      0.000      0.000
REMARK INTER + INTRA:          -4.821
REMARK INTER:                  -7.858
REMARK INTRA:                   3.037
REMARK UNBOUND:                 3.037
REMARK  Name = No_4756-gen_results/8p0m/2024-11-27-11-27-31/
REMARK  4 active torsions:
REMARK  status: ('A' for Active; 'I' for Inactive)
REMARK    1  A    between atoms: C_4  and  C_13
REMARK    2  A    between atoms: C_13  and  C_14
REMARK    3  A    between atoms: C_21  and  C_23
REMARK    4  A    between atoms: C_23  and  N_24
REMARK                            x       y       z     vdW  Elec       q    Type
REMARK                         _______ _______ _______ _____ _____    ______ ____
ROOT
ATOM      1  C   UNL A   1     -24.094  -1.419  28.539  0.00  0.00    +0.000 C 
ATOM      2  C   UNL A   1     -23.871  -1.973  29.407  0.00  0.00    +0.000 C 
ATOM      3  C   UNL A   1     -24.260  -0.023  28.673  0.00  0.00    +0.002 C 
ATOM      4  C   UNL A   1     -24.468   0.915  27.538  0.00  0.00    +0.004 C 
ATOM      5  C   UNL A   1     -23.704  -1.556  30.810  0.00  0.00    +0.000 C 
ATOM      6  C   UNL A   1     -23.857  -0.186  31.019  0.00  0.00    +0.000 C 
ATOM      7  C   UNL A   1     -24.093   0.625  29.955  0.00  0.00    +0.000 C 
ATOM      8  C   UNL A   1     -24.852   2.254  27.853  0.00  0.00    +0.000 C 
ATOM      9  C   UNL A   1     -24.634   3.219  27.039  0.00  0.00    +0.000 C 
ATOM     10  C   UNL A   1     -23.833   3.258  25.917  0.00  0.00    +0.000 C 
ATOM     11  C   UNL A   1     -23.283   1.107  26.628  0.00  0.00    +0.000 C 
ATOM     12  C   UNL A   1     -23.174   2.139  25.738  0.00  0.00    +0.000 C 
ATOM     13  C   UNL A   1     -23.058   0.339  28.557  0.00  0.00    +0.017 C 
ATOM     14  C   UNL A   1     -22.203   1.176  27.753  0.00  0.00    +0.001 C 
ENDROOT
BRANCH   4  15
ATOM     15  C   UNL A   1     -25.680   0.401  26.651  0.00  0.00    +0.029 C 
BRANCH  15  16
ATOM     16  C   UNL A   1     -26.913   0.707  27.238  0.00  0.00    +0.005 A 
ATOM     17  C   UNL A   1     -27.166   0.126  28.159  0.00  0.00    -0.002 A 
ATOM     18  C   UNL A   1     -28.488   0.265  28.838  0.00  0.00    -0.000 A 
ATOM     19  C   UNL A   1     -29.475   1.082  28.297  0.00  0.00    +0.002 A 
ATOM     20  C   UNL A   1     -29.109   1.783  27.124  0.00  0.00    +0.029 A 
ATOM     21  C   UNL A   1     -27.903   1.569  26.549  0.00  0.00    +0.136 A 
ATOM     22  F   UNL A   1     -27.676   2.664  26.165  0.00  0.00    -0.204 F 
ENDBRANCH  15  16
ENDBRANCH   4  15
BRANCH  13  23
ATOM     23  C   UNL A   1     -21.931  -0.330  29.399  0.00  0.00    +0.089 C 
BRANCH  23  24
ATOM     24  N   UNL A   1     -22.136   0.116  28.882  0.00  0.00    -0.216 NA
ATOM     25  C   UNL A   1     -20.971   0.816  28.096  0.00  0.00    +0.107 C 
ENDBRANCH  23  24
ENDBRANCH  13  23
TORSDOF 4
ENDMDL
ENDMDL
