MODEL 4757
MODEL 1
REMARK VINA RESULT:    -7.981      0.000      0.000
REMARK INTER + INTRA:         -14.026
REMARK INTER:                 -12.180
REMARK INTRA:                  -1.846
REMARK UNBOUND:                -1.846
REMARK  Name = No_4757-gen_results/8p0m/2024-11-27-11-27-31/
REMARK  9 active torsions:
REMARK  status: ('A' for Active; 'I' for Inactive)
REMARK    1  A    between atoms: C_4  and  C_8
REMARK    2  A    between atoms: C_8  and  C_9
REMARK    3  A    between atoms: C_11  and  C_17
REMARK    4  A    between atoms: N_19  and  C_20
REMARK    5  A    between atoms: C_20  and  C_21
REMARK    6  A    between atoms: C_24  and  C_27
REMARK    7  A    between atoms: N_29  and  C_30
REMARK    8  A    between atoms: C_30  and  C_31
REMARK    9  A    between atoms: C_32  and  C_33
REMARK                            x       y       z     vdW  Elec       q    Type
REMARK                         _______ _______ _______ _____ _____    ______ ____
ROOT
ATOM      1  C   UNL A   1     -10.106   0.384  37.099  0.00  0.00    +0.265 C 
ATOM      2  O   UNL A   1     -10.235   1.486  37.300  0.00  0.00    -0.268 OA
ATOM      3  N   UNL A   1      -9.612   0.038  35.820  0.00  0.00    -0.197 NA
ENDROOT
BRANCH   1   6
ATOM      4  C   UNL A   1     -10.589  -0.804  40.430  0.00  0.00    +0.021 C 
ATOM      5  C   UNL A   1      -9.959  -0.676  39.266  0.00  0.00    +0.004 C 
ATOM      6  C   UNL A   1     -10.609  -0.735  38.030  0.00  0.00    +0.055 C 
ATOM      7  C   UNL A   1     -10.968  -1.582  37.477  0.00  0.00    +0.004 C 
ATOM      8  C   UNL A   1     -11.840  -2.566  38.293  0.00  0.00    -0.004 C 
ATOM      9  C   UNL A   1     -12.146  -2.398  39.698  0.00  0.00    -0.021 C 
ATOM     10  C   UNL A   1     -11.968  -1.331  40.356  0.00  0.00    +0.056 C 
BRANCH   4  11
ATOM     11  C   UNL A   1     -10.088  -0.991  41.682  0.00  0.00    +0.192 C 
ATOM     12  O   UNL A   1     -10.434  -0.347  42.762  0.00  0.00    -0.287 OA
BRANCH  11  16
ATOM     13  C   UNL A   1      -8.387  -4.318  42.592  0.00  0.00    +0.011 A 
ATOM     14  C   UNL A   1      -7.399  -3.957  42.655  0.00  0.00    +0.058 A 
ATOM     15  C   UNL A   1      -9.434  -3.325  42.298  0.00  0.00    +0.004 A 
ATOM     16  C   UNL A   1      -9.088  -1.980  41.980  0.00  0.00    +0.039 A 
ATOM     17  C   UNL A   1      -6.776  -2.647  42.319  0.00  0.00    +0.011 A 
ATOM     18  C   UNL A   1      -7.716  -1.698  42.051  0.00  0.00    +0.004 A 
ATOM     19 CL   UNL A   1      -6.009  -5.135  42.923  0.00  0.00    -0.082 Cl
ENDBRANCH  11  16
ENDBRANCH   4  11
ENDBRANCH   1   6
BRANCH   3  20
ATOM     20  C   UNL A   1      -8.711   0.757  35.026  0.00  0.00    +0.142 C 
BRANCH  20  21
ATOM     21  C   UNL A   1      -7.447  -0.016  35.066  0.00  0.00    -0.001 A 
ATOM     22  C   UNL A   1      -7.368  -1.179  34.572  0.00  0.00    -0.002 A 
ATOM     23  C   UNL A   1      -6.147  -1.810  34.544  0.00  0.00    +0.004 A 
ATOM     24  C   UNL A   1      -4.992  -1.129  34.776  0.00  0.00    +0.055 A 
ATOM     25  C   UNL A   1      -5.025   0.178  35.187  0.00  0.00    +0.004 A 
ATOM     26  C   UNL A   1      -6.265   0.772  35.312  0.00  0.00    -0.002 A 
BRANCH  24  27
ATOM     27  C   UNL A   1      -3.657  -1.771  34.647  0.00  0.00    +0.265 C 
ATOM     28  O   UNL A   1      -3.085  -2.345  35.511  0.00  0.00    -0.268 OA
ATOM     29  N   UNL A   1      -3.042  -1.854  33.369  0.00  0.00    -0.197 NA
BRANCH  29  30
ATOM     30  C   UNL A   1      -1.770  -2.461  33.194  0.00  0.00    +0.141 C 
BRANCH  30  31
ATOM     31  C   UNL A   1      -0.982  -1.863  32.206  0.00  0.00    -0.003 C 
ATOM     32  C   UNL A   1      -1.295  -1.093  31.397  0.00  0.00    -0.003 C 
BRANCH  32  33
ATOM     33  C   UNL A   1      -0.434  -0.439  30.466  0.00  0.00    -0.005 C 
ATOM     34  C   UNL A   1      -0.973   0.606  29.714  0.00  0.00    -0.026 C 
ATOM     35  C   UNL A   1      -2.301   0.936  29.857  0.00  0.00    +0.031 C 
ENDBRANCH  32  33
ENDBRANCH  30  31
ENDBRANCH  29  30
ENDBRANCH  24  27
ENDBRANCH  20  21
ENDBRANCH   3  20
TORSDOF 9
ENDMDL
ENDMDL
