REMARK  Name = outputs/IAG933/test6/raw/output_4757_IAG933_linker_design_.xyz
REMARK  15 active torsions:
REMARK  status: ('A' for Active; 'I' for Inactive)
REMARK    1  A    between atoms: C_1  and  C_2
REMARK    2  A    between atoms: C_1  and  C_8
REMARK    3  A    between atoms: C_1  and  N_47
REMARK    4  A    between atoms: C_14  and  C_15
REMARK    5  A    between atoms: C_15  and  O_18
REMARK    6  A    between atoms: O_18  and  C_29
REMARK    7  A    between atoms: C_21  and  O_22
REMARK    8  A    between atoms: O_22  and  C_23
REMARK    9  A    between atoms: C_23  and  C_24
REMARK   10  A    between atoms: C_29  and  C_38
REMARK   11  A    between atoms: C_29  and  C_42
REMARK   12  A    between atoms: C_30  and  N_32
REMARK   13  A    between atoms: C_36  and  C_37
REMARK   14  A    between atoms: C_36  and  C_38
REMARK   15  A    between atoms: C_36  and  O_40
REMARK                            x       y       z     vdW  Elec       q    Type
REMARK                         _______ _______ _______ _____ _____    ______ ____
ROOT
ATOM      1  C   UNL A   1     -25.538   3.722  29.598  0.00  0.00    +0.191 C 
ENDROOT
BRANCH   1   7
ATOM      2  C   UNL A   1     -27.820   3.377  30.538  0.00  0.00    +0.328 C 
ATOM      3  C   UNL A   1     -26.481   5.360  33.699  0.00  0.00    +0.164 C 
ATOM      4  N   UNL A   1     -27.906   2.094  30.760  0.00  0.00    -0.162 NA
ATOM      5  C   UNL A   1     -27.119   4.162  33.049  0.00  0.00    +0.127 C 
ATOM      6  O   UNL A   1     -25.093   5.245  33.510  0.00  0.00    -0.350 OA
ATOM      7  C   UNL A   1     -25.838   4.637  30.954  0.00  0.00    +0.146 C 
ATOM      8  N   UNL A   1     -27.041   4.120  31.540  0.00  0.00    -0.256 N 
ATOM      9  C   UNL A   1     -24.864   5.022  32.113  0.00  0.00    +0.166 C 
ATOM     10  O   UNL A   1     -28.326   3.997  29.610  0.00  0.00    -0.250 OA
BRANCH   4  11
ATOM     11  C   UNL A   1     -28.642   1.022  30.843  0.00  0.00    +0.075 C 
ATOM     12  C   UNL A   1     -30.029  -0.621  29.761  0.00  0.00    +0.001 C 
ATOM     13  C   UNL A   1     -29.111   0.679  32.079  0.00  0.00    +0.017 C 
ATOM     14  C   UNL A   1     -30.550  -0.921  31.019  0.00  0.00    +0.000 C 
ATOM     15  C   UNL A   1     -30.081  -0.298  32.172  0.00  0.00    +0.001 C 
ATOM     16  C   UNL A   1     -29.015   0.327  29.680  0.00  0.00    +0.017 C 
ENDBRANCH   4  11
ENDBRANCH   1   7
BRANCH   1  17
ATOM     17  O   UNL A   1     -25.143   3.966  28.243  0.00  0.00    -0.462 OA
BRANCH  17  18
ATOM     18  C   UNL A   1     -25.642   4.093  27.123  0.00  0.00    +0.222 C 
ATOM     19  N   UNL A   1     -25.614   5.252  26.449  0.00  0.00    -0.236 NA
ATOM     20  C   UNL A   1     -25.026   6.479  26.963  0.00  0.00    +0.155 C 
BRANCH  18  22
ATOM     21  C   UNL A   1     -25.688   1.614  26.461  0.00  0.00    +0.041 C 
ATOM     22  C   UNL A   1     -26.250   2.920  26.395  0.00  0.00    +0.074 C 
ATOM     23  C   UNL A   1     -27.438   3.091  25.645  0.00  0.00    +0.107 C 
ATOM     24  N   UNL A   1     -28.075   2.089  25.003  0.00  0.00    -0.208 NA
ATOM     25  C   UNL A   1     -27.543   0.849  25.079  0.00  0.00    +0.253 C 
ATOM     26  C   UNL A   1     -26.354   0.576  25.777  0.00  0.00    +0.193 C 
ATOM     27  F   UNL A   1     -25.860  -0.681  25.795  0.00  0.00    -0.199 F 
BRANCH  25  28
ATOM     28  O   UNL A   1     -28.193  -0.208  24.477  0.00  0.00    -0.456 OA
BRANCH  28  29
ATOM     29  C   UNL A   1     -29.460   0.005  23.866  0.00  0.00    +0.243 C 
BRANCH  29  30
ATOM     30  C   UNL A   1     -30.065  -1.377  23.573  0.00  0.00    +0.229 C 
ATOM     31  O   UNL A   1     -30.729  -1.878  24.721  0.00  0.00    -0.216 OA
ENDBRANCH  29  30
ENDBRANCH  28  29
ENDBRANCH  25  28
ENDBRANCH  18  22
ENDBRANCH  17  18
ENDBRANCH   1  17
BRANCH   1  32
ATOM     32  C   UNL A   1     -24.556   2.564  30.003  0.00  0.00    +0.081 C 
BRANCH  32  33
ATOM     33  C   UNL A   1     -23.812   1.536  29.041  0.00  0.00    +0.159 C 
BRANCH  33  35
ATOM     34  C   UNL A   1     -21.675   1.212  27.778  0.00  0.00    +0.174 C 
ATOM     35  O   UNL A   1     -22.968   1.789  27.970  0.00  0.00    -0.347 OA
ENDBRANCH  33  35
BRANCH  33  36
ATOM     36  C   UNL A   1     -22.929   0.347  29.836  0.00  0.00    +0.097 C 
ATOM     37  N   UNL A   1     -23.445  -0.673  30.225  0.00  0.00    -0.267 NA
BRANCH  37  38
ATOM     38  C   UNL A   1     -24.855  -1.012  30.143  0.00  0.00    +0.141 C 
BRANCH  38  39
ATOM     39  C   UNL A   1     -24.973  -2.505  29.788  0.00  0.00    +0.001 C 
ATOM     40  C   UNL A   1     -23.906  -3.173  29.146  0.00  0.00    -0.002 C 
ATOM     41  C   UNL A   1     -23.989  -4.549  28.853  0.00  0.00    -0.000 C 
ATOM     42  C   UNL A   1     -25.137  -5.280  29.205  0.00  0.00    -0.000 C 
ATOM     43  C   UNL A   1     -26.232  -4.611  29.784  0.00  0.00    -0.000 C 
ATOM     44  C   UNL A   1     -26.155  -3.232  30.065  0.00  0.00    -0.002 C 
ENDBRANCH  38  39
BRANCH  38  45
ATOM     45  C   UNL A   1     -25.387  -0.679  31.571  0.00  0.00    +0.099 C 
ATOM     46  C   UNL A   1     -25.189   0.773  32.028  0.00  0.00    +0.021 C 
ATOM     47  C   UNL A   1     -25.336   0.684  33.544  0.00  0.00    +0.020 C 
ATOM     48  C   UNL A   1     -24.829  -0.715  33.905  0.00  0.00    +0.089 C 
ATOM     49  N   UNL A   1     -24.758  -1.481  32.646  0.00  0.00    -0.217 NA
ENDBRANCH  38  45
ENDBRANCH  37  38
ENDBRANCH  33  36
ENDBRANCH  32  33
ENDBRANCH   1  32
TORSDOF 15
