REMARK  Name = outputs/IAG933/test6/raw/output_4759_IAG933_linker_design_.xyz
REMARK  16 active torsions:
REMARK  status: ('A' for Active; 'I' for Inactive)
REMARK    1  A    between atoms: C_1  and  C_2
REMARK    2  A    between atoms: C_1  and  C_8
REMARK    3  A    between atoms: C_1  and  O_42
REMARK    4  A    between atoms: C_14  and  C_15
REMARK    5  A    between atoms: C_15  and  O_18
REMARK    6  A    between atoms: O_18  and  S_29
REMARK    7  A    between atoms: C_21  and  O_22
REMARK    8  A    between atoms: O_22  and  C_23
REMARK    9  A    between atoms: C_23  and  C_24
REMARK   10  A    between atoms: S_29  and  C_34
REMARK   11  A    between atoms: S_29  and  N_38
REMARK   12  A    between atoms: C_30  and  C_34
REMARK   13  A    between atoms: C_33  and  C_36
REMARK   14  A    between atoms: C_33  and  C_40
REMARK   15  A    between atoms: N_38  and  C_40
REMARK   16  A    between atoms: C_40  and  O_42
REMARK                            x       y       z     vdW  Elec       q    Type
REMARK                         _______ _______ _______ _____ _____    ______ ____
ROOT
ATOM      1  N   UNL A   1     -25.690   1.569  29.471  0.00  0.00    -0.095 NA
ENDROOT
BRANCH   1   2
ATOM      2  S   UNL A   1     -25.882   3.251  29.489  0.00  0.00    +0.144 S 
ATOM      3  O   UNL A   1     -25.191   3.698  30.501  0.00  0.00    -0.117 OA
BRANCH   2   4
ATOM      4  O   UNL A   1     -25.143   3.966  28.243  0.00  0.00    -0.386 OA
BRANCH   4   5
ATOM      5  C   UNL A   1     -25.642   4.093  27.123  0.00  0.00    +0.237 C 
ATOM      6  N   UNL A   1     -25.614   5.252  26.449  0.00  0.00    -0.235 NA
ATOM      7  C   UNL A   1     -25.026   6.479  26.963  0.00  0.00    +0.155 C 
BRANCH   5   9
ATOM      8  C   UNL A   1     -25.688   1.614  26.461  0.00  0.00    +0.041 C 
ATOM      9  C   UNL A   1     -26.250   2.920  26.395  0.00  0.00    +0.075 C 
ATOM     10  C   UNL A   1     -27.438   3.091  25.645  0.00  0.00    +0.107 C 
ATOM     11  N   UNL A   1     -28.075   2.089  25.003  0.00  0.00    -0.208 NA
ATOM     12  C   UNL A   1     -27.543   0.849  25.079  0.00  0.00    +0.253 C 
ATOM     13  C   UNL A   1     -26.354   0.576  25.777  0.00  0.00    +0.193 C 
ATOM     14  F   UNL A   1     -25.860  -0.681  25.795  0.00  0.00    -0.199 F 
BRANCH  12  15
ATOM     15  O   UNL A   1     -28.193  -0.208  24.477  0.00  0.00    -0.456 OA
BRANCH  15  16
ATOM     16  C   UNL A   1     -29.460   0.005  23.866  0.00  0.00    +0.243 C 
BRANCH  16  17
ATOM     17  C   UNL A   1     -30.065  -1.377  23.573  0.00  0.00    +0.229 C 
ATOM     18  O   UNL A   1     -30.729  -1.878  24.721  0.00  0.00    -0.216 OA
ENDBRANCH  16  17
ENDBRANCH  15  16
ENDBRANCH  12  15
ENDBRANCH   5   9
ENDBRANCH   4   5
ENDBRANCH   2   4
BRANCH   2  19
ATOM     19  C   UNL A   1     -27.503   3.784  29.389  0.00  0.00    +0.158 C 
BRANCH  19  20
ATOM     20  C   UNL A   1     -28.483   2.730  29.907  0.00  0.00    +0.199 C 
ATOM     21  O   UNL A   1     -29.635   2.697  29.058  0.00  0.00    -0.219 OA
ENDBRANCH  19  20
ENDBRANCH   2  19
ENDBRANCH   1   2
BRANCH   1  22
ATOM     22  C   UNL A   1     -24.353   1.191  29.570  0.00  0.00    +0.207 C 
BRANCH  22  23
ATOM     23  C   UNL A   1     -23.382   1.899  28.931  0.00  0.00    +0.092 C 
BRANCH  23  27
ATOM     24  C   UNL A   1     -21.007   1.917  25.907  0.00  0.00    +0.014 C 
ATOM     25  C   UNL A   1     -20.782   1.169  27.022  0.00  0.00    +0.168 C 
ATOM     26  O   UNL A   1     -21.711   0.968  27.926  0.00  0.00    -0.476 OA
ATOM     27  C   UNL A   1     -22.823   1.597  27.720  0.00  0.00    +0.170 C 
ATOM     28  C   UNL A   1     -23.176   2.025  26.391  0.00  0.00    +0.048 C 
ATOM     29  C   UNL A   1     -22.240   2.377  25.483  0.00  0.00    +0.033 C 
ENDBRANCH  23  27
ENDBRANCH  22  23
BRANCH  22  30
ATOM     30  O   UNL A   1     -23.982  -0.161  29.557  0.00  0.00    -0.335 OA
BRANCH  30  31
ATOM     31  C   UNL A   1     -24.855  -1.012  30.143  0.00  0.00    +0.155 C 
BRANCH  31  32
ATOM     32  C   UNL A   1     -24.973  -2.505  29.788  0.00  0.00    +0.006 C 
ATOM     33  C   UNL A   1     -23.906  -3.173  29.146  0.00  0.00    -0.002 C 
ATOM     34  C   UNL A   1     -23.989  -4.549  28.853  0.00  0.00    -0.000 C 
ATOM     35  C   UNL A   1     -25.137  -5.280  29.205  0.00  0.00    -0.000 C 
ATOM     36  C   UNL A   1     -26.232  -4.611  29.784  0.00  0.00    -0.000 C 
ATOM     37  C   UNL A   1     -26.155  -3.232  30.065  0.00  0.00    -0.002 C 
ENDBRANCH  31  32
BRANCH  31  38
ATOM     38  C   UNL A   1     -25.387  -0.679  31.571  0.00  0.00    +0.104 C 
ATOM     39  C   UNL A   1     -25.189   0.773  32.028  0.00  0.00    +0.022 C 
ATOM     40  C   UNL A   1     -25.336   0.684  33.544  0.00  0.00    +0.020 C 
ATOM     41  C   UNL A   1     -24.829  -0.715  33.905  0.00  0.00    +0.089 C 
ATOM     42  N   UNL A   1     -24.758  -1.481  32.646  0.00  0.00    -0.217 NA
ENDBRANCH  31  38
ENDBRANCH  30  31
ENDBRANCH  22  30
ENDBRANCH   1  22
TORSDOF 16
