MODEL 475
MODEL 1
REMARK VINA RESULT:    -6.451      0.000      0.000
REMARK INTER + INTRA:          -8.300
REMARK INTER:                  -7.959
REMARK INTRA:                  -0.341
REMARK UNBOUND:                -0.341
REMARK  Name = No_475-gen_results/8p0m/2024-11-27-11-27-31/
REMARK  4 active torsions:
REMARK  status: ('A' for Active; 'I' for Inactive)
REMARK    1  A    between atoms: C_8  and  O_12
REMARK    2  A    between atoms: O_12  and  C_13
REMARK    3  A    between atoms: C_13  and  C_14
REMARK    4  A    between atoms: C_15  and  C_16
REMARK                            x       y       z     vdW  Elec       q    Type
REMARK                         _______ _______ _______ _____ _____    ______ ____
ROOT
ATOM      1 CL   UNL A   1     -21.197   0.256  28.578  0.00  0.00    -0.079 Cl
ATOM      2  C   UNL A   1     -22.284   0.905  27.889  0.00  0.00    +0.092 A 
ATOM      3  C   UNL A   1     -22.276   1.773  27.102  0.00  0.00    +0.015 A 
ATOM      4  C   UNL A   1     -23.410   2.403  26.398  0.00  0.00    +0.003 A 
ATOM      5  C   UNL A   1     -24.370   1.878  26.448  0.00  0.00    +0.022 A 
ATOM      6  C   UNL A   1     -25.648   2.358  25.746  0.00  0.00    +0.099 A 
ATOM      7  C   UNL A   1     -24.571   0.724  27.303  0.00  0.00    +0.038 A 
ATOM      8  C   UNL A   1     -23.531   0.251  27.908  0.00  0.00    +0.150 A 
ATOM      9  N   UNL A   1     -26.610   1.467  25.358  0.00  0.00    -0.242 NA
ATOM     10  C   UNL A   1     -25.883   0.009  27.208  0.00  0.00    +0.024 A 
ATOM     11  C   UNL A   1     -26.872   0.448  26.274  0.00  0.00    +0.099 A 
ENDROOT
BRANCH   8  12
ATOM     12  O   UNL A   1     -23.642  -0.904  28.627  0.00  0.00    -0.460 OA
BRANCH  12  13
ATOM     13  C   UNL A   1     -24.027  -0.910  29.854  0.00  0.00    +0.281 C 
BRANCH  13  14
ATOM     14  C   UNL A   1     -24.769  -2.113  30.191  0.00  0.00    -0.039 C 
ATOM     15  C   UNL A   1     -25.278  -2.821  29.316  0.00  0.00    -0.060 C 
BRANCH  15  16
ATOM     16  C   UNL A   1     -25.873  -4.167  29.588  0.00  0.00    +0.045 C 
ATOM     17  C   UNL A   1     -25.111  -5.155  29.092  0.00  0.00    -0.017 C 
ATOM     18  C   UNL A   1     -23.979  -5.043  28.322  0.00  0.00    +0.031 C 
ENDBRANCH  15  16
ENDBRANCH  13  14
ENDBRANCH  12  13
ENDBRANCH   8  12
TORSDOF 4
ENDMDL
ENDMDL
