REMARK  Name = outputs/IAG933/test6/raw/output_4760_IAG933_linker_design_.xyz
REMARK  12 active torsions:
REMARK  status: ('A' for Active; 'I' for Inactive)
REMARK    1  A    between atoms: C_1  and  C_2
REMARK    2  A    between atoms: C_1  and  C_8
REMARK    3  A    between atoms: C_1  and  N_33
REMARK    4  A    between atoms: C_13  and  N_31
REMARK    5  A    between atoms: C_14  and  C_15
REMARK    6  A    between atoms: C_21  and  O_22
REMARK    7  A    between atoms: O_22  and  C_23
REMARK    8  A    between atoms: C_23  and  C_24
REMARK    9  A    between atoms: N_31  and  C_34
REMARK   10  A    between atoms: N_32  and  C_37
REMARK   11  A    between atoms: N_33  and  C_39
REMARK   12  A    between atoms: N_33  and  C_41
REMARK                            x       y       z     vdW  Elec       q    Type
REMARK                         _______ _______ _______ _____ _____    ______ ____
ROOT
ATOM      1  N   UNL A   1     -19.944   1.103  28.249  0.00  0.00    -0.105 NA
ATOM      2 CL   UNL A   1     -23.134   2.916  24.970  0.00  0.00    -0.041 Cl
ATOM      3  C   UNL A   1     -23.703   1.095  27.181  0.00  0.00    +0.131 A 
ATOM      4  C   UNL A   1     -21.192   1.149  27.931  0.00  0.00    +0.271 A 
ATOM      5  C   UNL A   1     -22.059   0.262  28.573  0.00  0.00    +0.180 A 
ATOM      6  C   UNL A   1     -22.752   2.054  26.336  0.00  0.00    +0.222 A 
ATOM      7  O   UNL A   1     -21.553   2.027  27.000  0.00  0.00    -0.421 OA
ATOM      8  C   UNL A   1     -23.398   0.388  28.217  0.00  0.00    +0.094 A 
ENDROOT
BRANCH   5  10
ATOM      9  O   UNL A   1     -22.090  -0.624  30.405  0.00  0.00    -0.060 OA
ATOM     10  N   UNL A   1     -21.597  -0.649  29.291  0.00  0.00    -0.090 NA
ENDBRANCH   5  10
BRANCH   3  11
ATOM     11  N   UNL A   1     -24.541   1.074  27.051  0.00  0.00    -0.205 NA
BRANCH  11  12
ATOM     12  C   UNL A   1     -25.688   1.614  26.461  0.00  0.00    +0.109 C 
ATOM     13  C   UNL A   1     -26.250   2.920  26.395  0.00  0.00    +0.092 C 
ATOM     14  C   UNL A   1     -27.438   3.091  25.645  0.00  0.00    +0.108 C 
ATOM     15  N   UNL A   1     -28.075   2.089  25.003  0.00  0.00    -0.208 NA
ATOM     16  C   UNL A   1     -27.543   0.849  25.079  0.00  0.00    +0.255 C 
ATOM     17  C   UNL A   1     -26.354   0.576  25.777  0.00  0.00    +0.208 C 
ATOM     18  F   UNL A   1     -25.860  -0.681  25.795  0.00  0.00    -0.198 F 
BRANCH  13  19
ATOM     19  C   UNL A   1     -25.642   4.093  27.123  0.00  0.00    +0.268 C 
ATOM     20  N   UNL A   1     -25.614   5.252  26.449  0.00  0.00    -0.200 NA
ATOM     21  C   UNL A   1     -25.026   6.479  26.963  0.00  0.00    +0.139 C 
ATOM     22  O   UNL A   1     -25.143   3.966  28.243  0.00  0.00    -0.268 OA
ENDBRANCH  13  19
BRANCH  16  23
ATOM     23  O   UNL A   1     -28.193  -0.208  24.477  0.00  0.00    -0.456 OA
BRANCH  23  24
ATOM     24  C   UNL A   1     -29.460   0.005  23.866  0.00  0.00    +0.243 C 
BRANCH  24  25
ATOM     25  C   UNL A   1     -30.065  -1.377  23.573  0.00  0.00    +0.229 C 
ATOM     26  O   UNL A   1     -30.729  -1.878  24.721  0.00  0.00    -0.216 OA
ENDBRANCH  24  25
ENDBRANCH  23  24
ENDBRANCH  16  23
ENDBRANCH  11  12
ENDBRANCH   3  11
BRANCH   8  27
ATOM     27  N   UNL A   1     -24.599  -0.129  28.970  0.00  0.00    -0.274 N 
BRANCH  27  29
ATOM     28  O   UNL A   1     -26.792  -0.139  28.382  0.00  0.00    -0.196 OA
ATOM     29  C   UNL A   1     -25.771   0.033  28.609  0.00  0.00    +0.279 C 
ENDBRANCH  27  29
BRANCH  27  30
ATOM     30  C   UNL A   1     -24.855  -1.012  30.143  0.00  0.00    +0.114 C 
BRANCH  30  31
ATOM     31  C   UNL A   1     -24.973  -2.505  29.788  0.00  0.00    -0.003 C 
ATOM     32  C   UNL A   1     -23.906  -3.173  29.146  0.00  0.00    -0.003 C 
ATOM     33  C   UNL A   1     -23.989  -4.549  28.853  0.00  0.00    -0.000 C 
ATOM     34  C   UNL A   1     -25.137  -5.280  29.205  0.00  0.00    -0.000 C 
ATOM     35  C   UNL A   1     -26.232  -4.611  29.784  0.00  0.00    -0.000 C 
ATOM     36  C   UNL A   1     -26.155  -3.232  30.065  0.00  0.00    -0.003 C 
ENDBRANCH  30  31
BRANCH  30  37
ATOM     37  C   UNL A   1     -25.387  -0.679  31.571  0.00  0.00    +0.095 C 
ATOM     38  C   UNL A   1     -25.189   0.773  32.028  0.00  0.00    +0.021 C 
ATOM     39  C   UNL A   1     -25.336   0.684  33.544  0.00  0.00    +0.020 C 
ATOM     40  C   UNL A   1     -24.829  -0.715  33.905  0.00  0.00    +0.089 C 
ATOM     41  N   UNL A   1     -24.758  -1.481  32.646  0.00  0.00    -0.217 NA
ENDBRANCH  30  37
ENDBRANCH  27  30
ENDBRANCH   8  27
TORSDOF 12
