MODEL 4760
MODEL 1
REMARK VINA RESULT:    -4.251      0.000      0.000
REMARK INTER + INTRA:          -4.251
REMARK INTER:                  -4.251
REMARK INTRA:                   0.000
REMARK UNBOUND:                 0.000
REMARK  Name = No_4760-gen_results/8p0m/2024-11-27-11-27-31/
REMARK  0 active torsions:
REMARK  status: ('A' for Active; 'I' for Inactive)
REMARK                            x       y       z     vdW  Elec       q    Type
REMARK                         _______ _______ _______ _____ _____    ______ ____
ROOT
ATOM      1  C   UNL A   1     -24.975  -5.383  28.960  0.00  0.00    +0.000 A 
ATOM      2  C   UNL A   1     -24.174  -4.740  28.724  0.00  0.00    +0.000 A 
ATOM      3  C   UNL A   1     -26.129  -4.777  29.642  0.00  0.00    +0.000 A 
ATOM      4  C   UNL A   1     -26.198  -3.367  29.835  0.00  0.00    +0.000 A 
ATOM      5  C   UNL A   1     -24.020  -3.260  28.763  0.00  0.00    +0.000 A 
ATOM      6  C   UNL A   1     -25.068  -2.662  29.399  0.00  0.00    +0.000 A 
ENDROOT
TORSDOF 0
ENDMDL
ENDMDL
