MODEL 4761
MODEL 1
REMARK VINA RESULT:    -6.840      0.000      0.000
REMARK INTER + INTRA:          -8.500
REMARK INTER:                  -8.040
REMARK INTRA:                  -0.460
REMARK UNBOUND:                -0.460
REMARK  Name = No_4761-gen_results/8p0m/2024-11-27-11-27-31/
REMARK  3 active torsions:
REMARK  status: ('A' for Active; 'I' for Inactive)
REMARK    1  A    between atoms: C_2  and  C_7
REMARK    2  A    between atoms: C_8  and  C_9
REMARK    3  A    between atoms: C_9  and  C_10
REMARK                            x       y       z     vdW  Elec       q    Type
REMARK                         _______ _______ _______ _____ _____    ______ ____
ROOT
ATOM      1  C   UNL A   1     -22.552   0.243  29.841  0.00  0.00    -0.001 C 
ATOM      2  C   UNL A   1     -22.681  -1.140  29.989  0.00  0.00    -0.021 C 
ENDROOT
BRANCH   1   4
ATOM      3  C   UNL A   1     -24.372   1.167  28.586  0.00  0.00    +0.196 A 
ATOM      4  C   UNL A   1     -23.189   0.923  28.641  0.00  0.00    +0.039 A 
ATOM      5  C   UNL A   1     -22.305   1.230  27.659  0.00  0.00    +0.003 A 
ATOM      6  C   UNL A   1     -22.786   1.872  26.502  0.00  0.00    +0.000 A 
ATOM      7  C   UNL A   1     -24.918   1.906  27.476  0.00  0.00    +0.042 A 
ATOM      8  C   UNL A   1     -24.076   2.213  26.449  0.00  0.00    +0.003 A 
ATOM      9  O   UNL A   1     -24.481   2.335  29.614  0.00  0.00    -0.287 OA
ENDBRANCH   1   4
BRANCH   2  10
ATOM     10  C   UNL A   1     -23.595  -1.779  29.188  0.00  0.00    +0.056 C 
BRANCH  10  11
ATOM     11  C   UNL A   1     -24.404  -2.612  29.401  0.00  0.00    +0.021 A 
ATOM     12  C   UNL A   1     -25.763  -2.160  29.770  0.00  0.00    -0.001 A 
ATOM     13  C   UNL A   1     -26.773  -3.098  29.998  0.00  0.00    -0.000 A 
ATOM     14  C   UNL A   1     -26.503  -4.442  29.745  0.00  0.00    +0.003 A 
ATOM     15  C   UNL A   1     -25.300  -4.866  29.306  0.00  0.00    +0.042 A 
ATOM     16  C   UNL A   1     -24.281  -4.025  29.091  0.00  0.00    +0.192 A 
ATOM     17  O   UNL A   1     -23.627  -4.305  28.176  0.00  0.00    -0.287 OA
ENDBRANCH  10  11
ENDBRANCH   2  10
TORSDOF 3
ENDMDL
ENDMDL
