REMARK  Name = outputs/IAG933/test6/raw/output_4762_IAG933_linker_design_.xyz
REMARK  13 active torsions:
REMARK  status: ('A' for Active; 'I' for Inactive)
REMARK    1  A    between atoms: C_1  and  C_2
REMARK    2  A    between atoms: C_1  and  C_8
REMARK    3  A    between atoms: C_1  and  N_33
REMARK    4  A    between atoms: C_14  and  C_15
REMARK    5  A    between atoms: C_15  and  O_18
REMARK    6  A    between atoms: O_18  and  C_34
REMARK    7  A    between atoms: C_21  and  O_22
REMARK    8  A    between atoms: O_22  and  C_23
REMARK    9  A    between atoms: C_23  and  C_24
REMARK   10  A    between atoms: C_30  and  N_33
REMARK   11  A    between atoms: C_30  and  C_34
REMARK   12  A    between atoms: C_30  and  C_37
REMARK   13  A    between atoms: C_34  and  C_35
REMARK                            x       y       z     vdW  Elec       q    Type
REMARK                         _______ _______ _______ _____ _____    ______ ____
ROOT
ATOM      1  C   UNL A   1     -25.337   2.886  29.235  0.00  0.00    +0.210 C 
ENDROOT
BRANCH   1   3
ATOM      2  C   UNL A   1     -27.638   5.252  32.097  0.00  0.00    -0.000 C 
ATOM      3  C   UNL A   1     -26.209   3.373  30.221  0.00  0.00    +0.019 C 
ATOM      4  C   UNL A   1     -28.312   4.255  31.349  0.00  0.00    -0.000 C 
ATOM      5  C   UNL A   1     -26.221   5.347  31.924  0.00  0.00    -0.000 C 
ATOM      6  C   UNL A   1     -27.662   3.294  30.531  0.00  0.00    -0.001 C 
ATOM      7  C   UNL A   1     -25.530   4.452  31.048  0.00  0.00    -0.001 C 
ENDBRANCH   1   3
BRANCH   1   8
ATOM      8  O   UNL A   1     -25.143   3.966  28.243  0.00  0.00    -0.458 OA
BRANCH   8   9
ATOM      9  C   UNL A   1     -25.642   4.093  27.123  0.00  0.00    +0.222 C 
ATOM     10  N   UNL A   1     -25.614   5.252  26.449  0.00  0.00    -0.236 NA
ATOM     11  C   UNL A   1     -25.026   6.479  26.963  0.00  0.00    +0.155 C 
BRANCH   9  13
ATOM     12  C   UNL A   1     -25.688   1.614  26.461  0.00  0.00    +0.041 C 
ATOM     13  C   UNL A   1     -26.250   2.920  26.395  0.00  0.00    +0.074 C 
ATOM     14  C   UNL A   1     -27.438   3.091  25.645  0.00  0.00    +0.107 C 
ATOM     15  N   UNL A   1     -28.075   2.089  25.003  0.00  0.00    -0.208 NA
ATOM     16  C   UNL A   1     -27.543   0.849  25.079  0.00  0.00    +0.253 C 
ATOM     17  C   UNL A   1     -26.354   0.576  25.777  0.00  0.00    +0.193 C 
ATOM     18  F   UNL A   1     -25.860  -0.681  25.795  0.00  0.00    -0.199 F 
BRANCH  16  19
ATOM     19  O   UNL A   1     -28.193  -0.208  24.477  0.00  0.00    -0.456 OA
BRANCH  19  20
ATOM     20  C   UNL A   1     -29.460   0.005  23.866  0.00  0.00    +0.243 C 
BRANCH  20  21
ATOM     21  C   UNL A   1     -30.065  -1.377  23.573  0.00  0.00    +0.229 C 
ATOM     22  O   UNL A   1     -30.729  -1.878  24.721  0.00  0.00    -0.216 OA
ENDBRANCH  20  21
ENDBRANCH  19  20
ENDBRANCH  16  19
ENDBRANCH   9  13
ENDBRANCH   8   9
ENDBRANCH   1   8
BRANCH   1  23
ATOM     23  C   UNL A   1     -24.555   1.451  29.422  0.00  0.00    +0.143 C 
BRANCH  23  28
ATOM     24  O   UNL A   1     -22.055   0.173  29.777  0.00  0.00    -0.287 OA
ATOM     25  C   UNL A   1     -22.776   2.202  26.154  0.00  0.00    -0.000 C 
ATOM     26  C   UNL A   1     -23.648   2.168  27.207  0.00  0.00    +0.000 C 
ATOM     27  C   UNL A   1     -21.250   1.053  27.690  0.00  0.00    +0.042 C 
ATOM     28  C   UNL A   1     -23.383   1.585  28.478  0.00  0.00    +0.036 C 
ATOM     29  C   UNL A   1     -21.520   1.735  26.460  0.00  0.00    +0.003 C 
ATOM     30  C   UNL A   1     -22.255   0.928  28.714  0.00  0.00    +0.193 C 
ENDBRANCH  23  28
BRANCH  23  31
ATOM     31  N   UNL A   1     -25.048   0.041  29.152  0.00  0.00    -0.206 NA
BRANCH  31  32
ATOM     32  C   UNL A   1     -24.855  -1.012  30.143  0.00  0.00    +0.111 C 
BRANCH  32  33
ATOM     33  C   UNL A   1     -24.973  -2.505  29.788  0.00  0.00    -0.005 C 
ATOM     34  C   UNL A   1     -23.906  -3.173  29.146  0.00  0.00    -0.003 C 
ATOM     35  C   UNL A   1     -23.989  -4.549  28.853  0.00  0.00    -0.000 C 
ATOM     36  C   UNL A   1     -25.137  -5.280  29.205  0.00  0.00    -0.000 C 
ATOM     37  C   UNL A   1     -26.232  -4.611  29.784  0.00  0.00    -0.000 C 
ATOM     38  C   UNL A   1     -26.155  -3.232  30.065  0.00  0.00    -0.003 C 
ENDBRANCH  32  33
BRANCH  32  39
ATOM     39  C   UNL A   1     -25.387  -0.679  31.571  0.00  0.00    +0.093 C 
ATOM     40  C   UNL A   1     -25.189   0.773  32.028  0.00  0.00    +0.021 C 
ATOM     41  C   UNL A   1     -25.336   0.684  33.544  0.00  0.00    +0.020 C 
ATOM     42  C   UNL A   1     -24.829  -0.715  33.905  0.00  0.00    +0.089 C 
ATOM     43  N   UNL A   1     -24.758  -1.481  32.646  0.00  0.00    -0.218 NA
ENDBRANCH  32  39
ENDBRANCH  31  32
ENDBRANCH  23  31
ENDBRANCH   1  23
TORSDOF 13
