MODEL 4762
MODEL 1
REMARK VINA RESULT:    -5.593      0.000      0.000
REMARK INTER + INTRA:          -6.185
REMARK INTER:                  -6.247
REMARK INTRA:                   0.061
REMARK UNBOUND:                 0.061
REMARK  Name = No_4762-gen_results/8p0m/2024-11-27-11-27-31/
REMARK  2 active torsions:
REMARK  status: ('A' for Active; 'I' for Inactive)
REMARK    1  A    between atoms: C_1  and  C_2
REMARK    2  A    between atoms: C_1  and  C_5
REMARK                            x       y       z     vdW  Elec       q    Type
REMARK                         _______ _______ _______ _____ _____    ______ ____
ROOT
ATOM      1  C   UNL A   1      -9.385  -9.403  18.402  0.00  0.00    +0.330 C 
ATOM      2  F   UNL A   1     -10.609  -9.505  18.991  0.00  0.00    -0.221 F 
ENDROOT
BRANCH   1   3
ATOM      3  C   UNL A   1      -9.211 -10.272  17.579  0.00  0.00    +0.434 C 
ATOM      4  F   UNL A   1      -8.236 -10.066  16.850  0.00  0.00    -0.167 F 
ATOM      5  F   UNL A   1      -9.130 -11.569  17.916  0.00  0.00    -0.167 F 
ATOM      6  F   UNL A   1     -10.163 -10.482  16.532  0.00  0.00    -0.167 F 
ENDBRANCH   1   3
BRANCH   1   7
ATOM      7  C   UNL A   1      -8.400  -9.456  19.574  0.00  0.00    +0.368 C 
ATOM      8 CL   UNL A   1      -7.412  -8.410  19.599  0.00  0.00    -0.044 Cl
ATOM      9  F   UNL A   1      -7.750 -10.677  19.584  0.00  0.00    -0.183 F 
ATOM     10  F   UNL A   1      -9.194  -9.503  20.739  0.00  0.00    -0.183 F 
ENDBRANCH   1   7
TORSDOF 2
ENDMDL
ENDMDL
