MODEL 4763
MODEL 1
REMARK VINA RESULT:    -4.912      0.000      0.000
REMARK INTER + INTRA:          -5.310
REMARK INTER:                  -5.199
REMARK INTRA:                  -0.111
REMARK UNBOUND:                -0.111
REMARK  Name = No_4763-gen_results/8p0m/2024-11-27-11-27-31/
REMARK  1 active torsions:
REMARK  status: ('A' for Active; 'I' for Inactive)
REMARK    1  A    between atoms: C_1  and  C_2
REMARK                            x       y       z     vdW  Elec       q    Type
REMARK                         _______ _______ _______ _____ _____    ______ ____
ROOT
ATOM      1  C   UNL A   1     -24.438  -2.456  29.036  0.00  0.00    +0.044 A 
ATOM      2  C   UNL A   1     -25.702  -2.536  29.596  0.00  0.00    +0.001 A 
ATOM      3  C   UNL A   1     -26.450  -3.745  29.847  0.00  0.00    -0.000 A 
ATOM      4  C   UNL A   1     -25.869  -4.986  29.493  0.00  0.00    -0.000 A 
ATOM      5  C   UNL A   1     -24.575  -4.973  28.911  0.00  0.00    -0.000 A 
ATOM      6  C   UNL A   1     -23.937  -3.783  28.741  0.00  0.00    +0.001 A 
ENDROOT
BRANCH   1   7
ATOM      7  C   UNL A   1     -23.802  -1.437  28.898  0.00  0.00    +0.341 C 
ATOM      8  F   UNL A   1     -23.943  -0.711  27.896  0.00  0.00    -0.193 F 
ATOM      9  F   UNL A   1     -22.452  -1.684  28.948  0.00  0.00    -0.193 F 
ENDBRANCH   1   7
TORSDOF 1
ENDMDL
ENDMDL
