MODEL 4765
MODEL 1
REMARK VINA RESULT:    -6.294      0.000      0.000
REMARK INTER + INTRA:          -6.800
REMARK INTER:                  -6.662
REMARK INTRA:                  -0.138
REMARK UNBOUND:                -0.138
REMARK  Name = No_4765-gen_results/8p0m/2024-11-27-11-27-31/
REMARK  1 active torsions:
REMARK  status: ('A' for Active; 'I' for Inactive)
REMARK    1  A    between atoms: C_13  and  C_14
REMARK                            x       y       z     vdW  Elec       q    Type
REMARK                         _______ _______ _______ _____ _____    ______ ____
ROOT
ATOM      1  C   UNL A   1     -27.970 -12.054  32.185  0.00  0.00    +0.289 C 
ATOM      2  C   UNL A   1     -28.576 -11.536  31.276  0.00  0.00    +0.031 A 
ATOM      3  C   UNL A   1     -28.598 -12.041  29.977  0.00  0.00    -0.000 A 
ATOM      4  C   UNL A   1     -29.297 -11.470  28.809  0.00  0.00    -0.000 A 
ATOM      5  C   UNL A   1     -30.206 -10.404  29.090  0.00  0.00    -0.000 A 
ATOM      6  C   UNL A   1     -30.250  -9.896  30.392  0.00  0.00    -0.001 A 
ATOM      7  C   UNL A   1     -29.523 -10.406  31.411  0.00  0.00    +0.025 A 
ATOM      8  N   UNL A   1     -27.395 -11.210  33.080  0.00  0.00    -0.060 NA
ATOM      9  C   UNL A   1     -30.946  -9.904  27.965  0.00  0.00    -0.000 A 
ATOM     10  C   UNL A   1     -30.982 -10.656  26.761  0.00  0.00    -0.000 A 
ATOM     11  C   UNL A   1     -30.043 -11.682  26.563  0.00  0.00    -0.000 A 
ATOM     12  C   UNL A   1     -29.278 -12.197  27.591  0.00  0.00    -0.000 A 
ATOM     13  C   UNL A   1     -28.195 -10.488  33.846  0.00  0.00    +0.319 C 
ATOM     14  N   UNL A   1     -29.445 -10.210  33.517  0.00  0.00    -0.183 N 
ATOM     15  C   UNL A   1     -29.844  -9.809  32.604  0.00  0.00    +0.230 C 
ATOM     16  C   UNL A   1     -30.366 -10.712  34.652  0.00  0.00    +0.254 C 
ENDROOT
BRANCH  13  17
ATOM     17  C   UNL A   1     -27.744  -9.788  34.979  0.00  0.00    +0.089 C 
ATOM     18  C   UNL A   1     -27.093  -9.048  35.178  0.00  0.00    +0.008 C 
ENDBRANCH  13  17
TORSDOF 1
ENDMDL
ENDMDL
