MODEL 4766
MODEL 1
REMARK VINA RESULT:    -5.005      0.000      0.000
REMARK INTER + INTRA:          -5.752
REMARK INTER:                  -5.590
REMARK INTRA:                  -0.162
REMARK UNBOUND:                -0.162
REMARK  Name = No_4766-gen_results/8p0m/2024-11-27-11-27-31/
REMARK  2 active torsions:
REMARK  status: ('A' for Active; 'I' for Inactive)
REMARK    1  A    between atoms: C_1  and  C_2
REMARK    2  A    between atoms: C_1  and  C_9
REMARK                            x       y       z     vdW  Elec       q    Type
REMARK                         _______ _______ _______ _____ _____    ______ ____
ROOT
ATOM      1  C   UNL A   1     -23.877  -1.921  29.161  0.00  0.00    +0.063 A 
ATOM      2  N   UNL A   1     -22.806  -1.236  29.586  0.00  0.00    -0.248 NA
ATOM      3  C   UNL A   1     -22.365  -0.001  29.141  0.00  0.00    +0.094 A 
ATOM      4  C   UNL A   1     -22.949   0.506  27.982  0.00  0.00    -0.003 A 
ATOM      5  C   UNL A   1     -24.757  -1.171  28.275  0.00  0.00    +0.015 A 
ATOM      6  C   UNL A   1     -22.464   1.784  27.429  0.00  0.00    +0.033 C 
ATOM      7  C   UNL A   1     -24.247   0.005  27.539  0.00  0.00    -0.002 A 
ENDROOT
BRANCH   1   8
ATOM      8  C   UNL A   1     -24.188  -3.017  29.567  0.00  0.00    +0.072 C 
BRANCH   8   9
ATOM      9  C   UNL A   1     -24.141  -4.136  28.570  0.00  0.00    -0.020 C 
ATOM     10  C   UNL A   1     -24.821  -5.194  28.995  0.00  0.00    -0.004 C 
ENDBRANCH   8   9
ENDBRANCH   1   8
TORSDOF 2
ENDMDL
ENDMDL
