MODEL 4767
MODEL 1
REMARK VINA RESULT:    -8.260      0.000      0.000
REMARK INTER + INTRA:         -11.471
REMARK INTER:                 -10.191
REMARK INTRA:                  -1.280
REMARK UNBOUND:                -1.280
REMARK  Name = No_4767-gen_results/8p0m/2024-11-27-11-27-31/
REMARK  4 active torsions:
REMARK  status: ('A' for Active; 'I' for Inactive)
REMARK    1  A    between atoms: C_3  and  C_7
REMARK    2  A    between atoms: C_7  and  N_8
REMARK    3  A    between atoms: C_7  and  C_9
REMARK    4  A    between atoms: C_12  and  C_15
REMARK                            x       y       z     vdW  Elec       q    Type
REMARK                         _______ _______ _______ _____ _____    ______ ____
ROOT
ATOM      1  C   UNL A   1     -24.472  -1.312  29.618  0.00  0.00    +0.103 C 
ENDROOT
BRANCH   1   4
ATOM      2  C   UNL A   1     -26.049  -3.391  29.889  0.00  0.00    -0.003 A 
ATOM      3  C   UNL A   1     -26.162  -4.401  29.610  0.00  0.00    -0.000 A 
ATOM      4  C   UNL A   1     -24.806  -2.784  29.398  0.00  0.00    -0.004 A 
ATOM      5  C   UNL A   1     -23.840  -3.498  28.818  0.00  0.00    -0.003 A 
ATOM      6  C   UNL A   1     -25.271  -5.367  29.015  0.00  0.00    -0.000 A 
ATOM      7  C   UNL A   1     -24.111  -4.789  28.588  0.00  0.00    -0.000 A 
ENDBRANCH   1   4
BRANCH   1   8
ATOM      8  N   UNL A   1     -24.835  -0.670  30.619  0.00  0.00    -0.267 NA
ATOM      9  C   UNL A   1     -25.581   0.261  30.767  0.00  0.00    +0.073 C 
ATOM     10  C   UNL A   1     -24.108  -1.012  31.921  0.00  0.00    +0.073 C 
ATOM     11  C   UNL A   1     -24.624  -0.448  33.060  0.00  0.00    +0.017 C 
ATOM     12  C   UNL A   1     -25.837   0.817  31.997  0.00  0.00    +0.017 C 
ATOM     13  C   UNL A   1     -25.397   0.574  33.075  0.00  0.00    +0.003 C 
ENDBRANCH   1   8
BRANCH   1  14
ATOM     14  C   UNL A   1     -23.948  -0.563  28.448  0.00  0.00    -0.004 A 
ATOM     15  C   UNL A   1     -22.915   0.313  28.452  0.00  0.00    -0.003 A 
ATOM     16  C   UNL A   1     -22.699   1.349  27.898  0.00  0.00    +0.001 A 
ATOM     17  C   UNL A   1     -23.456   1.496  26.603  0.00  0.00    +0.044 A 
ATOM     18  C   UNL A   1     -24.532   0.638  26.387  0.00  0.00    +0.001 A 
ATOM     19  C   UNL A   1     -24.891  -0.306  27.367  0.00  0.00    -0.003 A 
BRANCH  17  20
ATOM     20  C   UNL A   1     -23.042   2.596  25.715  0.00  0.00    +0.341 C 
ATOM     21  F   UNL A   1     -24.101   3.221  25.469  0.00  0.00    -0.193 F 
ATOM     22  F   UNL A   1     -22.620   2.015  24.504  0.00  0.00    -0.193 F 
ENDBRANCH  17  20
ENDBRANCH   1  14
TORSDOF 4
ENDMDL
ENDMDL
