REMARK  Name = outputs/IAG933/test6/raw/output_4767_IAG933_linker_design_.xyz
REMARK  10 active torsions:
REMARK  status: ('A' for Active; 'I' for Inactive)
REMARK    1  A    between atoms: C_1  and  C_2
REMARK    2  A    between atoms: C_1  and  C_8
REMARK    3  A    between atoms: C_1  and  C_37
REMARK    4  A    between atoms: C_13  and  C_30
REMARK    5  A    between atoms: C_14  and  C_15
REMARK    6  A    between atoms: C_21  and  O_22
REMARK    7  A    between atoms: O_22  and  C_23
REMARK    8  A    between atoms: C_23  and  C_24
REMARK    9  A    between atoms: N_33  and  C_34
REMARK   10  A    between atoms: O_35  and  C_38
REMARK                            x       y       z     vdW  Elec       q    Type
REMARK                         _______ _______ _______ _____ _____    ______ ____
ROOT
ATOM      1  C   UNL A   1     -22.800   0.646  29.111  0.00  0.00    +0.043 C 
ATOM      2  C   UNL A   1     -24.612   1.123  27.250  0.00  0.00    +0.159 C 
ATOM      3  F   UNL A   1     -21.174   1.857  27.797  0.00  0.00    -0.201 F 
ATOM      4  C   UNL A   1     -22.421   1.415  27.998  0.00  0.00    +0.172 C 
ATOM      5  N   UNL A   1     -24.781   0.066  27.918  0.00  0.00    -0.275 N 
ATOM      6  C   UNL A   1     -24.123  -0.028  29.125  0.00  0.00    +0.035 C 
ATOM      7  C   UNL A   1     -23.375   1.787  27.068  0.00  0.00    +0.166 C 
ENDROOT
BRANCH   2   8
ATOM      8  C   UNL A   1     -25.688   1.614  26.461  0.00  0.00    +0.041 C 
ATOM      9  C   UNL A   1     -26.250   2.920  26.395  0.00  0.00    +0.074 C 
ATOM     10  C   UNL A   1     -27.438   3.091  25.645  0.00  0.00    +0.106 C 
ATOM     11  N   UNL A   1     -28.075   2.089  25.003  0.00  0.00    -0.208 NA
ATOM     12  C   UNL A   1     -27.543   0.849  25.079  0.00  0.00    +0.253 C 
ATOM     13  C   UNL A   1     -26.354   0.576  25.777  0.00  0.00    +0.191 C 
ATOM     14  F   UNL A   1     -25.860  -0.681  25.795  0.00  0.00    -0.200 F 
BRANCH   9  15
ATOM     15  C   UNL A   1     -25.642   4.093  27.123  0.00  0.00    +0.266 C 
ATOM     16  N   UNL A   1     -25.614   5.252  26.449  0.00  0.00    -0.200 NA
ATOM     17  C   UNL A   1     -25.026   6.479  26.963  0.00  0.00    +0.139 C 
ATOM     18  O   UNL A   1     -25.143   3.966  28.243  0.00  0.00    -0.268 OA
ENDBRANCH   9  15
BRANCH  12  19
ATOM     19  O   UNL A   1     -28.193  -0.208  24.477  0.00  0.00    -0.456 OA
BRANCH  19  20
ATOM     20  C   UNL A   1     -29.460   0.005  23.866  0.00  0.00    +0.243 C 
BRANCH  20  21
ATOM     21  C   UNL A   1     -30.065  -1.377  23.573  0.00  0.00    +0.229 C 
ATOM     22  O   UNL A   1     -30.729  -1.878  24.721  0.00  0.00    -0.216 OA
ENDBRANCH  20  21
ENDBRANCH  19  20
ENDBRANCH  12  19
ENDBRANCH   2   8
BRANCH   5  24
ATOM     23  O   UNL A   1     -26.673  -0.942  28.016  0.00  0.00    -0.196 OA
ATOM     24  C   UNL A   1     -25.513  -1.028  27.207  0.00  0.00    +0.279 C 
ENDBRANCH   5  24
BRANCH   7  25
ATOM     25  O   UNL A   1     -23.053   2.870  26.199  0.00  0.00    -0.471 OA
ATOM     26  C   UNL A   1     -22.757   2.316  24.889  0.00  0.00    +0.252 C 
ENDBRANCH   7  25
BRANCH   6  27
ATOM     27  C   UNL A   1     -24.855  -1.012  30.143  0.00  0.00    +0.074 C 
BRANCH  27  28
ATOM     28  C   UNL A   1     -24.973  -2.505  29.788  0.00  0.00    -0.016 C 
ATOM     29  C   UNL A   1     -23.906  -3.173  29.146  0.00  0.00    -0.004 C 
ATOM     30  C   UNL A   1     -23.989  -4.549  28.853  0.00  0.00    -0.000 C 
ATOM     31  C   UNL A   1     -25.137  -5.280  29.205  0.00  0.00    -0.000 C 
ATOM     32  C   UNL A   1     -26.232  -4.611  29.784  0.00  0.00    -0.000 C 
ATOM     33  C   UNL A   1     -26.155  -3.232  30.065  0.00  0.00    -0.004 C 
ENDBRANCH  27  28
BRANCH  27  34
ATOM     34  C   UNL A   1     -25.387  -0.679  31.571  0.00  0.00    +0.082 C 
ATOM     35  C   UNL A   1     -25.189   0.773  32.028  0.00  0.00    +0.020 C 
ATOM     36  C   UNL A   1     -25.336   0.684  33.544  0.00  0.00    +0.020 C 
ATOM     37  C   UNL A   1     -24.829  -0.715  33.905  0.00  0.00    +0.089 C 
ATOM     38  N   UNL A   1     -24.758  -1.481  32.646  0.00  0.00    -0.219 NA
ENDBRANCH  27  34
ENDBRANCH   6  27
TORSDOF 10
