MODEL 4768
MODEL 1
REMARK VINA RESULT:    -6.366      0.000      0.000
REMARK INTER + INTRA:          -7.108
REMARK INTER:                  -6.738
REMARK INTRA:                  -0.369
REMARK UNBOUND:                -0.369
REMARK  Name = No_4768-gen_results/8p0m/2024-11-27-11-27-31/
REMARK  1 active torsions:
REMARK  status: ('A' for Active; 'I' for Inactive)
REMARK    1  A    between atoms: C_3  and  C_4
REMARK                            x       y       z     vdW  Elec       q    Type
REMARK                         _______ _______ _______ _____ _____    ______ ____
ROOT
ATOM      1  C   UNL A   1     -24.327  -0.026  28.120  0.00  0.00    +0.000 A 
ATOM      2  C   UNL A   1     -23.625   0.500  27.535  0.00  0.00    +0.000 A 
ATOM      3  C   UNL A   1     -23.767  -1.170  28.935  0.00  0.00    +0.000 A 
ATOM      4  C   UNL A   1     -22.235   0.907  27.921  0.00  0.00    +0.000 A 
ATOM      5  C   UNL A   1     -21.693  -0.012  28.845  0.00  0.00    +0.000 A 
ATOM      6  C   UNL A   1     -22.388  -1.048  29.328  0.00  0.00    +0.000 A 
ENDROOT
BRANCH   3   7
ATOM      7  C   UNL A   1     -24.416  -2.411  29.051  0.00  0.00    +0.000 A 
ATOM      8  C   UNL A   1     -25.713  -2.461  29.537  0.00  0.00    +0.000 A 
ATOM      9  C   UNL A   1     -26.424  -3.683  29.867  0.00  0.00    +0.000 A 
ATOM     10  C   UNL A   1     -25.813  -4.919  29.419  0.00  0.00    +0.000 A 
ATOM     11  C   UNL A   1     -24.529  -4.832  28.817  0.00  0.00    +0.000 A 
ATOM     12  C   UNL A   1     -23.876  -3.638  28.627  0.00  0.00    +0.000 A 
ENDBRANCH   3   7
TORSDOF 1
ENDMDL
ENDMDL
