MODEL 4769
MODEL 1
REMARK VINA RESULT:    -7.858      0.000      0.000
REMARK INTER + INTRA:         -13.020
REMARK INTER:                 -11.074
REMARK INTRA:                  -1.946
REMARK UNBOUND:                -1.946
REMARK  Name = No_4769-gen_results/8p0m/2024-11-27-11-27-31/
REMARK  7 active torsions:
REMARK  status: ('A' for Active; 'I' for Inactive)
REMARK    1  A    between atoms: C_2  and  C_23
REMARK    2  A    between atoms: C_3  and  C_8
REMARK    3  A    between atoms: C_6  and  O_7
REMARK    4  A    between atoms: O_7  and  C_16
REMARK    5  A    between atoms: C_9  and  C_10
REMARK    6  A    between atoms: C_14  and  C_33
REMARK    7  A    between atoms: C_22  and  C_26
REMARK                            x       y       z     vdW  Elec       q    Type
REMARK                         _______ _______ _______ _____ _____    ______ ____
ROOT
ATOM      1  C   UNL A   1     -28.400  -0.401  24.252  0.00  0.00    +0.041 A 
ATOM      2  C   UNL A   1     -29.474   0.121  24.061  0.00  0.00    +0.053 A 
ATOM      3  C   UNL A   1     -29.567   1.460  23.697  0.00  0.00    +0.004 A 
ATOM      4  C   UNL A   1     -28.388   2.279  23.580  0.00  0.00    +0.003 A 
ATOM      5  C   UNL A   1     -27.190   1.601  23.841  0.00  0.00    +0.037 A 
ATOM      6  C   UNL A   1     -27.158   0.338  24.198  0.00  0.00    +0.139 A 
ENDROOT
BRANCH   2   7
ATOM      7  C   UNL A   1     -30.786  -0.605  24.205  0.00  0.00    +0.254 C 
ATOM      8 CL   UNL A   1     -31.632  -0.663  25.587  0.00  0.00    -0.038 Cl
ATOM      9  O   UNL A   1     -31.249  -1.401  23.282  0.00  0.00    -0.274 OA
ENDBRANCH   2   7
BRANCH   3  10
ATOM     10  C   UNL A   1     -30.842   2.219  23.421  0.00  0.00    +0.000 C 
ATOM     11  C   UNL A   1     -31.314   3.140  24.329  0.00  0.00    +0.000 C 
BRANCH  11  12
ATOM     12  C   UNL A   1     -30.729   3.323  25.570  0.00  0.00    +0.000 A 
ATOM     13  C   UNL A   1     -30.724   2.655  26.542  0.00  0.00    +0.000 A 
ATOM     14  C   UNL A   1     -30.210   3.065  27.889  0.00  0.00    +0.000 A 
ATOM     15  C   UNL A   1     -29.351   4.143  27.872  0.00  0.00    +0.008 A 
ATOM     16  C   UNL A   1     -29.212   4.929  26.759  0.00  0.00    +0.098 A 
ATOM     17  C   UNL A   1     -29.895   4.601  25.573  0.00  0.00    +0.008 A 
BRANCH  16  18
ATOM     18  C   UNL A   1     -28.516   6.176  26.622  0.00  0.00    +0.477 C 
ATOM     19  N   UNL A   1     -28.793   6.941  25.558  0.00  0.00    +0.205 NA
ATOM     20  N   UNL A   1     -27.634   6.597  27.468  0.00  0.00    +0.205 NA
ENDBRANCH  16  18
ENDBRANCH  11  12
ENDBRANCH   3  10
BRANCH   6  21
ATOM     21  O   UNL A   1     -25.954  -0.236  24.472  0.00  0.00    -0.477 OA
BRANCH  21  22
ATOM     22  C   UNL A   1     -25.361  -0.064  25.663  0.00  0.00    +0.186 C 
ATOM     23  C   UNL A   1     -24.443   0.950  25.724  0.00  0.00    +0.047 C 
ATOM     24  C   UNL A   1     -23.772   1.082  26.899  0.00  0.00    +0.025 C 
ATOM     25  C   UNL A   1     -24.089   0.410  27.806  0.00  0.00    +0.094 C 
ATOM     26  C   UNL A   1     -25.468  -0.690  26.913  0.00  0.00    +0.137 C 
ATOM     27  N   UNL A   1     -24.901  -0.511  27.969  0.00  0.00    -0.272 N 
ATOM     28  C   UNL A   1     -25.253  -1.288  29.153  0.00  0.00    +0.249 C 
ATOM     29  O   UNL A   1     -25.985  -0.554  29.929  0.00  0.00    -0.270 OA
BRANCH  28  30
ATOM     30  C   UNL A   1     -24.990  -2.589  29.123  0.00  0.00    +0.054 A 
ATOM     31  C   UNL A   1     -24.189  -3.198  28.698  0.00  0.00    +0.004 A 
ATOM     32  C   UNL A   1     -24.007  -4.437  28.531  0.00  0.00    +0.000 A 
ATOM     33  C   UNL A   1     -25.008  -5.304  29.050  0.00  0.00    +0.000 A 
ATOM     34  C   UNL A   1     -26.107  -4.729  29.625  0.00  0.00    +0.000 A 
ATOM     35  C   UNL A   1     -26.210  -3.387  29.662  0.00  0.00    +0.004 A 
ENDBRANCH  28  30
ENDBRANCH  21  22
ENDBRANCH   6  21
TORSDOF 7
ENDMDL
ENDMDL
