MODEL 476
MODEL 1
REMARK VINA RESULT:    -7.623      0.000      0.000
REMARK INTER + INTRA:          -9.809
REMARK INTER:                  -8.960
REMARK INTRA:                  -0.849
REMARK UNBOUND:                -0.849
REMARK  Name = No_476-gen_results/8p0m/2024-11-27-11-27-31/
REMARK  3 active torsions:
REMARK  status: ('A' for Active; 'I' for Inactive)
REMARK    1  A    between atoms: C_2  and  C_11
REMARK    2  A    between atoms: C_3  and  C_7
REMARK    3  A    between atoms: C_6  and  C_14
REMARK                            x       y       z     vdW  Elec       q    Type
REMARK                         _______ _______ _______ _____ _____    ______ ____
ROOT
ATOM      1  C   UNL A   1     -12.852   2.155  34.932  0.00  0.00    +0.010 A 
ATOM      2  C   UNL A   1     -12.018   1.542  34.736  0.00  0.00    +0.079 A 
ATOM      3  C   UNL A   1     -13.167   2.427  36.282  0.00  0.00    +0.071 A 
ATOM      4  C   UNL A   1     -12.426   1.905  37.324  0.00  0.00    +0.000 A 
ATOM      5  C   UNL A   1     -11.073   0.870  35.649  0.00  0.00    +0.003 A 
ATOM      6  C   UNL A   1     -11.339   1.103  36.953  0.00  0.00    -0.011 A 
ENDROOT
BRANCH   6   7
ATOM      7  C   UNL A   1     -10.506   0.514  38.047  0.00  0.00    +0.102 C 
ATOM      8  C   UNL A   1     -10.703  -0.518  38.692  0.00  0.00    -0.015 A 
ATOM      9  C   UNL A   1     -11.840  -1.395  38.379  0.00  0.00    -0.004 A 
ATOM     10  C   UNL A   1     -12.186  -2.408  39.318  0.00  0.00    -0.000 A 
ATOM     11  C   UNL A   1     -11.517  -2.501  40.488  0.00  0.00    -0.000 A 
ATOM     12  C   UNL A   1     -10.475  -1.664  40.873  0.00  0.00    -0.004 A 
ATOM     13  C   UNL A   1     -10.128  -0.636  39.981  0.00  0.00    -0.025 A 
ATOM     14  C   UNL A   1      -9.155   1.181  38.148  0.00  0.00    +0.159 C 
ATOM     15  O   UNL A   1      -8.760   1.861  37.430  0.00  0.00    -0.295 OA
ATOM     16  C   UNL A   1      -8.379   0.704  39.364  0.00  0.00    +0.070 C 
ATOM     17  C   UNL A   1      -8.879   0.009  40.312  0.00  0.00    +0.034 C 
ENDBRANCH   6   7
BRANCH   3  18
ATOM     18  C   UNL A   1     -14.297   3.324  36.699  0.00  0.00    +0.419 C 
ATOM     19  F   UNL A   1     -14.020   4.264  37.035  0.00  0.00    -0.166 F 
ATOM     20  F   UNL A   1     -15.123   2.738  37.686  0.00  0.00    -0.166 F 
ATOM     21  F   UNL A   1     -15.217   3.372  35.582  0.00  0.00    -0.166 F 
ENDBRANCH   3  18
BRANCH   2  22
ATOM     22  C   UNL A   1     -11.542   1.292  33.205  0.00  0.00    +0.388 C 
ATOM     23  O   UNL A   1     -10.341   1.496  32.944  0.00  0.00    -0.241 OA
ATOM     24  O   UNL A   1     -12.379   1.122  32.343  0.00  0.00    -0.241 OA
ENDBRANCH   2  22
TORSDOF 3
ENDMDL
ENDMDL
