MODEL 4770
MODEL 1
REMARK VINA RESULT:    -4.855      0.000      0.000
REMARK INTER + INTRA:          -5.634
REMARK INTER:                  -5.423
REMARK INTRA:                  -0.211
REMARK UNBOUND:                -0.211
REMARK  Name = No_4770-gen_results/8p0m/2024-11-27-11-27-31/
REMARK  2 active torsions:
REMARK  status: ('A' for Active; 'I' for Inactive)
REMARK    1  A    between atoms: C_3  and  C_4
REMARK    2  A    between atoms: C_4  and  C_8
REMARK                            x       y       z     vdW  Elec       q    Type
REMARK                         _______ _______ _______ _____ _____    ______ ____
ROOT
ATOM      1  C   UNL A   1     -23.847  -3.804  28.551  0.00  0.00    -0.004 A 
ATOM      2  C   UNL A   1     -24.246  -4.768  28.702  0.00  0.00    -0.000 A 
ATOM      3  C   UNL A   1     -24.610  -2.699  28.988  0.00  0.00    -0.018 A 
ATOM      4  C   UNL A   1     -25.518  -5.211  29.300  0.00  0.00    -0.000 A 
ATOM      5  C   UNL A   1     -26.328  -4.169  29.753  0.00  0.00    -0.000 A 
ATOM      6  C   UNL A   1     -25.880  -2.891  29.654  0.00  0.00    -0.004 A 
ENDROOT
BRANCH   3   7
ATOM      7  C   UNL A   1     -24.147  -1.287  28.950  0.00  0.00    +0.052 C 
BRANCH   7   8
ATOM      8  C   UNL A   1     -22.913  -0.982  29.599  0.00  0.00    -0.021 C 
ATOM      9  C   UNL A   1     -21.862  -0.413  28.949  0.00  0.00    -0.005 C 
ENDBRANCH   7   8
ENDBRANCH   3   7
TORSDOF 2
ENDMDL
ENDMDL
