MODEL 4771
MODEL 1
REMARK VINA RESULT:    -6.387      0.000      0.000
REMARK INTER + INTRA:          -7.574
REMARK INTER:                  -7.134
REMARK INTRA:                  -0.440
REMARK UNBOUND:                -0.440
REMARK  Name = No_4771-gen_results/8p0m/2024-11-27-11-27-31/
REMARK  2 active torsions:
REMARK  status: ('A' for Active; 'I' for Inactive)
REMARK    1  A    between atoms: C_2  and  C_8
REMARK    2  A    between atoms: C_5  and  O_7
REMARK                            x       y       z     vdW  Elec       q    Type
REMARK                         _______ _______ _______ _____ _____    ______ ____
ROOT
ATOM      1  C   UNL A   1     -23.204  -0.752  28.885  0.00  0.00    +0.003 A 
ATOM      2  C   UNL A   1     -24.187  -1.276  28.415  0.00  0.00    +0.000 A 
ATOM      3  C   UNL A   1     -24.994  -0.677  27.468  0.00  0.00    +0.003 A 
ATOM      4  C   UNL A   1     -24.621   0.611  26.993  0.00  0.00    +0.037 A 
ATOM      5  C   UNL A   1     -23.426   1.081  27.421  0.00  0.00    +0.139 A 
ATOM      6  C   UNL A   1     -22.699   0.419  28.301  0.00  0.00    +0.037 A 
ENDROOT
BRANCH   2   7
ATOM      7  C   UNL A   1     -24.752  -2.615  28.967  0.00  0.00    +0.000 A 
ATOM      8  C   UNL A   1     -25.699  -2.730  29.520  0.00  0.00    +0.000 A 
ATOM      9  C   UNL A   1     -26.327  -3.721  29.785  0.00  0.00    +0.000 A 
ATOM     10  C   UNL A   1     -25.809  -5.077  29.566  0.00  0.00    +0.000 A 
ATOM     11  C   UNL A   1     -24.611  -5.059  28.906  0.00  0.00    +0.000 A 
ATOM     12  C   UNL A   1     -24.032  -3.811  28.492  0.00  0.00    +0.000 A 
ENDBRANCH   2   7
BRANCH   5  13
ATOM     13  O   UNL A   1     -23.041   2.290  26.926  0.00  0.00    -0.471 OA
ATOM     14  C   UNL A   1     -22.945   2.437  25.628  0.00  0.00    +0.253 C 
ENDBRANCH   5  13
TORSDOF 2
ENDMDL
ENDMDL
