REMARK  Name = No_4772-gen_results/8p0m/2024-11-27-11-27-31/
REMARK  2 active torsions:
REMARK  status: ('A' for Active; 'I' for Inactive)
REMARK    1  A    between atoms: C_3  and  C_7
REMARK    2  A    between atoms: C_8  and  C_9
REMARK                            x       y       z     vdW  Elec       q    Type
REMARK                         _______ _______ _______ _____ _____    ______ ____
ROOT
ATOM      1  C   UNL A   1     -28.016  -0.814  28.878  0.00  0.00    +0.000 A 
ATOM      2  C   UNL A   1     -28.469  -0.785  29.829  0.00  0.00    +0.000 A 
ATOM      3  C   UNL A   1     -27.136   0.236  28.535  0.00  0.00    +0.000 A 
ATOM      4  C   UNL A   1     -26.805   1.051  29.276  0.00  0.00    +0.000 A 
ATOM      5  C   UNL A   1     -28.237   0.150  30.930  0.00  0.00    +0.000 A 
ATOM      6  C   UNL A   1     -27.352   1.124  30.607  0.00  0.00    +0.000 A 
ENDROOT
BRANCH   3   7
ATOM      7  C   UNL A   1     -26.383   0.386  27.165  0.00  0.00    +0.000 C 
ATOM      8  C   UNL A   1     -25.967   1.163  26.654  0.00  0.00    +0.000 C 
BRANCH   8   9
ATOM      9  C   UNL A   1     -25.384   2.006  26.926  0.00  0.00    +0.000 C 
ATOM     10  C   UNL A   1     -25.408   2.727  28.263  0.00  0.00    +0.000 C 
ENDBRANCH   8   9
ENDBRANCH   3   7
TORSDOF 2
