MODEL 4772
MODEL 1
REMARK VINA RESULT:    -5.159      0.000      0.000
REMARK INTER + INTRA:          -6.159
REMARK INTER:                  -5.762
REMARK INTRA:                  -0.397
REMARK UNBOUND:                -0.397
REMARK  Name = No_4772-gen_results/8p0m/2024-11-27-11-27-31/
REMARK  2 active torsions:
REMARK  status: ('A' for Active; 'I' for Inactive)
REMARK    1  A    between atoms: C_3  and  C_7
REMARK    2  A    between atoms: C_8  and  C_9
REMARK                            x       y       z     vdW  Elec       q    Type
REMARK                         _______ _______ _______ _____ _____    ______ ____
ROOT
ATOM      1  C   UNL A   1     -25.804  -3.085  29.616  0.00  0.00    +0.000 A 
ATOM      2  C   UNL A   1     -26.099  -4.091  29.721  0.00  0.00    +0.000 A 
ATOM      3  C   UNL A   1     -24.539  -2.825  29.044  0.00  0.00    +0.000 A 
ATOM      4  C   UNL A   1     -23.872  -3.644  28.587  0.00  0.00    +0.000 A 
ATOM      5  C   UNL A   1     -25.424  -5.301  29.250  0.00  0.00    +0.000 A 
ATOM      6  C   UNL A   1     -24.236  -5.036  28.657  0.00  0.00    +0.000 A 
ENDROOT
BRANCH   3   7
ATOM      7  C   UNL A   1     -23.911  -1.403  28.823  0.00  0.00    +0.000 C 
ATOM      8  C   UNL A   1     -23.498  -0.697  29.431  0.00  0.00    +0.000 C 
BRANCH   8   9
ATOM      9  C   UNL A   1     -22.843  -0.722  30.264  0.00  0.00    +0.000 C 
ATOM     10  C   UNL A   1     -23.244  -0.718  31.729  0.00  0.00    +0.000 C 
ENDBRANCH   8   9
ENDBRANCH   3   7
TORSDOF 2
ENDMDL
ENDMDL
