MODEL 4773
MODEL 1
REMARK VINA RESULT:    -6.728      0.000      0.000
REMARK INTER + INTRA:          -8.453
REMARK INTER:                  -7.908
REMARK INTRA:                  -0.545
REMARK UNBOUND:                -0.545
REMARK  Name = No_4773-gen_results/8p0m/2024-11-27-11-27-31/
REMARK  3 active torsions:
REMARK  status: ('A' for Active; 'I' for Inactive)
REMARK    1  A    between atoms: C_3  and  C_7
REMARK    2  A    between atoms: C_7  and  N_8
REMARK    3  A    between atoms: N_8  and  C_9
REMARK                            x       y       z     vdW  Elec       q    Type
REMARK                         _______ _______ _______ _____ _____    ______ ____
ROOT
ATOM      1  N   UNL A   1     -24.355  -0.512  29.634  0.00  0.00    -0.302 N 
ATOM      2  C   UNL A   1     -24.234  -0.113  31.111  0.00  0.00    +0.113 C 
ENDROOT
BRANCH   1   3
ATOM      3  C   UNL A   1     -24.188   0.600  28.875  0.00  0.00    +0.048 A 
ATOM      4  C   UNL A   1     -22.788   0.983  28.579  0.00  0.00    +0.018 A 
ATOM      5  C   UNL A   1     -22.455   1.869  27.576  0.00  0.00    +0.043 A 
ATOM      6  C   UNL A   1     -23.143   1.803  26.320  0.00  0.00    +0.196 A 
ATOM      7  C   UNL A   1     -24.379   1.066  26.322  0.00  0.00    +0.043 A 
ATOM      8  C   UNL A   1     -24.884   0.457  27.501  0.00  0.00    +0.018 A 
ATOM      9  O   UNL A   1     -22.691   2.342  25.233  0.00  0.00    -0.287 OA
ENDBRANCH   1   3
BRANCH   1  10
ATOM     10  C   UNL A   1     -25.465  -1.297  29.449  0.00  0.00    +0.118 C 
BRANCH  10  13
ATOM     11  C   UNL A   1     -26.210  -3.572  29.787  0.00  0.00    -0.003 A 
ATOM     12  C   UNL A   1     -26.106  -4.598  29.572  0.00  0.00    -0.000 A 
ATOM     13  C   UNL A   1     -25.120  -2.749  29.247  0.00  0.00    -0.002 A 
ATOM     14  C   UNL A   1     -24.023  -3.279  28.705  0.00  0.00    -0.003 A 
ATOM     15  C   UNL A   1     -25.028  -5.390  29.032  0.00  0.00    -0.000 A 
ATOM     16  C   UNL A   1     -24.015  -4.610  28.559  0.00  0.00    -0.000 A 
ENDBRANCH  10  13
ENDBRANCH   1  10
TORSDOF 3
ENDMDL
ENDMDL
