MODEL 4774
MODEL 1
REMARK VINA RESULT:    -4.803      0.000      0.000
REMARK INTER + INTRA:          -5.272
REMARK INTER:                  -5.083
REMARK INTRA:                  -0.188
REMARK UNBOUND:                -0.188
REMARK  Name = No_4774-gen_results/8p0m/2024-11-27-11-27-31/
REMARK  1 active torsions:
REMARK  status: ('A' for Active; 'I' for Inactive)
REMARK    1  A    between atoms: C_1  and  C_2
REMARK                            x       y       z     vdW  Elec       q    Type
REMARK                         _______ _______ _______ _____ _____    ______ ____
ROOT
ATOM      1  C   UNL A   1     -24.448  -2.500  29.107  0.00  0.00    -0.000 A 
ATOM      2  C   UNL A   1     -23.926  -3.749  28.834  0.00  0.00    -0.000 A 
ATOM      3  C   UNL A   1     -24.712  -4.894  28.943  0.00  0.00    -0.000 A 
ATOM      4  C   UNL A   1     -26.029  -4.873  29.562  0.00  0.00    -0.000 A 
ATOM      5  C   UNL A   1     -26.522  -3.600  29.892  0.00  0.00    -0.000 A 
ATOM      6  C   UNL A   1     -25.774  -2.501  29.598  0.00  0.00    -0.000 A 
ENDROOT
BRANCH   1   7
ATOM      7  C   UNL A   1     -24.032  -1.478  28.611  0.00  0.00    -0.005 C 
ATOM      8  C   UNL A   1     -22.940  -0.712  29.271  0.00  0.00    -0.026 C 
ATOM      9  C   UNL A   1     -22.842  -0.761  30.679  0.00  0.00    +0.031 C 
ENDBRANCH   1   7
TORSDOF 1
ENDMDL
ENDMDL
