MODEL 4775
MODEL 1
REMARK VINA RESULT:    -5.502      0.000      0.000
REMARK INTER + INTRA:          -5.893
REMARK INTER:                  -5.823
REMARK INTRA:                  -0.069
REMARK UNBOUND:                -0.069
REMARK  Name = No_4775-gen_results/8p0m/2024-11-27-11-27-31/
REMARK  1 active torsions:
REMARK  status: ('A' for Active; 'I' for Inactive)
REMARK    1  A    between atoms: C_11  and  C_12
REMARK                            x       y       z     vdW  Elec       q    Type
REMARK                         _______ _______ _______ _____ _____    ______ ____
ROOT
ATOM      1  O   UNL A   1     -22.303  -0.510  30.490  0.00  0.00    -0.268 OA
ATOM      2  C   UNL A   1     -23.032  -0.502  29.491  0.00  0.00    +0.265 C 
ATOM      3  C   UNL A   1     -23.116  -0.050  28.559  0.00  0.00    +0.051 A 
ATOM      4  N   UNL A   1     -24.199  -1.481  29.724  0.00  0.00    -0.201 NA
ATOM      5  C   UNL A   1     -24.164   0.037  27.485  0.00  0.00    -0.010 A 
ATOM      6  C   UNL A   1     -25.196  -0.944  27.774  0.00  0.00    +0.050 C 
ATOM      7  C   UNL A   1     -25.197  -1.614  28.906  0.00  0.00    +0.120 C 
ATOM      8  C   UNL A   1     -22.028   1.019  28.133  0.00  0.00    +0.004 A 
ATOM      9  C   UNL A   1     -22.154   1.882  27.146  0.00  0.00    +0.000 A 
ATOM     10  C   UNL A   1     -23.200   1.740  26.147  0.00  0.00    +0.006 A 
ATOM     11  C   UNL A   1     -24.257   0.873  26.371  0.00  0.00    +0.076 A 
ENDROOT
BRANCH  11  12
ATOM     12  C   UNL A   1     -25.362   0.848  25.436  0.00  0.00    +0.387 C 
ATOM     13  O   UNL A   1     -26.259   1.434  25.582  0.00  0.00    -0.241 OA
ATOM     14  O   UNL A   1     -25.236  -0.008  24.416  0.00  0.00    -0.241 OA
ENDBRANCH  11  12
TORSDOF 1
ENDMDL
ENDMDL
