MODEL 4776
MODEL 1
REMARK VINA RESULT:    -6.135      0.000      0.000
REMARK INTER + INTRA:          -6.918
REMARK INTER:                  -6.852
REMARK INTRA:                  -0.066
REMARK UNBOUND:                -0.066
REMARK  Name = No_4776-gen_results/8p0m/2024-11-27-11-27-31/
REMARK  2 active torsions:
REMARK  status: ('A' for Active; 'I' for Inactive)
REMARK    1  A    between atoms: C_1  and  N_8
REMARK    2  A    between atoms: C_5  and  C_13
REMARK                            x       y       z     vdW  Elec       q    Type
REMARK                         _______ _______ _______ _____ _____    ______ ____
ROOT
ATOM      1  C   UNL A   1     -24.171  -3.007  29.460  0.00  0.00    +0.072 C 
ATOM      2  C   UNL A   1     -23.891  -1.920  29.010  0.00  0.00    -0.027 C 
ATOM      3  C   UNL A   1     -22.666  -1.290  29.223  0.00  0.00    +0.024 C 
ATOM      4  C   UNL A   1     -22.246   0.035  28.725  0.00  0.00    +0.010 C 
ATOM      5  C   UNL A   1     -23.110   0.639  27.762  0.00  0.00    +0.068 C 
ATOM      6  C   UNL A   1     -24.332   0.016  27.484  0.00  0.00    +0.010 C 
ATOM      7  C   UNL A   1     -24.704  -1.162  28.033  0.00  0.00    +0.024 C 
ENDROOT
BRANCH   1   8
ATOM      8  N   UNL A   1     -25.464  -3.161  29.869  0.00  0.00    -0.303 N 
ATOM      9  C   UNL A   1     -26.127  -2.498  30.447  0.00  0.00    +0.080 A 
ATOM     10  C   UNL A   1     -27.548  -2.768  30.554  0.00  0.00    +0.021 A 
ATOM     11  C   UNL A   1     -26.135  -4.469  29.637  0.00  0.00    +0.080 A 
ATOM     12  C   UNL A   1     -27.478  -4.151  30.062  0.00  0.00    +0.021 A 
ENDBRANCH   1   8
BRANCH   5  13
ATOM     13  C   UNL A   1     -22.720   1.943  27.230  0.00  0.00    +0.318 C 
ATOM     14  F   UNL A   1     -21.579   2.246  27.513  0.00  0.00    -0.198 F 
ATOM     15  F   UNL A   1     -22.838   2.110  25.933  0.00  0.00    -0.198 F 
ENDBRANCH   5  13
TORSDOF 2
ENDMDL
ENDMDL
