REMARK  Name = outputs/IAG933/test6/raw/output_4777_IAG933_linker_design_.xyz
REMARK  13 active torsions:
REMARK  status: ('A' for Active; 'I' for Inactive)
REMARK    1  A    between atoms: C_1  and  C_2
REMARK    2  A    between atoms: C_1  and  C_8
REMARK    3  A    between atoms: C_1  and  C_34
REMARK    4  A    between atoms: C_13  and  N_39
REMARK    5  A    between atoms: C_14  and  C_15
REMARK    6  A    between atoms: C_21  and  O_22
REMARK    7  A    between atoms: O_22  and  C_23
REMARK    8  A    between atoms: C_23  and  C_24
REMARK    9  A    between atoms: C_34  and  C_38
REMARK   10  A    between atoms: C_34  and  N_41
REMARK   11  A    between atoms: C_35  and  C_38
REMARK   12  A    between atoms: C_36  and  C_43
REMARK   13  A    between atoms: C_38  and  N_39
REMARK                            x       y       z     vdW  Elec       q    Type
REMARK                         _______ _______ _______ _____ _____    ______ ____
ROOT
ATOM      1  C   UNL A   1     -25.392   0.019  29.046  0.00  0.00    +0.120 C 
ENDROOT
BRANCH   1   3
ATOM      2  O   UNL A   1     -28.043   1.062  30.074  0.00  0.00    -0.273 OA
ATOM      3  N   UNL A   1     -26.796  -0.296  28.608  0.00  0.00    -0.205 NA
ATOM      4  C   UNL A   1     -27.943   0.120  29.272  0.00  0.00    +0.243 C 
BRANCH   4   8
ATOM      5  C   UNL A   1     -33.238  -0.209  27.702  0.00  0.00    +0.032 C 
ATOM      6  C   UNL A   1     -30.239  -0.913  30.021  0.00  0.00    +0.151 C 
ATOM      7  C   UNL A   1     -32.004  -1.010  28.138  0.00  0.00    +0.115 C 
ATOM      8  C   UNL A   1     -29.110  -0.809  29.048  0.00  0.00    +0.108 C 
ATOM      9  O   UNL A   1     -31.565  -0.757  29.506  0.00  0.00    -0.356 OA
ATOM     10  C   UNL A   1     -30.947  -0.822  26.988  0.00  0.00    +0.030 C 
ATOM     11  C   UNL A   1     -29.607  -0.502  27.655  0.00  0.00    +0.014 C 
ENDBRANCH   4   8
ENDBRANCH   1   3
BRANCH   1  12
ATOM     12  C   UNL A   1     -24.855  -1.012  30.143  0.00  0.00    +0.060 C 
BRANCH  12  13
ATOM     13  C   UNL A   1     -24.973  -2.505  29.788  0.00  0.00    -0.019 C 
ATOM     14  C   UNL A   1     -23.906  -3.173  29.146  0.00  0.00    -0.004 C 
ATOM     15  C   UNL A   1     -23.989  -4.549  28.853  0.00  0.00    -0.000 C 
ATOM     16  C   UNL A   1     -25.137  -5.280  29.205  0.00  0.00    -0.000 C 
ATOM     17  C   UNL A   1     -26.232  -4.611  29.784  0.00  0.00    -0.000 C 
ATOM     18  C   UNL A   1     -26.155  -3.232  30.065  0.00  0.00    -0.004 C 
ENDBRANCH  12  13
BRANCH  12  19
ATOM     19  C   UNL A   1     -25.387  -0.679  31.571  0.00  0.00    +0.079 C 
ATOM     20  C   UNL A   1     -25.189   0.773  32.028  0.00  0.00    +0.019 C 
ATOM     21  C   UNL A   1     -25.336   0.684  33.544  0.00  0.00    +0.020 C 
ATOM     22  C   UNL A   1     -24.829  -0.715  33.905  0.00  0.00    +0.089 C 
ATOM     23  N   UNL A   1     -24.758  -1.481  32.646  0.00  0.00    -0.219 NA
ENDBRANCH  12  19
ENDBRANCH   1  12
BRANCH   1  24
ATOM     24  C   UNL A   1     -24.281   0.258  27.958  0.00  0.00    +0.113 C 
BRANCH  24  27
ATOM     25  C   UNL A   1     -21.994  -0.278  29.541  0.00  0.00    +0.002 C 
ATOM     26  C   UNL A   1     -21.767   1.441  27.611  0.00  0.00    +0.002 C 
ATOM     27  C   UNL A   1     -22.774   0.543  28.417  0.00  0.00    +0.022 C 
ENDBRANCH  24  27
BRANCH  24  28
ATOM     28  N   UNL A   1     -24.693   1.509  27.310  0.00  0.00    -0.235 NA
BRANCH  28  29
ATOM     29  C   UNL A   1     -25.688   1.614  26.461  0.00  0.00    +0.103 C 
ATOM     30  C   UNL A   1     -26.250   2.920  26.395  0.00  0.00    +0.091 C 
ATOM     31  C   UNL A   1     -27.438   3.091  25.645  0.00  0.00    +0.108 C 
ATOM     32  N   UNL A   1     -28.075   2.089  25.003  0.00  0.00    -0.208 NA
ATOM     33  C   UNL A   1     -27.543   0.849  25.079  0.00  0.00    +0.255 C 
ATOM     34  C   UNL A   1     -26.354   0.576  25.777  0.00  0.00    +0.208 C 
ATOM     35  F   UNL A   1     -25.860  -0.681  25.795  0.00  0.00    -0.198 F 
BRANCH  30  36
ATOM     36  C   UNL A   1     -25.642   4.093  27.123  0.00  0.00    +0.268 C 
ATOM     37  N   UNL A   1     -25.614   5.252  26.449  0.00  0.00    -0.200 NA
ATOM     38  C   UNL A   1     -25.026   6.479  26.963  0.00  0.00    +0.139 C 
ATOM     39  O   UNL A   1     -25.143   3.966  28.243  0.00  0.00    -0.268 OA
ENDBRANCH  30  36
BRANCH  33  40
ATOM     40  O   UNL A   1     -28.193  -0.208  24.477  0.00  0.00    -0.456 OA
BRANCH  40  41
ATOM     41  C   UNL A   1     -29.460   0.005  23.866  0.00  0.00    +0.243 C 
BRANCH  41  42
ATOM     42  C   UNL A   1     -30.065  -1.377  23.573  0.00  0.00    +0.229 C 
ATOM     43  O   UNL A   1     -30.729  -1.878  24.721  0.00  0.00    -0.216 OA
ENDBRANCH  41  42
ENDBRANCH  40  41
ENDBRANCH  33  40
ENDBRANCH  28  29
ENDBRANCH  24  28
ENDBRANCH   1  24
TORSDOF 13
