MODEL 4777
MODEL 1
REMARK VINA RESULT:    -7.917      0.000      0.000
REMARK INTER + INTRA:         -11.808
REMARK INTER:                 -10.231
REMARK INTRA:                  -1.577
REMARK UNBOUND:                -1.577
REMARK  Name = No_4777-gen_results/8p0m/2024-11-27-11-27-31/
REMARK  5 active torsions:
REMARK  status: ('A' for Active; 'I' for Inactive)
REMARK    1  A    between atoms: C_2  and  C_18
REMARK    2  A    between atoms: C_3  and  C_4
REMARK    3  A    between atoms: C_4  and  C_8
REMARK    4  A    between atoms: C_8  and  C_12
REMARK    5  A    between atoms: C_9  and  C_10
REMARK                            x       y       z     vdW  Elec       q    Type
REMARK                         _______ _______ _______ _____ _____    ______ ____
ROOT
ATOM      1  C   UNL A   1     -23.123  -2.263  28.944  0.00  0.00    +0.052 C 
ENDROOT
BRANCH   1   4
ATOM      2  C   UNL A   1     -25.623  -2.490  29.746  0.00  0.00    +0.001 A 
ATOM      3  C   UNL A   1     -26.348  -3.216  29.983  0.00  0.00    +0.055 A 
ATOM      4  C   UNL A   1     -24.317  -3.027  29.204  0.00  0.00    -0.018 A 
ATOM      5  C   UNL A   1     -26.429  -4.653  29.687  0.00  0.00    +0.004 A 
ATOM      6  C   UNL A   1     -25.284  -5.212  29.164  0.00  0.00    -0.000 A 
ATOM      7  C   UNL A   1     -24.199  -4.425  28.874  0.00  0.00    -0.004 A 
BRANCH   3   8
ATOM      8  C   UNL A   1     -27.755  -2.767  30.640  0.00  0.00    +0.265 C 
ATOM      9  O   UNL A   1     -27.813  -1.698  31.143  0.00  0.00    -0.268 OA
ATOM     10  N   UNL A   1     -28.830  -3.526  30.343  0.00  0.00    -0.200 NA
ATOM     11  C   UNL A   1     -29.870  -3.637  31.016  0.00  0.00    +0.139 C 
ENDBRANCH   3   8
ENDBRANCH   1   4
BRANCH   1  12
ATOM     12  C   UNL A   1     -23.040  -0.917  29.310  0.00  0.00    -0.022 C 
ATOM     13  C   UNL A   1     -22.735  -0.548  30.551  0.00  0.00    -0.030 C 
BRANCH  12  14
ATOM     14  C   UNL A   1     -23.272   0.082  28.316  0.00  0.00    -0.004 A 
ATOM     15  C   UNL A   1     -24.440   0.217  27.653  0.00  0.00    +0.001 A 
ATOM     16  C   UNL A   1     -22.211   1.012  28.131  0.00  0.00    +0.001 A 
ATOM     17  C   UNL A   1     -22.161   1.937  27.076  0.00  0.00    +0.011 A 
ATOM     18  C   UNL A   1     -24.509   1.257  26.570  0.00  0.00    +0.011 A 
ATOM     19  C   UNL A   1     -23.399   2.094  26.408  0.00  0.00    +0.058 A 
ATOM     20 CL   UNL A   1     -23.425   3.358  25.267  0.00  0.00    -0.082 Cl
ENDBRANCH  12  14
BRANCH  13  21
ATOM     21  C   UNL A   1     -23.419  -0.323  31.569  0.00  0.00    +0.026 C 
ATOM     22  C   UNL A   1     -23.381  -1.258  32.689  0.00  0.00    +0.005 C 
ENDBRANCH  13  21
ENDBRANCH   1  12
TORSDOF 5
ENDMDL
ENDMDL
