MODEL 4778
MODEL 1
REMARK VINA RESULT:    -7.838      0.000      0.000
REMARK INTER + INTRA:          -9.360
REMARK INTER:                  -9.212
REMARK INTRA:                  -0.147
REMARK UNBOUND:                -0.147
REMARK  Name = No_4778-gen_results/8p0m/2024-11-27-11-27-31/
REMARK  3 active torsions:
REMARK  status: ('A' for Active; 'I' for Inactive)
REMARK    1  A    between atoms: C_2  and  C_8
REMARK    2  A    between atoms: N_10  and  C_12
REMARK    3  A    between atoms: C_23  and  C_26
REMARK                            x       y       z     vdW  Elec       q    Type
REMARK                         _______ _______ _______ _____ _____    ______ ____
ROOT
ATOM      1  C   UNL A   1     -24.401   0.365  30.466  0.00  0.00    +0.054 A 
ATOM      2  C   UNL A   1     -24.428   1.633  30.997  0.00  0.00    +0.015 A 
ATOM      3  C   UNL A   1     -25.008   1.694  32.216  0.00  0.00    +0.001 A 
ATOM      4  C   UNL A   1     -26.194   0.992  32.416  0.00  0.00    +0.000 A 
ATOM      5  C   UNL A   1     -26.318  -0.240  31.692  0.00  0.00    +0.001 A 
ATOM      6  C   UNL A   1     -25.331  -0.651  31.245  0.00  0.00    +0.014 A 
ATOM      7  C   UNL A   1     -27.651  -0.913  31.759  0.00  0.00    +0.000 A 
ATOM      8  C   UNL A   1     -27.707  -2.031  31.192  0.00  0.00    +0.000 A 
ATOM      9  C   UNL A   1     -28.893  -2.756  30.924  0.00  0.00    +0.000 A 
ATOM     10  C   UNL A   1     -28.861  -4.042  30.224  0.00  0.00    +0.000 A 
ATOM     11  C   UNL A   1     -27.596  -4.545  29.773  0.00  0.00    +0.007 A 
ATOM     12  C   UNL A   1     -26.458  -3.786  29.972  0.00  0.00    +0.080 A 
ATOM     13  C   UNL A   1     -26.527  -2.618  30.635  0.00  0.00    +0.006 A 
ATOM     14  C   UNL A   1     -25.587  -1.999  30.253  0.00  0.00    +0.001 A 
ENDROOT
BRANCH   1  17
ATOM     15  C   UNL A   1     -22.673  -0.582  29.031  0.00  0.00    +0.253 C 
ATOM     16  O   UNL A   1     -21.641  -1.080  28.965  0.00  0.00    -0.270 OA
ATOM     17  N   UNL A   1     -23.147  -0.186  30.308  0.00  0.00    -0.253 N 
ATOM     18  C   UNL A   1     -22.512  -0.724  31.460  0.00  0.00    +0.120 C 
BRANCH  15  20
ATOM     19  C   UNL A   1     -24.279  -0.122  27.301  0.00  0.00    +0.016 A 
ATOM     20  C   UNL A   1     -23.298   0.209  27.928  0.00  0.00    +0.055 A 
ATOM     21  C   UNL A   1     -22.653   1.413  27.669  0.00  0.00    +0.005 A 
ATOM     22  C   UNL A   1     -23.105   2.284  26.614  0.00  0.00    +0.001 A 
ATOM     23  C   UNL A   1     -24.230   1.814  25.925  0.00  0.00    +0.011 A 
ATOM     24  C   UNL A   1     -24.793   0.659  26.198  0.00  0.00    +0.058 A 
ATOM     25 CL   UNL A   1     -26.123   0.160  25.257  0.00  0.00    -0.082 Cl
ENDBRANCH  15  20
ENDBRANCH   1  17
BRANCH  12  26
ATOM     26  C   UNL A   1     -25.227  -4.368  29.416  0.00  0.00    +0.388 C 
ATOM     27  O   UNL A   1     -24.891  -5.488  29.606  0.00  0.00    -0.241 OA
ATOM     28  O   UNL A   1     -24.564  -3.652  28.533  0.00  0.00    -0.241 OA
ENDBRANCH  12  26
TORSDOF 3
ENDMDL
ENDMDL
