REMARK  Name = outputs/IAG933/test6/raw/output_4778_IAG933_linker_design_.xyz
REMARK  8 active torsions:
REMARK  status: ('A' for Active; 'I' for Inactive)
REMARK    1  A    between atoms: C_1  and  C_2
REMARK    2  A    between atoms: C_1  and  C_8
REMARK    3  A    between atoms: C_1  and  C_36
REMARK    4  A    between atoms: C_13  and  C_32
REMARK    5  A    between atoms: C_14  and  C_15
REMARK    6  A    between atoms: C_21  and  O_22
REMARK    7  A    between atoms: O_22  and  C_23
REMARK    8  A    between atoms: C_23  and  C_24
REMARK                            x       y       z     vdW  Elec       q    Type
REMARK                         _______ _______ _______ _____ _____    ______ ____
ROOT
ATOM      1  C   UNL A   1     -26.253   0.461  28.756  0.00  0.00    +0.451 C 
ATOM      2  O   UNL A   1     -26.936  -0.614  28.451  0.00  0.00    -0.222 OA
ATOM      3 CL   UNL A   1     -22.740   2.472  25.297  0.00  0.00    -0.082 Cl
ATOM      4  N   UNL A   1     -24.858   0.555  28.334  0.00  0.00    -0.219 N 
ATOM      5  C   UNL A   1     -24.481   1.184  27.203  0.00  0.00    +0.144 C 
ATOM      6  O   UNL A   1     -20.837   1.405  27.564  0.00  0.00    -0.475 OA
ATOM      7  C   UNL A   1     -23.192   1.557  26.796  0.00  0.00    +0.092 C 
ATOM      8  C   UNL A   1     -22.208   1.126  27.711  0.00  0.00    +0.144 C 
ATOM      9  C   UNL A   1     -23.961  -0.101  29.204  0.00  0.00    +0.039 C 
ATOM     10  C   UNL A   1     -22.619   0.283  28.756  0.00  0.00    +0.026 C 
ATOM     11  C   UNL A   1     -21.332  -0.008  29.364  0.00  0.00    +0.078 C 
ATOM     12  C   UNL A   1     -20.176   0.396  28.329  0.00  0.00    +0.210 C 
ATOM     13  O   UNL A   1     -26.716   1.384  29.446  0.00  0.00    -0.222 OA
ENDROOT
BRANCH   5  14
ATOM     14  C   UNL A   1     -25.688   1.614  26.461  0.00  0.00    +0.039 C 
ATOM     15  C   UNL A   1     -26.250   2.920  26.395  0.00  0.00    +0.074 C 
ATOM     16  C   UNL A   1     -27.438   3.091  25.645  0.00  0.00    +0.106 C 
ATOM     17  N   UNL A   1     -28.075   2.089  25.003  0.00  0.00    -0.208 NA
ATOM     18  C   UNL A   1     -27.543   0.849  25.079  0.00  0.00    +0.253 C 
ATOM     19  C   UNL A   1     -26.354   0.576  25.777  0.00  0.00    +0.191 C 
ATOM     20  F   UNL A   1     -25.860  -0.681  25.795  0.00  0.00    -0.200 F 
BRANCH  15  21
ATOM     21  C   UNL A   1     -25.642   4.093  27.123  0.00  0.00    +0.266 C 
ATOM     22  N   UNL A   1     -25.614   5.252  26.449  0.00  0.00    -0.200 NA
ATOM     23  C   UNL A   1     -25.026   6.479  26.963  0.00  0.00    +0.139 C 
ATOM     24  O   UNL A   1     -25.143   3.966  28.243  0.00  0.00    -0.268 OA
ENDBRANCH  15  21
BRANCH  18  25
ATOM     25  O   UNL A   1     -28.193  -0.208  24.477  0.00  0.00    -0.456 OA
BRANCH  25  26
ATOM     26  C   UNL A   1     -29.460   0.005  23.866  0.00  0.00    +0.243 C 
BRANCH  26  27
ATOM     27  C   UNL A   1     -30.065  -1.377  23.573  0.00  0.00    +0.229 C 
ATOM     28  O   UNL A   1     -30.729  -1.878  24.721  0.00  0.00    -0.216 OA
ENDBRANCH  26  27
ENDBRANCH  25  26
ENDBRANCH  18  25
ENDBRANCH   5  14
BRANCH   9  29
ATOM     29  C   UNL A   1     -24.855  -1.012  30.143  0.00  0.00    +0.074 C 
BRANCH  29  30
ATOM     30  C   UNL A   1     -24.973  -2.505  29.788  0.00  0.00    -0.016 C 
ATOM     31  C   UNL A   1     -23.906  -3.173  29.146  0.00  0.00    -0.004 C 
ATOM     32  C   UNL A   1     -23.989  -4.549  28.853  0.00  0.00    -0.000 C 
ATOM     33  C   UNL A   1     -25.137  -5.280  29.205  0.00  0.00    -0.000 C 
ATOM     34  C   UNL A   1     -26.232  -4.611  29.784  0.00  0.00    -0.000 C 
ATOM     35  C   UNL A   1     -26.155  -3.232  30.065  0.00  0.00    -0.004 C 
ENDBRANCH  29  30
BRANCH  29  36
ATOM     36  C   UNL A   1     -25.387  -0.679  31.571  0.00  0.00    +0.082 C 
ATOM     37  C   UNL A   1     -25.189   0.773  32.028  0.00  0.00    +0.020 C 
ATOM     38  C   UNL A   1     -25.336   0.684  33.544  0.00  0.00    +0.020 C 
ATOM     39  C   UNL A   1     -24.829  -0.715  33.905  0.00  0.00    +0.089 C 
ATOM     40  N   UNL A   1     -24.758  -1.481  32.646  0.00  0.00    -0.219 NA
ENDBRANCH  29  36
ENDBRANCH   9  29
TORSDOF 8
