MODEL 4779
MODEL 1
REMARK VINA RESULT:    -5.426      0.000      0.000
REMARK INTER + INTRA:          -8.934
REMARK INTER:                  -7.964
REMARK INTRA:                  -0.971
REMARK UNBOUND:                -0.971
REMARK  Name = No_4779-gen_results/8p0m/2024-11-27-11-27-31/
REMARK  8 active torsions:
REMARK  status: ('A' for Active; 'I' for Inactive)
REMARK    1  A    between atoms: C_2  and  O_7
REMARK    2  A    between atoms: C_4  and  C_12
REMARK    3  A    between atoms: O_7  and  C_8
REMARK    4  A    between atoms: C_8  and  C_9
REMARK    5  A    between atoms: C_12  and  C_13
REMARK    6  A    between atoms: C_12  and  C_15
REMARK    7  A    between atoms: C_15  and  N_16
REMARK    8  A    between atoms: N_16  and  C_18
REMARK                            x       y       z     vdW  Elec       q    Type
REMARK                         _______ _______ _______ _____ _____    ______ ____
ROOT
ATOM      1  C   UNL A   1     -27.012 -11.867  33.150  0.00  0.00    +0.037 A 
ATOM      2  C   UNL A   1     -27.586 -11.289  33.819  0.00  0.00    +0.139 A 
ATOM      3  C   UNL A   1     -27.813 -12.575  32.152  0.00  0.00    -0.001 A 
ATOM      4  C   UNL A   1     -28.406 -11.958  31.268  0.00  0.00    -0.017 A 
ATOM      5  C   UNL A   1     -28.646 -10.293  33.215  0.00  0.00    +0.037 A 
ATOM      6  C   UNL A   1     -29.219 -10.790  31.998  0.00  0.00    -0.001 A 
ENDROOT
BRANCH   2   7
ATOM      7  O   UNL A   1     -27.100 -10.639  34.964  0.00  0.00    -0.464 OA
BRANCH   7   8
ATOM      8  C   UNL A   1     -26.884  -9.329  34.797  0.00  0.00    +0.319 C 
BRANCH   8   9
ATOM      9  C   UNL A   1     -27.135  -8.574  35.898  0.00  0.00    +0.408 C 
ATOM     10  O   UNL A   1     -26.533  -7.712  36.238  0.00  0.00    -0.241 OA
ATOM     11  O   UNL A   1     -28.213  -8.935  36.563  0.00  0.00    -0.241 OA
ENDBRANCH   8   9
ENDBRANCH   7   8
ENDBRANCH   2   7
BRANCH   4  12
ATOM     12  C   UNL A   1     -29.185 -12.493  30.124  0.00  0.00    +0.066 C 
BRANCH  12  13
ATOM     13  C   UNL A   1     -29.115 -11.730  28.998  0.00  0.00    -0.025 C 
ATOM     14  C   UNL A   1     -29.327 -12.254  27.684  0.00  0.00    -0.030 C 
ATOM     15  C   UNL A   1     -29.472 -11.425  26.612  0.00  0.00    +0.030 C 
ENDBRANCH  12  13
BRANCH  12  16
ATOM     16  C   UNL A   1     -29.898 -13.702  30.064  0.00  0.00    +0.121 C 
BRANCH  16  17
ATOM     17  N   UNL A   1     -31.034 -13.851  30.846  0.00  0.00    -0.236 NA
BRANCH  17  18
ATOM     18  C   UNL A   1     -31.193 -14.749  31.683  0.00  0.00    +0.080 C 
ATOM     19  C   UNL A   1     -30.889 -14.389  33.096  0.00  0.00    +0.019 C 
ENDBRANCH  17  18
ENDBRANCH  16  17
ENDBRANCH  12  16
ENDBRANCH   4  12
TORSDOF 8
ENDMDL
ENDMDL
