MODEL 477
MODEL 1
REMARK VINA RESULT:    -8.914      0.000      0.000
REMARK INTER + INTRA:         -11.518
REMARK INTER:                  -9.957
REMARK INTRA:                  -1.561
REMARK UNBOUND:                -1.561
REMARK  Name = No_477-gen_results/8p0m/2024-11-27-11-27-31/
REMARK  2 active torsions:
REMARK  status: ('A' for Active; 'I' for Inactive)
REMARK    1  A    between atoms: C_2  and  C_8
REMARK    2  A    between atoms: C_13  and  C_17
REMARK                            x       y       z     vdW  Elec       q    Type
REMARK                         _______ _______ _______ _____ _____    ______ ____
ROOT
ATOM      1  C   UNL A   1     -24.851   0.902  28.187  0.00  0.00    +0.037 C 
ATOM      2  C   UNL A   1     -23.398   0.803  28.167  0.00  0.00    -0.023 A 
ATOM      3  C   UNL A   1     -22.775   1.560  27.870  0.00  0.00    -0.004 A 
ATOM      4  C   UNL A   1     -21.235   1.435  27.786  0.00  0.00    -0.000 A 
ATOM      5  C   UNL A   1     -22.917  -0.497  28.791  0.00  0.00    -0.022 A 
ATOM      6  C   UNL A   1     -23.739  -1.450  29.426  0.00  0.00    +0.044 C 
ATOM      7  C   UNL A   1     -20.690   0.236  28.286  0.00  0.00    -0.000 A 
ATOM      8  C   UNL A   1     -21.491  -0.723  28.848  0.00  0.00    -0.004 A 
ATOM      9  C   UNL A   1     -23.889  -1.425  30.835  0.00  0.00    +0.009 C 
ATOM     10  C   UNL A   1     -25.210   2.324  28.587  0.00  0.00    +0.009 C 
ATOM     11  C   UNL A   1     -25.657   0.138  29.407  0.00  0.00    +0.008 C 
ATOM     12  C   UNL A   1     -24.994  -0.389  30.474  0.00  0.00    +0.001 C 
ENDROOT
BRANCH   1  14
ATOM     13  C   UNL A   1     -25.070   0.077  25.907  0.00  0.00    -0.001 A 
ATOM     14  C   UNL A   1     -25.640   0.468  26.899  0.00  0.00    -0.019 A 
ATOM     15  C   UNL A   1     -26.996   0.733  26.988  0.00  0.00    -0.005 A 
ATOM     16  C   UNL A   1     -27.781   0.494  25.822  0.00  0.00    +0.011 A 
ATOM     17  C   UNL A   1     -27.142  -0.082  24.784  0.00  0.00    +0.135 A 
ATOM     18  C   UNL A   1     -25.841  -0.378  24.835  0.00  0.00    +0.036 A 
ATOM     19  O   UNL A   1     -27.916  -0.376  23.699  0.00  0.00    -0.476 OA
ATOM     20  C   UNL A   1     -29.246   0.731  25.868  0.00  0.00    +0.025 C 
ATOM     21  C   UNL A   1     -30.010   0.039  25.241  0.00  0.00    +0.051 C 
ATOM     22  C   UNL A   1     -29.290  -0.316  23.814  0.00  0.00    +0.206 C 
ATOM     23  C   UNL A   1     -29.694   0.587  27.429  0.00  0.00    +0.005 C 
ATOM     24  C   UNL A   1     -29.364   2.275  25.540  0.00  0.00    +0.005 C 
ENDBRANCH   1  14
BRANCH   6  25
ATOM     25  C   UNL A   1     -24.081  -2.652  28.784  0.00  0.00    -0.027 C 
ATOM     26  C   UNL A   1     -24.194  -3.663  28.884  0.00  0.00    -0.030 C 
ATOM     27  C   UNL A   1     -24.603  -4.964  29.055  0.00  0.00    +0.030 C 
ENDBRANCH   6  25
TORSDOF 2
ENDMDL
ENDMDL
