MODEL 4780
MODEL 1
REMARK VINA RESULT:    -6.623      0.000      0.000
REMARK INTER + INTRA:          -8.115
REMARK INTER:                  -7.785
REMARK INTRA:                  -0.330
REMARK UNBOUND:                -0.330
REMARK  Name = No_4780-gen_results/8p0m/2024-11-27-11-27-31/
REMARK  3 active torsions:
REMARK  status: ('A' for Active; 'I' for Inactive)
REMARK    1  A    between atoms: C_1  and  C_2
REMARK    2  A    between atoms: C_1  and  P_8
REMARK    3  A    between atoms: P_8  and  O_9
REMARK                            x       y       z     vdW  Elec       q    Type
REMARK                         _______ _______ _______ _____ _____    ______ ____
ROOT
ATOM      1  C   UNL A   1     -29.963 -11.192  10.173  0.00  0.00    +0.074 C 
ATOM      2  C   UNL A   1     -28.854 -10.505   9.683  0.00  0.00    +0.173 C 
ATOM      3  C   UNL A   1     -28.723  -9.048   9.482  0.00  0.00    +0.030 A 
ATOM      4  C   UNL A   1     -29.928  -8.292   9.616  0.00  0.00    -0.024 A 
ATOM      5  C   UNL A   1     -31.078  -8.951  10.063  0.00  0.00    +0.023 C 
ATOM      6  C   UNL A   1     -31.121 -10.279  10.311  0.00  0.00    +0.013 C 
ATOM      7  C   UNL A   1     -29.816  -6.848   9.463  0.00  0.00    -0.026 A 
ATOM      8  C   UNL A   1     -28.702  -6.316   8.748  0.00  0.00    -0.005 A 
ATOM      9  C   UNL A   1     -27.563  -7.128   8.635  0.00  0.00    -0.000 A 
ATOM     10  C   UNL A   1     -27.558  -8.552   8.916  0.00  0.00    +0.003 A 
ATOM     11  O   UNL A   1     -27.711 -11.185   9.518  0.00  0.00    -0.291 OA
ATOM     12  C   UNL A   1     -32.251  -8.076  10.324  0.00  0.00    +0.005 C 
ATOM     13  C   UNL A   1     -31.991  -7.015  11.066  0.00  0.00    +0.005 C 
ATOM     14  C   UNL A   1     -30.901  -6.096  10.344  0.00  0.00    +0.026 C 
ENDROOT
BRANCH   1  15
ATOM     15  C   UNL A   1     -29.996 -12.391  10.321  0.00  0.00    +0.128 C 
BRANCH  15  16
ATOM     16  P   UNL A   1     -30.053 -12.926  11.988  0.00  0.00    +0.400 P 
ATOM     17  O   UNL A   1     -29.249 -11.947  12.802  0.00  0.00    -0.138 OA
ATOM     18  O   UNL A   1     -31.446 -12.960  12.408  0.00  0.00    -0.253 OA
BRANCH  16  19
ATOM     19  O   UNL A   1     -29.423 -14.229  12.063  0.00  0.00    -0.104 OA
ATOM     20  F   UNL A   1     -29.614 -15.057  12.948  0.00  0.00    -0.039 F 
ENDBRANCH  16  19
ENDBRANCH  15  16
ENDBRANCH   1  15
TORSDOF 3
ENDMDL
ENDMDL
